50
Energy = -223.5159036 eV
Ni 13.256872975533941 11.941195267721271 12.647320044229113
Ni 11.649580197560775 13.741419458989435 11.946228706586584
Ni 14.660437330486575 11.331392305429816 9.873898074050407
Ni 10.959395496697473 11.742564284512826 13.216627172530625
Ni 9.757189427345766 14.62889157623645 10.725089343096036
Ni 13.676690376476616 9.773100526132998 11.54963731404735
Ni 11.329869993076867 13.601486079795782 9.19994684760639
Ni 12.458023723436607 9.938993401194294 13.561632188036649
Ni 9.34895839871952 13.408091306346948 12.83214085669261
Ni 12.549729148637345 12.115406102308551 10.511133516655466
Ni 12.819304459958703 9.997172535162859 9.376459618422862
Ni 10.130233572150413 12.312174780453013 10.866287872636725
Ni 7.107787924746376 12.682482224486256 13.08213527984232
Ni 8.824652892535772 11.481573557467568 14.340879103198915
Ni 9.08072837949145 13.124293618422955 8.830438030610003
Ni 7.8799431433158045 13.204964599735353 10.926978281929365
Ni 10.149410726584971 9.465032459240051 13.342304982441805
Ni 10.682314106782417 10.945187990424039 8.97284401504166
Ni 11.89529188660065 8.153867368321961 12.159608327914567
Ni 14.897820873207321 8.946599765830463 9.585364402924931
Ni 10.621925088756184 12.280071671370244 7.136502432798038
Ni 12.892409043672815 12.144119394206685 8.186687578516302
Ni 14.370355391060743 10.283839235450163 7.6818696834446465
Ni 8.589105978349568 10.971232030249682 12.183703578301152
Ni 11.231268602080348 10.258583670772097 11.31929239760586
Ni 8.3672050360837 10.973838353420915 9.87478119681458
Ni 7.986471661073959 8.675869182811237 13.13716997776156
Ni 12.06680813409362 10.260546271315098 7.03508432382786
Ni 6.51515235899488 10.462605540658627 13.212542195918987
Ni 9.209700742071746 8.937663345702703 10.995473349933821
Ni 13.213009442450094 7.499129605945419 10.293564405433457
Ni 9.75153902615819 7.1861742871959144 12.442836376524253
Ni 6.750253697795671 12.545119009319793 8.916413958912306
Ni 13.120250071682216 8.16341431900705 7.97702925980676
Ni 6.2625726435847655 11.53044331974143 11.035097267747332
Ni 9.17499338157318 9.16238957846969 8.559804175617032
Ni 11.13659717776244 8.415027217824079 9.70238928927849
Ni 10.926859585003147 8.186665974562656 7.200774483633624
Ni 11.40146884180976 6.173557988665146 11.034344676816975
Ni 8.266780737224979 11.309545657116328 7.531727625878691
Ni 9.82611693202027 10.10696869831004 6.364056932978772
Ni 6.838747116838349 9.290295304220022 11.095697516206279
Ni 7.577560493764909 7.075065703248583 11.443142906383926
Ni 6.4961754169143395 10.152536409268238 8.826578249955164
Ni 11.450416329794553 6.395572384177766 8.652950270789688
Ni 9.246927908217797 8.001644684880658 5.568664762819698
Ni 7.330881019312696 7.908576866041695 9.215798072209326
Ni 7.580357235598451 8.92487063712788 6.983397807419856
Ni 9.385576607621283 6.740908364644341 9.979428584754059
Ni 8.98147339846723 6.976745427691799 7.673007941410279
