51
Energy = -185.11418038 eV
Ni 10.046081633522896 10.53069832154458 13.835676211293325
Ni 6.472372278118192 9.876485330373555 8.279421637851204
Ni 14.165923774753537 17.477164874853525 9.99266713693927
Ni 13.358867673307959 12.36136924419233 5.819313084698015
Ni 17.61630837375033 11.917207097232525 10.882105125012838
Ni 7.652850279419768 12.005385701050676 15.108451543243305
Ni 6.740915920833326 10.111817079191075 11.374439190617048
Ni 13.167830957138623 9.298218736767804 12.453203581420704
Ni 10.628815100163942 14.334378145318047 13.974928895592786
Ni 14.331109495149706 9.810406857271214 17.023664548083666
Ni 10.220773817992498 18.211786825618688 12.335343606772911
Ni 14.751771752221664 12.96808150132185 10.377368404900755
Ni 8.745995453945211 7.167146516766097 10.458441846147398
Ni 10.864288623803688 9.276526336285661 9.587178524528687
Ni 16.43341752433637 15.373093648616772 13.834573849323482
Ni 8.149945570631024 8.205343687279747 14.397949310949317
Ni 15.223504916036989 7.769739333554192 10.671968666092488
Ni 7.440300027102429 14.645494410548649 12.807688328461719
Ni 7.075339155359473 12.836695059277934 7.87677021261749
Ni 11.184313470968629 15.65621154289382 6.540918916472059
Ni 15.42875919269266 9.970273389206053 8.590669716586836
Ni 10.23270420418049 17.430746169573762 8.842282558498416
Ni 10.743321862408944 4.857643562966843 10.750901844278125
Ni 14.12880232049119 16.35124697194451 7.134306689327807
Ni 13.224656998194867 14.81270856871996 17.71670269177348
Ni 7.874405187745248 16.972954569491023 10.845600810037897
Ni 12.686232120775914 6.5353164279107325 13.627805096664687
Ni 11.750977315641967 15.922371155998013 10.935626423728047
Ni 15.582173647281978 13.65907689274977 7.502989426309752
Ni 5.474622152827227 12.856915154524165 11.163713398059963
Ni 16.37551826090216 15.53641773239658 10.693154953704225
Ni 15.381320054609857 8.592049573276764 14.408875044931165
Ni 9.947214539433917 17.039336055745625 15.192637189945003
Ni 9.456943524818797 13.829000877994554 16.742947532738132
Ni 8.513078289019155 12.552112466509367 10.599104556705955
Ni 13.124548383769353 9.51217115730238 6.898750228323002
Ni 9.846681557267976 10.4961044261398 16.86306374707826
Ni 9.497508716579835 5.411498008481788 8.039530034676904
Ni 11.255500120086888 12.960768423022309 7.888151194230331
Ni 12.457693610497937 12.207905127693037 16.246194861917193
Ni 12.227997977631917 6.625332388035528 8.737756317872915
Ni 15.233269598130702 12.561161902120103 14.16106861182558
Ni 9.271093626855151 11.94548876243725 5.84083591465244
Ni 12.62508335632267 7.27161612280556 16.66631902577492
Ni 9.754086414723956 5.68882052601047 14.169099575914274
Ni 12.89083415278349 16.213398497971568 15.042457663080523
Ni 15.957650655682793 13.829379513523216 16.825539995579675
Ni 17.513197901371168 9.166420867538132 12.195210623508508
Ni 18.20023643756789 12.874756237176221 13.747463073449579
Ni 9.540749420718988 7.043455102159883 16.94213234171853
Ni 9.209502235300407 9.117392753487428 7.034122842686868
