54
Energy = -241.45331765 eV
Ni 7.424665377591821 13.11709508882539 11.849978881988804
Ni 7.29721214170281 10.971204571370505 13.084813103435888
Ni 6.005732101239483 12.801787426348762 10.060516803046198
Ni 9.790766367557046 13.631712950083898 11.170767741148307
Ni 9.306765369854226 9.723557629810784 9.197791388707945
Ni 7.458851438529832 13.068930163656832 14.26602367813927
Ni 6.29171141330152 10.644835989452343 10.96792875010819
Ni 9.325507029074272 11.83343254429876 7.962257377162672
Ni 10.171330302419207 6.228391244088904 8.5960426151903
Ni 9.077859427330798 7.571829629952815 10.221813352262954
Ni 10.958131344423082 6.250317564816519 10.781730526000532
Ni 11.192444303327818 13.683712230516404 13.156613815946525
Ni 12.148026007567323 13.464553377298744 10.913201489110618
Ni 10.064760180984837 8.482852131508926 7.173098969328876
Ni 9.333956424695472 9.701871477670926 13.550849447068728
Ni 9.993446158339632 7.697707570612283 12.463469429321849
Ni 8.58937301553829 11.244908516589174 15.109604192705124
Ni 10.060397700029762 10.595488783687147 6.104757407478199
Ni 10.709982283841224 11.66292889967471 10.058799646017105
Ni 11.358990308711002 8.172461863762766 9.3583161283013
Ni 9.809068079189304 13.315941053583373 15.082395966371015
Ni 12.241593781458844 8.039064243833359 11.550848656271512
Ni 7.989756390801596 9.080027077459967 11.689404509627163
Ni 14.178747079649144 8.447224038231973 10.194742710236765
Ni 12.290513009643387 13.087481585223879 15.109142146715623
Ni 10.929745826057427 11.247603607105509 14.633981290542101
Ni 11.669884062154189 9.285526663437725 13.461235389276792
Ni 9.399349887896385 12.063898725875461 12.967226365731904
Ni 10.406536569851399 9.67579817497271 11.32277381712452
Ni 15.605588663690286 10.180510583190353 11.001687479492023
Ni 11.362134320581502 10.337417937623938 8.078418180583606
Ni 15.200073923651548 11.480243992016725 12.951988867082733
Ni 11.926931342416909 7.101100421599817 7.247195643417193
Ni 13.727200258838291 9.743910076788978 12.291598852580265
Ni 13.20507890141013 11.047057284655008 14.200502861712227
Ni 8.523012095937904 11.277333638243602 10.84849007280411
Ni 13.301092821459893 8.853733175959038 8.072614389322009
Ni 8.200889053697322 7.423752003140447 7.976376364587677
Ni 7.113676868998409 8.922731575036694 9.45136738812647
Ni 12.567350624961675 10.114595492514406 10.18420238315455
Ni 13.434531148249485 13.068500122400286 12.966031931104522
Ni 9.767510664846062 6.375597284730793 6.351197887800467
Ni 11.811275545730727 11.437910557750566 12.264073276630075
Ni 14.55134822916386 10.661584358691504 8.965619194155531
Ni 8.93788817290306 14.451265753248585 13.188121393454347
Ni 14.002178015521245 11.927783427278284 10.959064904512712
Ni 7.1820281885148685 11.226713185381922 8.826277554956745
Ni 8.046980516527741 9.747658446853611 7.230970303545873
Ni 12.054860196860073 9.193180905620496 6.077603544391517
Ni 12.767696008335182 12.29554368018815 8.918463171862156
Ni 13.326925263900101 11.008919774591861 6.944153826666648
Ni 8.241630617874774 13.28942406688931 9.477520065919927
Ni 11.391879693139195 12.437171322565579 6.958850443837878
Ni 10.667380236632903 13.670305221536037 8.920173396574015
