50
Energy = -221.89134103 eV
Ni 9.27596745153113 13.384645541864206 7.939363474240216
Ni 13.228930124357866 12.468052462681158 12.775615060451068
Ni 8.732879014780288 12.794657072213296 14.651922020405406
Ni 13.0492765193814 14.13382336925774 14.420662580684144
Ni 10.893199434058989 13.644521987930979 15.352166707421949
Ni 9.882209027799668 9.075006036126831 14.49152444468187
Ni 11.031904110460834 7.27480859927228 15.372492903170935
Ni 10.863402304095485 12.669660462749894 9.311028486335125
Ni 11.611008013306225 10.31316867099556 12.711681106035416
Ni 12.332623914855711 11.575085684838895 7.828781372647155
Ni 11.813219718737743 16.193629976051533 11.093569591136482
Ni 9.14754631992229 13.907118198719958 12.716005585414607
Ni 9.590602665936744 15.767841460773472 11.412903601936199
Ni 11.783014262718087 8.462234027147304 10.920847269010006
Ni 14.310852060099657 12.900218014022151 8.56915106268819
Ni 11.722609212876566 10.671949718489214 10.183443819347062
Ni 13.711559065240712 10.55822587669472 11.42634740760012
Ni 12.083743623173259 13.879884590048144 7.75550059571375
Ni 15.53932632301853 11.941282598802049 12.54100258887903
Ni 10.392430139055216 11.18426261374071 15.24571117696803
Ni 13.133764327901101 14.791978007957411 9.657505296556899
Ni 11.899555153676793 9.145694720415413 8.527326824262138
Ni 7.679944980786669 12.331377420075082 11.811247116054547
Ni 11.194613998679994 13.848466655103353 11.353530995227661
Ni 10.941438283516874 12.546714886720384 13.377957956284527
Ni 9.433517098144305 6.9786812335184365 13.665016454872292
Ni 9.943797886760187 11.670262898529835 11.34869315442987
Ni 10.673645114815654 15.072218666179117 9.298724637494656
Ni 9.678010783390848 8.797791161126348 12.108703171108617
Ni 8.479498683549533 11.621843841727623 9.484466958910751
Ni 14.03455129670655 8.55191596420511 10.224427635871505
Ni 14.113614541032014 10.422109354114921 13.808045858361181
Ni 8.923371889455433 13.78116239021631 10.31738481914251
Ni 12.215184616286711 9.40512703337515 14.857470546602189
Ni 13.582872165769222 8.510407887435269 12.588119183635357
Ni 13.893230543852173 10.496986778376014 9.01540825603547
Ni 15.1876408484496 14.167344336148153 13.20246589056117
Ni 7.9994181691801165 10.100705365551487 11.238451105007645
Ni 14.819625163238426 12.481268355801262 14.76990165330064
Ni 12.580276230365055 11.819423211968392 15.024343403237202
Ni 9.78153937424253 9.447742147025908 9.820737953677208
Ni 13.294671699252772 14.78236960061519 12.098808389050685
Ni 8.983856125896303 10.88102195111911 13.323695413115951
Ni 11.155158536380567 15.13581637373781 13.321677864280717
Ni 15.574493622572176 11.456669694951197 10.235061533969521
Ni 10.12807018881183 10.865505850127523 7.963271139180046
Ni 11.532348471293918 7.770405649445173 13.18497427947908
Ni 15.673236480469205 9.599802577201562 11.968896450402953
Ni 13.010530788491534 12.601597619365341 10.421810397569487
Ni 15.028436474066417 13.683729762022383 10.828365593445834
