5
Energy = -15.3479386 eV
Ni 9.302225100411547 8.04599330915385 9.142179934449839
Ni 8.540046162589677 8.432471862796886 7.01225863359052
Ni 7.941373402416269 6.350721525759565 8.12732252282451
Ni 8.715882101199584 10.300009775197957 8.56155365560606
Ni 7.08588814399189 8.519446142841963 8.813689321811228
