53
Energy = -236.38513117 eV
Ni 10.106574694696125 9.748627916861402 6.74356171891483
Ni 12.165272277241739 8.722940099669469 7.2148644472950405
Ni 10.10772979593825 7.7861784194027575 8.14572682494583
Ni 9.268558228291806 11.629626189812418 7.883348448543459
Ni 8.321348679809121 9.398498882281327 8.245797492083907
Ni 12.03504409935696 6.363494119987405 7.981947181781798
Ni 11.869021425555808 11.13354300017897 7.617771804235657
Ni 14.034065760159036 7.541258205131138 8.187400504978655
Ni 10.986179494006443 12.942931896209508 8.83984484659898
Ni 13.768581574704301 9.938167657074407 8.478138608350147
Ni 8.494267151116834 13.570421593258907 9.181077189173122
Ni 10.49213256106928 15.200311009670415 9.118098704160486
Ni 13.309174604923525 12.21972607538108 9.284166276608428
Ni 10.578377742606861 9.998896323997613 9.163043391082635
Ni 7.345705534576287 11.345509335678681 9.393344969230013
Ni 10.697546661878132 6.2591681067861895 9.94934701439757
Ni 12.06033541996129 8.20026333519911 9.490685530859993
Ni 8.447110371666614 7.4053636117179575 9.722709431996023
Ni 12.53736618443277 14.3756524455882 9.95771582774867
Ni 6.569058352566838 9.066378078632516 9.769318979499193
Ni 9.493434202379877 11.768261110054768 10.303478212017431
Ni 13.144893671452943 6.2763999752486 10.166930875872598
Ni 12.652917913756463 10.368026481196312 10.495316376385523
Ni 14.359483374161076 8.45777850973248 10.308014744614391
Ni 14.95757031314715 10.768833158280453 10.432720899154988
Ni 9.1983645201899 16.61983951510325 10.311453901316042
Ni 7.662034867165084 15.041864589690793 11.104270815178676
Ni 8.641691569953553 9.548572624420663 10.594722861098012
Ni 11.660878474016195 12.483066979770284 11.109257653747934
Ni 9.823772445161207 14.139646537355453 11.069238347751018
Ni 11.310742789393311 15.862653331550797 11.392276222697037
Ni 7.615430481685604 12.715547581892027 11.381734796002595
Ni 12.413447825050623 8.445899558840784 11.822261279804426
Ni 10.03125490916752 7.865969616367821 11.474378862441318
Ni 9.194144290710778 16.134725534202687 12.566652695792817
Ni 12.8022700801946 14.148876804883791 12.30037221765784
Ni 10.661893084952828 10.196181334733115 11.7847040481727
Ni 6.8840440385687725 10.542714029605852 11.695688533403802
Ni 13.658803703218677 11.80371464385022 12.161682177267004
Ni 9.766459008719 12.290287888768813 12.58938440157618
Ni 14.227230001223207 6.971079649909988 12.146302196753599
Ni 14.453293100478527 9.471497870656039 12.446643972004328
Ni 11.778871832361999 6.325030783799386 12.209027225338584
Ni 8.288736714068344 14.054098769574924 13.241034777135923
Ni 10.693968626147406 14.484114588522884 13.309736009934355
Ni 8.674398953748659 9.3864677548326 12.929553524174441
Ni 11.853692607297564 12.429186588247761 13.67280485693448
Ni 12.43788857845971 10.188757680066532 13.507226810095347
Ni 7.8688835362567096 11.619860047486043 13.62757344084578
Ni 10.794140035148738 8.413601293622865 13.611652398705111
Ni 13.106708379788026 7.942881938943922 13.955598487819032
Ni 10.175781593443427 10.652192093315792 14.242376545113364
Ni 9.679231006228886 12.89522197520625 14.827827782962546
