5
Energy = -15.29623553 eV
Ni 9.630958874078212 9.05181002743235 8.835343513950122
Ni 9.812164681844951 11.165090514128774 9.704176219389755
Ni 7.755284690132485 9.84667753018484 10.044335556890578
Ni 11.807777211618296 9.71057397038358 9.491959986980316
Ni 9.9531375163872 9.35028478436164 11.084278801918362
