6
Energy = -18.19800859 eV
Ni 11.66443551806704 11.18438853749727 9.914949388606537
Ni 9.802258934882898 9.877251974806079 10.243148209362587
Ni 8.012778118104066 8.649819699683514 10.610573775888572
Ni 12.477553510641537 12.331232933428765 11.674904879634893
Ni 10.68761169461867 11.088126180265471 11.977972183980206
Ni 8.81325625817641 9.798694018953404 12.354628644528482
