6
Energy = -19.56296474 eV
Ni 7.698771246307342 6.5465776676801095 8.163165473379953
Ni 9.043497131436517 8.422449824736761 8.290324158044474
Ni 7.822652893602491 7.884438094230888 6.39732845252284
Ni 6.727995662467556 8.687103679721378 8.320050649893147
Ni 7.280303213043003 5.659543705855906 6.0663726277609715
Ni 5.702549200803733 7.075656375434972 7.038527986058631
