6
Energy = -19.56266147 eV
Ni 8.546800133640561 7.17510746543709 7.563191761945608
Ni 7.084452179367635 6.002183722090326 8.911980917980554
Ni 7.904648716384649 7.591630146424991 5.386636377148941
Ni 7.614790119809952 9.255843384768907 7.000198993046242
Ni 7.115383042440951 8.329258460005118 9.04883755226432
Ni 6.37876788484443 7.2591424297710345 7.095356016566387
