6
Energy = -19.56315715 eV
Ni 10.219378607790588 8.647648989737313 9.470705883410812
Ni 10.598157647934244 12.34245572990843 10.336055866108321
Ni 11.159686711401726 10.19108899564158 10.973599408777456
Ni 9.440167771108797 8.804921421506652 11.668077385336566
Ni 10.88382934670987 10.710464552385476 8.693462775749452
Ni 9.10498887280969 10.579854780676719 10.226495786652439
