6
Energy = -19.55739881 eV
Ni 9.382841167331364 7.446635790924527 7.102793168099066
Ni 7.4562717232337805 6.126102624404006 7.130793975191313
Ni 7.998055957273462 7.358012695152453 9.006172659416439
Ni 7.2436792559542145 8.422286083739161 7.20326295464591
Ni 6.916318865683054 9.377860606844553 9.2785855919534
Ni 9.069880649104288 9.348347593249652 8.360011433279777
