6
Energy = -19.56017221 eV
Ni 10.296326933514019 7.688640124598589 10.084526368224632
Ni 9.067876838795732 8.825337312944264 8.466085570902019
Ni 10.197582659141405 11.563583128090416 10.879967261020427
Ni 9.069636260062468 9.54910123762904 10.70618819959241
Ni 9.011027763049787 11.083503306741502 8.927557959613244
Ni 10.919372248408514 9.841657493321536 9.51110312572624
