6
Energy = -19.5604465 eV
Ni 10.6676072903427 9.185153433513749 10.034841670661255
Ni 8.696041875291359 10.044873514891705 10.982220868582347
Ni 12.38103824797001 10.719403934449291 10.270159052103542
Ni 10.725177090464323 10.597179994477331 11.916882522010422
Ni 8.903075995147665 9.782053023138394 8.665880771767197
Ni 10.218672643306892 11.344101279398055 9.747931783715096
