6
Energy = -18.98352542 eV
Ni 7.282742463391271 8.272003715227404 8.987856456325117
Ni 10.857308690419277 8.90899048276274 7.5304257848852245
Ni 7.038107150720263 6.553174362136686 7.566738328171333
Ni 8.966726321883687 7.7005049386180175 7.539322714584012
Ni 7.5761545834212285 10.015682754465887 10.373052864726349
Ni 9.221405841022687 9.492088746789387 8.94504885130784
