6
Energy = -19.56204659 eV
Ni 9.372888129996891 7.461908138760639 7.108597131026475
Ni 9.873681657581788 9.096871312453475 8.694488390116128
Ni 8.195182524540128 7.567179958142599 9.139591449133432
Ni 7.819643696078374 9.146275075961245 7.628292013754847
Ni 7.133820173049665 6.937788676824272 7.1241381064192675
Ni 5.99494638855476 8.186118895282506 8.704486001099259
