7
Energy = -23.76656748 eV
Ni 9.293641585842431 8.509556367414646 8.811101708388968
Ni 8.174971478247066 6.515948442250998 8.939522779368842
Ni 7.01028279725139 8.490844068137045 8.79804691948068
Ni 8.495773788841104 7.583087975139865 6.904106726364021
Ni 6.375388278628993 6.433042186367886 7.485009055666598
Ni 6.417623030277269 8.551055209319658 6.580275741629524
Ni 7.074367558027017 6.758514268485308 5.323985586216519
