7
Energy = -23.97999894 eV
Ni 8.398159157134652 10.57577782312139 10.722906088314234
Ni 11.177522920083947 9.07799763658984 8.43933605142996
Ni 9.704866522448368 8.719090989346208 10.213151320466197
Ni 7.46913883419107 8.69246505366064 9.552613711585893
Ni 10.712763272984374 10.81053480487524 10.038666656293534
Ni 9.191458989599358 7.773213676453101 8.14433466933354
Ni 9.071571916853273 10.06462515494725 8.560385682387617
