7
Energy = -23.72110987 eV
Ni 6.6252090263165995 7.12505388270569 7.58742934353761
Ni 8.124259563436249 7.911764385902059 9.327505701899915
Ni 8.835834679090485 7.422781336642993 7.220787981321338
Ni 9.637552711267128 9.392960231662846 8.477676868436372
Ni 10.397630338401397 7.29161994963977 8.855848697999624
Ni 7.923647970844301 10.319434093774241 9.628540732707668
Ni 7.299337762539205 9.285539267940862 7.714270925712877
