7
Energy = -23.72623543 eV
Ni 8.234696590413419 9.055124569018675 6.9246737327946635
Ni 6.127095166776535 9.398084554905035 7.672114059555098
Ni 8.878834582485954 7.179311851673487 5.83025189040255
Ni 7.0341716403603005 7.1768933761179134 7.390668231723474
Ni 7.507431950885753 8.466755324939697 9.205728332556468
Ni 9.200409788431639 7.072143843364165 8.065043155439371
Ni 7.69647933721508 6.236065259825899 9.53700930732954
