7
Energy = -23.9802105 eV
Ni 7.987613038766423 8.634546825104895 8.59940909884722
Ni 8.56522128873604 6.443868559041517 9.143256547775744
Ni 6.104092330861049 8.774195213471705 7.236342076656843
Ni 7.638248558700111 7.030802047658743 7.089081656807042
Ni 8.314974263119405 9.130741424422428 6.34795605675086
Ni 6.264028707355448 7.108667593631508 8.968298879800221
Ni 9.828723359546968 7.691426974079579 7.53475771091556
