8
Energy = -27.51306626 eV
Ni 6.7456226868853095 9.537761119807644 9.01797385335215
Ni 7.385726482395342 7.8023501283138 7.808574241263985
Ni 8.222799196620068 9.452446452391124 6.566888652308918
Ni 9.863523481030027 8.207166962828584 7.6669155349335005
Ni 8.76183168593694 6.209838637362627 7.093617783370787
Ni 7.788911836093285 5.990953526075036 9.289095580279076
Ni 8.916686914090771 10.176509789654544 8.64971411699368
Ni 8.503595800974178 8.08853445903863 9.743338905588255
