8
Energy = -28.35961646 eV
Ni 9.1297719860536 9.54089283467147 8.049288661272325
Ni 6.982258374360411 8.825106893082678 7.381142596950771
Ni 7.254226800020562 6.576795632742427 6.874253708539604
Ni 7.5177179635965565 5.900377193151075 9.109299402300183
Ni 5.740208990729354 7.229383195095766 8.534908778691316
Ni 7.716275765154301 8.27139107134022 9.449562158118871
Ni 8.770244359940806 8.243991975184173 6.065460017189464
Ni 9.15340233946941 7.191945323058772 8.070805108458531
