8
Energy = -27.99191277 eV
Ni 9.305571801074308 7.127893442940437 7.3541919749271685
Ni 10.248259327846528 9.113158945901358 6.673458820179202
Ni 5.823960482992027 6.7921253283568195 9.345060758296711
Ni 9.070091315642557 9.057384821318278 8.649936235795483
Ni 6.977384995437715 6.858819751222653 7.3388631326369955
Ni 8.11161623949701 7.051288284481944 9.36405878222386
Ni 6.741939211170987 8.788352446789347 8.624233071316059
Ni 7.946656292619252 8.865533452199799 6.611714239700207
