8
Energy = -28.28259799 eV
Ni 6.706507042254933 7.8279747247003995 8.153273328571817
Ni 5.397150045303327 8.993854566794958 6.623293487597767
Ni 8.392555108642545 6.434487974818131 7.339457907920674
Ni 8.568729649744348 6.122652136794535 5.078533428718739
Ni 6.553503771269881 5.486390378526231 8.368261730585097
Ni 6.704150334349543 5.247054655295675 6.073683126885473
Ni 5.111140024401752 6.705670659792096 6.955927823254094
Ni 6.979294702147987 7.594945581391897 5.820599844580789
