8
Energy = -27.86427298 eV
Ni 9.684701521739335 8.819879070897946 7.192290330164977
Ni 6.732642938260662 7.597465389102052 7.192290330164977
Ni 8.819879070897946 6.732642938260662 7.192290330164977
Ni 7.597465389102052 9.684701521739335 7.192290330164977
Ni 9.684701521739335 7.597465389102052 9.225054129835026
Ni 6.732642938260662 8.819879070897946 9.225054129835026
Ni 7.597465389102052 6.732642938260662 9.225054129835026
Ni 8.819879070897946 9.684701521739335 9.225054129835026
