8
Energy = -28.35301581 eV
Ni 8.10794021080018 6.29942263065565 7.474468706707742
Ni 6.878152145823342 9.638122522645764 6.966057553922577
Ni 9.74696047769959 7.358823807955001 8.725936496084524
Ni 6.942778186827971 7.545011891436482 5.848820969755063
Ni 7.81531554116359 6.706893618811097 9.778409779025372
Ni 8.064630079762242 8.952007007963346 8.886616000597236
Ni 8.853659364088397 8.423230118939598 6.796981209905562
Ni 6.402362065474253 7.635407195554911 8.135190534013494
