8
Energy = -28.35316444 eV
Ni 9.054671136454882 8.993416694180013 6.5008341361357225
Ni 10.02635924979774 8.40265977228122 8.556242240179735
Ni 8.196542995014513 7.262007951437395 7.867147821578699
Ni 9.362286455754518 10.637317125967842 8.19936726408083
Ni 8.997485848751959 6.976676008323394 10.105030237174907
Ni 6.894659388274362 7.827590469304116 9.700888412812947
Ni 7.39444015115156 9.445135350569014 8.046641132664837
Ni 8.61005279372254 9.352979258056257 10.037915238509825
