9
Energy = -32.50525688 eV
Ni 7.951570828886218 8.87689584412498 9.661289121963586
Ni 8.715730126478757 10.881172893113122 10.691056084428707
Ni 10.426792088709924 9.424313586647004 10.063011582296276
Ni 9.555365365473191 7.261683970795157 10.091327143231855
Ni 8.92813698609906 10.590768335549566 8.340768596264745
Ni 9.632697642159474 8.315340629394344 8.036309296793428
Ni 11.143304506403274 10.06965746090116 7.947958096805229
Ni 8.975994260499423 8.80917100876657 11.745557901265256
Ni 10.598596002222296 11.674346267840589 9.555926133786807
