9
Energy = -32.73035 eV
Ni 8.238872516134215 10.075802966070441 8.07893500622701
Ni 9.470977154923746 9.079692558653736 6.367639329231539
Ni 9.387219266382782 6.78874268992116 9.868234704321925
Ni 10.064760719418798 8.729772205465657 8.660394366362647
Ni 9.124652267991438 7.061325114867598 7.545273880233406
Ni 8.141655206955171 8.781830750275146 10.020480744823661
Ni 7.2179127691854434 7.086175612960296 8.926231155730154
Ni 7.276034006171405 8.376796817480168 6.976385163713564
Ni 6.144374811242831 9.219803430649216 8.836096521040067
