9
Energy = -32.23553835 eV
Ni 9.032582255 10.231193027764862 7.003080614680984
Ni 9.032582255 7.833971482235135 7.003080614680984
Ni 9.032582255 7.859058903962193 9.387411035926828
Ni 9.032582255 10.206105606037804 9.387411035926828
Ni 7.442150818114005 9.032582255 8.16463395654822
Ni 10.623013691885992 9.032582255 8.16463395654822
Ni 9.032582255 9.032582255 11.415045231572128
Ni 11.04577114110374 9.032582255 10.383971923493723
Ni 7.019393368896259 9.032582255 10.383971923493723
