9
Energy = -32.51092125 eV
Ni 10.338472897334702 8.635795880379531 9.533539562364313
Ni 9.580479315158499 6.530602347743236 8.957777772793438
Ni 8.70220064905991 9.940679674811868 10.513173276002506
Ni 7.832242910271846 6.697763688186991 7.410141506390308
Ni 7.95484855996626 8.156455050362855 9.209820834288678
Ni 6.902548572204176 10.19884862360705 9.029871824381043
Ni 9.656309001368797 8.134730080774627 7.295927717117212
Ni 9.091487164168779 10.2424406403517 8.252471188291564
Ni 7.444523725687225 8.991151259448417 7.089761254076418
