9
Energy = -32.16388119 eV
Ni 8.62095004671681 7.876860230132661 7.156545537105137
Ni 10.689661069219701 8.628489008143537 6.473086128114802
Ni 10.242285806678458 8.502367683052695 8.751479368895689
Ni 7.131739411673103 9.006567229895047 10.921504930938141
Ni 9.148320952063733 10.083066330525204 7.396362804530495
Ni 7.177865734201245 9.253547004507777 8.541785020036766
Ni 8.836105976333926 10.20919905531816 9.740044920546588
Ni 9.415773240109509 8.442443195152523 11.021570996649704
Ni 8.171828813861817 7.43199123784308 9.432151344040479
