9
Energy = -32.16121032 eV
Ni 13.585790213146558 9.781192889350713 11.152538857264096
Ni 12.128800256173998 11.430919656769355 11.82685454943657
Ni 12.276865855642807 10.854943739427139 9.603468419193172
Ni 10.494676159701536 12.343401334669482 10.287416666954536
Ni 9.985402260578052 10.420104569100637 9.208572722884268
Ni 11.274594874652959 9.411923146336484 11.10303430356231
Ni 9.791471291324202 11.176902495094279 12.092033866740724
Ni 8.904295393917632 9.440500009511473 10.940357914280863
Ni 8.230401841583612 11.597270134207147 10.329894114990577
