24
Energy = -48.84846127 eV
Ag 11.236664715518659 11.900343470927488 6.840696804541275
Ag 11.768890499902119 9.29941170206262 8.03238337877424
Ag 9.20400591347659 7.938043044524473 8.019109775495135
Ag 8.262290974756503 12.536569815983045 7.090350449995548
Ag 11.743580176364123 6.840919957758567 9.41237426811887
Ag 10.238397710306636 13.553793688454174 9.033458039148597
Ag 12.355743315972507 11.645205121540773 9.513043047135781
Ag 9.60703683221886 10.823888664688498 8.820964781122775
Ag 12.911898275103258 9.208460767840613 10.791371718286571
Ag 7.037809560623212 10.150661404185769 8.024689120439836
Ag 9.250541374426799 10.003164323883311 6.180493159697934
Ag 12.179202400783625 13.967020357209526 11.033675953201453
Ag 7.700148966628826 12.393952403412007 9.992564800744665
Ag 9.129036464034384 6.164581237854768 10.184581634428548
Ag 5.738399023234902 10.515469848223907 10.612688255593346
Ag 10.163562274392481 8.807493024191535 10.549914349320202
Ag 12.910507255037432 11.562729287589722 12.352561773985931
Ag 7.356245146749565 8.311551516807107 10.142832679057342
Ag 11.685187912273046 7.197433140997042 12.409315625714815
Ag 10.254244743679322 12.024046239134524 11.424648582173699
Ag 8.138108650125353 10.381604899332753 11.988696961542031
Ag 13.389267891824938 9.102214765021522 13.601289907834621
Ag 8.819804300045256 7.676567734550955 12.638024168808979
Ag 10.76664527897396 9.792500754450657 13.11279850684141
