54
Energy = -118.24663264 eV
Ag 8.414531399541445 10.868054914146617 13.686598261170218
Ag 10.718985099255022 9.332618699519136 13.209908079489251
Ag 6.303078148510208 12.638350032665107 14.247336259727025
Ag 11.56983595797662 8.436543923836886 10.405710694845837
Ag 12.502318180528453 7.076860742917903 12.65576632715588
Ag 8.138816393895599 11.854979082066095 16.337748785487268
Ag 9.64190902097645 9.376401733352296 15.90179276937623
Ag 9.436231958295808 10.546663676272019 10.972380746498352
Ag 8.269638024019377 12.013024281574099 8.868023914074644
Ag 10.48453600918483 11.359671890898593 17.880645113615977
Ag 11.772611867039624 7.637198859558411 15.23101688479754
Ag 7.285723249986703 12.264001052067146 11.594978940982735
Ag 6.984658681158326 14.95053394754317 12.684564535728265
Ag 10.335037198486441 12.86517967291953 12.431656999978973
Ag 12.224112054401898 10.954845936012946 11.340631886159048
Ag 14.358360217326771 8.440727431477793 11.148244804957901
Ag 9.269099605066721 14.726028512544792 7.866125385032073
Ag 8.70741115875658 13.984389207671803 14.560085650415516
Ag 12.442153357225552 9.954138469667818 16.582276516237222
Ag 10.832609710511996 10.304912679633457 8.493542685406451
Ag 10.097629118727198 13.93872607558471 17.00095299256154
Ag 15.160659396427873 7.313289317946365 13.632462156342838
Ag 13.609702099213669 9.939241257573595 8.962376708475178
Ag 10.757636827801345 11.768194556003182 15.042991479481916
Ag 8.544974975034126 14.4751130053773 10.503296484284034
Ag 10.205663079991497 12.381793002713692 6.787473759145847
Ag 13.466696566405792 9.55829791023331 13.883729378640183
Ag 9.913137241284119 15.849363784689588 12.613841785352461
Ag 12.78814030051603 12.966001077990022 16.65256303584516
Ag 11.430124319677471 14.508742401464728 14.659708686363494
Ag 14.78232387798262 11.164756101072308 15.924440011375872
Ag 10.824603253368148 12.93677866826799 9.612504914261235
Ag 16.30277413959207 9.860176300628352 14.045509070592448
Ag 12.889956225486126 11.916802164512122 7.150511814190181
Ag 17.105269997759493 8.437319213990625 11.885940028796467
Ag 13.152264088077766 12.385001260898376 13.632464621910971
Ag 14.95454192998598 11.23666867243221 11.783240619091819
Ag 16.357598899552936 9.88526682754698 9.66027308907359
Ag 13.624297035387531 12.910127890747196 9.82998748482449
Ag 15.575030959690805 11.345549897459934 7.407351258023798
Ag 12.503894832656322 14.758826667267842 12.021816531878185
Ag 12.161355634835848 17.566995845609824 11.41928353496217
Ag 10.863218927662523 15.868807034282016 9.810269513555024
Ag 12.369763482704018 16.991697824240838 14.097783656001836
Ag 15.530824907916362 13.706987550671247 16.651165499998964
Ag 16.177044758766876 12.704867212564778 14.05658505169942
Ag 17.645121542289658 11.33768725016658 11.899185264619579
Ag 12.144002798668005 14.559735408282053 7.669899015409127
Ag 13.84630723210535 15.807533036094753 9.735111042673584
Ag 16.481901488451324 12.73147756692898 9.677125868293837
Ag 14.235167524720232 14.861572085089717 14.486392280688607
Ag 14.923247509574306 14.078192565804121 7.692630527446016
Ag 15.370790135064627 14.129268658693686 11.774076762078654
Ag 14.654870393756179 16.728032140944038 12.398026540994293
