17
Energy = -32.92786229 eV
Ag 13.594341605936606 10.825113176058629 10.53394637516217
Ag 12.330306655481017 9.835050698698096 8.131448124523281
Ag 12.038393554210996 8.486183166561164 10.547872920097797
Ag 13.356045164213917 9.227629167943421 12.863881638879466
Ag 10.437062616728092 7.744762122673258 8.521361014897007
Ag 9.51110546382144 10.204223946855551 7.752143493274591
Ag 11.32664853448009 10.99229223598933 12.198790332017547
Ag 11.250258288513598 12.117061399271124 6.859224432697934
Ag 11.256555047602411 11.987254341525604 9.633677129488001
Ag 7.674253394253863 8.212484224439732 8.324722111702068
Ag 10.709125549034628 8.266573680109108 12.926883899307848
Ag 8.898943228062969 12.84331423685681 8.460591960306031
Ag 8.932654753932843 10.34293578397619 13.408217613140062
Ag 8.881217326805265 11.926501747221327 11.122028246242044
Ag 9.064920083193075 8.97647336532947 10.71354271560246
Ag 6.705875970379625 10.120649477806566 11.825223013463022
Ag 7.1802574816862 10.782349247282914 9.22972893809854
