12
Energy = -21.09615289 eV
Ag 8.18763893921221 11.74500667172477 11.230062725537623
Ag 7.860380818366834 9.013812243930918 10.581307941301308
Ag 6.081338676456041 11.019764839168143 9.673123756599106
Ag 10.691178160829788 8.764001435979317 9.834514693299798
Ag 10.747295434601554 11.646208595494707 10.191540185368083
Ag 9.387234957951161 6.8626545231725125 11.28973920996172
Ag 8.754287509926431 10.702430964179488 8.602134876022388
Ag 6.637747988758655 9.324748467566899 7.587304949987468
Ag 11.485197344549691 10.40591579370972 7.807954138856466
Ag 8.895936987314093 7.832270785061684 7.959583828508319
Ag 10.755038148983106 5.985304058912409 9.091381885183354
Ag 11.578325984327469 7.724914922712733 7.17713019691041
