10
Energy = -38.77305923 eV
S 8.775694871512053 8.600648712437266 11.766909510042344
S 8.528301491319288 8.438563736357061 9.881591016658575
S 11.060878810336874 7.822997906628955 7.380686024683084
S 9.398331519709055 10.346375435274975 8.846456573209935
S 10.185865951565676 12.162743529220965 11.586910481918132
S 7.946369069974392 6.96628569234188 6.47255286280046
S 8.679079126452415 11.753382621414982 10.028779105069663
S 9.500484429594893 7.7201450925610535 5.656531947253504
S 10.110476779165896 6.950762728724602 8.828436771701625
S 9.322407278290456 13.3602941866573 12.82477075225649
