10
Energy = -39.37849253 eV
S 10.963727254135115 8.770490350315603 10.423306643363238
S 6.41292669007204 7.354261745342902 7.020931212084195
S 8.947704559382727 5.651376964465689 8.492767470992874
S 10.261994247247097 10.45011102160264 11.063801897301435
S 6.18423173561448 10.668144669754406 7.097176679278048
S 7.598458722878286 7.062149849823292 8.806900237062173
S 5.369528535474761 9.975296588997601 8.688748873547723
S 10.824005756858305 6.721500106225404 7.8493700260558255
S 7.11615716202005 8.895080976133224 6.005397630789301
S 10.508208075893542 8.616346931519386 8.266637138149244
