10
Energy = -39.39769896 eV
S 8.922420460922034 12.608064694272045 8.665650082884161
S 11.060888166526743 9.184898327404284 8.930127657767166
S 6.773256053181048 10.718805465472574 10.400786138070302
S 10.089712538801143 8.079177183657649 10.230634645139839
S 7.032810007233253 12.27096987559704 8.933210814014123
S 5.938613011989945 9.178853111492565 9.354247913800373
S 12.60237350225723 7.731000490571776 8.048836185109746
S 8.542767188243399 6.982617888495526 9.208363730784228
S 12.324842661950056 6.046539545788541 8.906150759584584
S 7.442720548488741 8.324935235935508 8.167331311267027
