10
Energy = -39.20527072 eV
S 9.55152367434951 9.083991049960288 10.985434804457332
S 9.700611876460469 9.667122293513017 13.05588515547116
S 7.137608250401601 10.19195427716373 7.444895551191176
S 10.461101556624604 9.633189440582308 7.408091455845335
S 7.310726935100457 11.031304273850779 9.311176854720623
S 11.137543318860839 6.853108838569633 5.531629819074402
S 9.83902847580283 8.075845579237594 14.154901233121201
S 10.432749503192952 7.476757418507782 7.221220408192204
S 8.921100932052239 10.473653383900897 6.385335477079111
S 7.5694549184972635 9.39059690215021 10.564536861279057
