10
Energy = -39.32079313 eV
S 7.565417478563508 10.433697097583925 10.671342098478412
S 12.892025351204884 9.300660805622465 9.302317589449878
S 5.668339039680766 9.452702767692434 8.261358853114041
S 8.78501167074948 8.537619092246175 8.36029347491044
S 11.72101363612778 8.210678917631288 10.658740451040446
S 13.187394935848548 11.088937639398871 9.951416540558025
S 6.1228360565577065 11.150920129105877 9.355417559133
S 9.226487771935194 10.24634408428533 9.46173357453448
S 11.372247124661875 6.437584994442272 9.982268411052948
S 7.335545935570007 9.23044406471278 7.052195006603436
