10
Energy = -39.48333028 eV
S 6.357754105941269 10.620252160205299 8.771144997408664
S 9.019659599044255 11.592040200947961 9.483667258063846
S 8.498699440010403 6.936005360702341 7.2812486974652435
S 7.08611057590699 12.39749415929293 9.649842240263752
S 10.205053329686873 8.372784177938751 7.070378166522818
S 8.897672895901392 10.009675601574 10.700708672279303
S 11.442113967501218 7.636666589391079 8.4596113348224
S 6.849541365223163 9.277546735043531 10.166524532627312
S 9.20197591637315 5.780268191886619 8.751116756857565
S 11.219135944583133 5.569421867212918 8.165543356121555
