10
Energy = -38.85014099 eV
S 11.927016124425675 8.794572091056544 8.282349521657055
S 6.052692968608539 8.594126334212175 8.536444628060439
S 8.330580170907902 9.99558662827993 8.220534309165604
S 12.746356234995087 10.444607619846494 8.754815050406078
S 8.37006779980691 7.494453425351497 9.349085587363765
S 8.136998708299519 10.75135589858959 9.94555477206287
S 12.07944632420062 11.375184446614373 10.607034768613017
S 5.768774996346936 9.363635634364742 10.239621534902481
S 13.96651669276566 10.459757470568693 10.560480697501461
S 8.174592473782933 8.27976294525588 11.057121624407285
