10
Energy = -40.64775991 eV
S 8.341585307245113 6.359755620190699 4.939845392825651
S 6.57753182313632 5.755601165551739 5.855229464825298
S 9.854275551256384 6.350245542239658 6.330180131201624
S 5.2720264706787 7.348775746299155 5.647514241812589
S 5.9056060650653155 8.891923881129223 6.852441271763247
S 10.056816256795884 8.124654237128686 7.3971463187151105
S 5.132175555316936 8.74250087891076 8.75356852858038
S 9.679924688756968 7.59534057264564 9.378914539033069
S 8.095820364819598 8.58561482719568 10.226550909727132
S 6.3489270649761025 7.5102766767562175 9.883298349563361
