11
Energy = -44.05808778 eV
S 8.209296023331298 7.363733874227398 11.249647010798853
S 11.191455533355425 8.772708515997026 7.003103316398966
S 8.423318709520979 5.983884226914378 9.73579150199487
S 10.310172218404938 7.463505137070297 5.8998648695827685
S 8.96248298212298 9.191250135051908 10.652282242411022
S 10.756313250168484 10.63392392832987 6.729399690177211
S 7.411868178081705 10.377422387100882 9.986098472602801
S 6.8737362642356095 7.105870497848165 6.966520640825145
S 5.946212239508339 8.913134958006134 7.320053692135658
S 6.680682807868737 5.903319524737237 8.634735505764016
S 7.342985068104161 10.311105083187089 7.925659003315261
