11
Energy = -43.05435547 eV
S 8.604574123453903 8.23046649699782 9.993992349129242
S 10.484547064468591 8.023549736942892 11.567021200299527
S 6.466518280642722 6.013387379167911 6.896294349384067
S 6.378850929721611 8.096694468746726 7.04734373587416
S 10.466475891862173 8.766940634873828 7.959770030686001
S 8.284798122888565 10.09100732087385 10.146520286653825
S 9.954259442777236 10.58723043731953 8.08174871030752
S 8.247826680914814 10.693659859305177 6.326377202804834
S 10.683814826450368 9.852314676484358 12.04483729203037
S 6.60622467234341 5.179849397445472 8.648194347494174
S 8.098440766595628 8.806764589397496 5.901068985175947
