11
Energy = -43.08495128 eV
S 11.604362568228343 9.295670032167706 6.660497523499614
S 6.76478339951841 7.3675718236853145 10.914645826475743
S 7.955448684509517 9.266036742493052 11.346138729693177
S 7.974137300083125 9.011143290312262 6.855785363936486
S 6.5247657392472505 7.959354620914075 7.666586357924455
S 9.535577396100313 9.232994970239858 10.281722952579113
S 6.700968743067041 10.825929044887278 9.416666027564107
S 8.267806041201156 10.720189151431393 8.338051646076742
S 11.568829415307441 7.557371179640852 7.790069459372285
S 7.50877405327306 6.747103719553206 9.204828732607188
S 12.70609134501692 9.179845618827564 8.418935549578414
