11
Energy = -42.12651967 eV
S 12.17981302725489 6.382184993218725 11.439922321319276
S 11.546546484508037 9.31493489039832 9.721224539052294
S 10.612365631178154 7.367640353598494 10.680146175036501
S 10.068998792897505 7.968090651598977 12.50599800621917
S 11.574602586024128 9.109996798937797 7.812742555613056
S 7.645557129980825 8.366765762109546 7.577346783871981
S 7.7416798941094225 10.363360772887077 10.133725769613621
S 8.67405609455825 11.42184196034273 7.1997602785785375
S 7.57793478691914 11.997031248166795 8.864758160836223
S 7.464817372091185 9.996614372545881 6.30567935145938
S 6.532262162484687 8.939158237556072 9.227943297326771
