11
Energy = -41.99153353 eV
S 9.77620712049988 5.050700170161009 9.19243502726784
S 7.975162313402918 8.68616569765524 10.430713562302028
S 10.875930886287584 6.677555982485866 9.25481071732849
S 6.871501397199983 7.0710181403065455 9.358104287563169
S 10.100287507680955 7.8796916121891645 10.74775599692418
S 9.06303803360579 7.4460638366688165 6.8435134115035225
S 8.03344544324593 6.1472559417933565 7.809395123034408
S 7.810906785019082 10.345470345333677 9.497614896577097
S 5.546641697230825 10.156152626324118 6.690818156052931
S 8.43337927198325 11.581450227498754 5.992285058567739
S 7.178391988447595 10.153922257513786 5.667679944486932
