11
Energy = -42.87131243 eV
S 9.510223225087236 10.26851218029944 11.156794384998003
S 6.258020361070389 9.088990878609298 6.793727414486773
S 8.05136245085243 9.03905254642853 11.292164999192522
S 6.863120605690157 5.8235601116733795 6.963861372446041
S 7.668580385382206 7.51284597471829 6.466746167531016
S 12.221440739210355 8.871195922262942 6.653858231434154
S 9.10143015607794 7.17974009680488 9.878208641318297
S 10.649443533730585 9.277660016772016 7.691266836023246
S 6.952766717898418 10.342923162577039 8.277782726408697
S 6.302394975695636 9.696256341122787 10.08199144870542
S 10.764065269275179 8.126758546299204 9.624248490199399
