11
Energy = -43.45564459 eV
S 12.30268100484299 10.048980828671546 7.165611651674422
S 9.353243635585683 11.619341364497519 6.566721181000498
S 11.460164001237887 11.701776152801187 7.597445043023629
S 9.421258518778805 9.862447109542986 5.721378227656025
S 7.999832866347121 8.953781672610136 12.995157129610899
S 7.9347093184606825 10.066222104818976 9.892268405712057
S 9.254363633047657 8.814329175514757 8.873872272675316
S 8.47397498337308 8.410928145899497 7.0641262872422255
S 6.954465448917991 8.852950235772617 11.288682157169792
S 9.452335753046814 7.25445404438025 12.89073536557884
S 8.897696816797216 6.005220071877312 11.552087361285954
