11
Energy = -42.8363016 eV
S 7.230759200400275 10.262894424428072 7.758904084846776
S 4.94905636468771 7.304088376356826 9.680969569416664
S 8.208126581597021 7.584430768313679 9.95394586468293
S 4.603208304673223 6.927662850388754 7.8486800811489665
S 10.222836247624725 10.167995494723526 10.240371670341935
S 7.961419045172428 8.90078762838938 6.647248939326647
S 10.40138154452028 9.41691301753911 6.934850492892124
S 10.129981617465734 10.912368187222793 8.11372987772442
S 8.169185856491552 6.729528001689646 7.924218347445652
S 9.881987806756728 6.041548540541707 7.413155266869779
S 10.182384659973087 8.179524623611824 10.127696521257825
