11
Energy = -44.26557231 eV
S 11.67189132630489 9.153270030747631 8.552984858824287
S 10.355712501279987 10.629475850823074 9.831476365977087
S 9.859150297335553 7.463232302135765 6.227305148784575
S 10.822046711573647 9.26743368033536 6.771799465080354
S 8.875150846087323 11.122578677891541 8.743241313784091
S 7.83342685473561 7.725131218321471 6.010665534324566
S 9.501432361894654 9.299901676036438 11.575837354838376
S 6.77321361175879 7.516443259480305 10.65889868281678
S 7.5540959024039935 9.387506018696643 11.293198307417901
S 5.848575557105972 7.700695211363725 8.837644615086687
S 6.8097610738937755 6.578996429358866 7.391860627946147
