12
Energy = -46.20611642 eV
S 6.880666586765978 10.241622806757649 10.755747309708886
S 6.5983627319494484 11.534288160285513 9.351258517521742
S 10.698141666219788 10.365213559413023 9.241653411172335
S 8.270318252164772 8.652311703733735 10.182489101997371
S 6.230016701619539 9.096209681315825 6.571917836490349
S 10.10149363788583 11.829299636749472 8.147303096713848
S 8.736845354318481 6.8514691345219765 6.784749276462459
S 11.434720354033177 8.733942520934013 7.8603328469252745
S 6.825133646275277 7.654272117435716 7.696718053517578
S 8.398879526634868 7.490207272542424 11.707178826155792
S 11.467030596294826 7.050779518675434 8.859447629693037
S 9.682164853384249 5.790539416257827 8.12845917651941
