12
Energy = -47.55752224 eV
S 11.133528275831722 7.243312688878467 8.677674460572389
S 7.943149971768876 8.487048928804304 11.253138731822288
S 11.70621504089801 10.546107493656404 9.328404819571674
S 8.538879124665044 8.513164593884342 6.662945616092993
S 6.529060834491618 10.000043105809121 10.315902405908403
S 10.288996380932014 9.252505035315101 6.034873146123241
S 11.327487554275216 9.474253397071553 10.962224732394882
S 7.242666808632137 10.106288318291176 7.043961600743084
S 7.596012328463393 10.951171006115882 8.903312583700812
S 11.766064014868697 8.762382072500419 7.71343456417026
S 9.536867512205557 9.972026017363198 11.822012867477033
S 6.989629085656276 7.962026776898068 12.838490951606772
