12
Energy = -47.79047771 eV
S 9.776498525347861 9.803335726629044 9.566664658412535
S 6.394862657920316 10.048684792146656 9.178556620107742
S 8.286468728061719 5.365666519432253 11.224312557120957
S 6.995872208457894 10.040591897337235 5.916046009005765
S 8.9141070213048 9.663535220050447 5.25799850334416
S 7.062569971913081 6.849826009968836 11.041782746689265
S 10.884715938504206 7.792678731950513 7.223054343355944
S 9.42715419509143 7.719466645971014 5.746645960167683
S 9.093521498218825 4.688675659750812 9.595349832951964
S 8.061411436428434 9.987025963214474 10.542121000591816
S 10.036424983750345 7.702688696499186 9.064374592297737
S 6.917154040065013 11.242294528833307 7.6147031990047696
