12
Energy = -47.34104333 eV
S 11.276883422779568 7.380074844003266 9.866206808436194
S 6.655273051522339 7.514498720558388 6.9367313047841686
S 12.49227373999936 10.509404527419166 9.485343489441647
S 8.783081759441338 7.7261605895819825 6.828930224900753
S 9.457105842295885 8.269980752488864 10.524964416183966
S 6.4875405991097335 10.75264251840574 8.020937299698637
S 6.057821305300716 9.592945916483925 9.562235503141544
S 9.010576670210988 9.6702639807591 6.238116696216717
S 8.62120286660695 10.856739379739322 7.8611959003436045
S 6.150984925623458 7.468012902109805 8.846367241443852
S 9.368146585997062 8.438246776697392 12.451382354410537
S 12.798692692631613 8.793763303922027 10.316197901818567
