12
Energy = -48.15511547 eV
S 11.948772914677095 7.509808383671069 10.514269641914812
S 11.912270862808098 9.922362721373556 9.179609803879725
S 10.373341015854079 6.271944101933145 9.469401494183373
S 8.266256534257465 7.994781513815595 7.551072542361156
S 11.21584333553914 8.347306563206148 12.078903271408917
S 11.270946303334362 10.723827468087238 10.79770261496007
S 8.592644339077145 7.120577806254601 9.541382854197597
S 8.731883467483376 11.299495280162786 7.711536332647725
S 7.230463214513504 9.677856535396268 7.6715812557935985
S 9.0248834771668 10.713392640916888 10.942725810976064
S 8.360938150973892 12.556443811425149 10.816813455880162
S 7.926205044590506 12.8442578839883 8.591612121415974
