13
Energy = -51.55642048 eV
S 8.383209945166215 7.666639973759008 5.703102999678146
S 4.922791838148138 9.241926449551574 6.533315542452196
S 10.158921404237192 7.01910452673891 5.9973118996436705
S 9.740818941445049 9.873694826947418 7.772345176174837
S 7.161856036793132 5.919651762773926 7.025245995285362
S 11.106549422218649 8.537497871586782 7.526265877929119
S 5.699343627747349 10.740288089997275 7.470443704315237
S 8.641162619172814 4.861218136270323 7.560971853750612
S 8.846710304262892 9.433665227175839 9.902933035157469
S 6.656851426087246 6.969537429364419 9.304959266267764
S 5.735582696576058 10.679926661277449 9.392893171862687
S 8.11464123092312 6.12671330866063 10.202653984327078
S 9.72838531804078 7.826960546715076 10.504382303973992
