13
Energy = -52.93263781 eV
S 11.973553178262387 7.449321509888344 8.961693694216589
S 11.160043367918371 9.213668307228241 8.118727578723425
S 10.97395412160098 9.045722217814774 6.128884468157814
S 10.728147182821363 7.6135039102249795 12.02741395830426
S 10.471591303599963 6.744474951737294 10.156758826987158
S 10.108981049075103 9.57762710845444 11.92675585513562
S 8.123789748708628 9.749051531044126 12.486311596676897
S 9.130802191556157 8.051177038095787 5.60253994744896
S 7.758561014643202 11.456159275124273 8.281310785306818
S 6.882062807435665 9.469664962554152 10.859165010190221
S 6.5027399829020505 11.270210760403055 9.917492825545827
S 7.7356982235294325 8.432406502194446 6.998768070787599
S 6.926299531741219 10.359168100816557 6.7537757956584175
