13
Energy = -52.7806613 eV
S 10.212522727350278 6.312462280516264 8.230103456551472
S 8.344013132114798 7.1873445532497335 8.024170503844283
S 11.375314137693795 7.01115141043838 11.30060149097658
S 11.470701852966652 7.551626552348887 9.310504462980882
S 8.14870595475532 7.9400551599865095 6.097879268229181
S 9.728187973778475 7.973884314654798 12.179700097074063
S 8.588086752818981 9.947008683629363 5.911912401736723
S 10.228506671196097 9.777076867261844 12.890196996088648
S 9.20687974296347 10.147763403106545 9.7291174475313
S 10.266147313276628 11.092924920414303 11.118361088108179
S 6.854111832329782 11.002377612588933 6.364287445948446
S 7.195162637514419 10.824698533376369 9.680970506778383
S 7.2359737090031375 12.100376203151805 8.075784958531028
