13
Energy = -51.39021736 eV
S 7.4572770455505815 9.57118946277606 6.676304042439053
S 7.651635766463698 11.264637414624579 8.068921503785116
S 8.879305947682347 9.79527909136095 5.396305874879537
S 6.388069088281997 10.828245999146183 9.598640885656284
S 5.978824065683628 6.604331868711198 8.538309297031159
S 7.569219792977191 6.985156421042163 7.528115873914803
S 10.787913879584039 9.355095176674958 8.855237782922838
S 7.502825830159912 10.56885140743796 11.340551737978869
S 12.070191762123407 7.928003259387946 8.343717732435278
S 10.87235533026465 6.121813925194812 7.836810615386344
S 9.20440174605007 6.259603985078192 8.873293525010405
S 8.528516508254398 8.775776924245163 11.31555965220033
S 10.482139447937483 9.280164495327666 10.96743056069665
