13
Energy = -52.91551851 eV
S 11.048538080784624 7.831569376935939 6.117569623779771
S 11.584909881738799 6.792039179881811 7.840073650648219
S 9.03994619021754 7.460558079441519 5.775415368941954
S 12.273894138797697 8.219719697901258 9.155457059021483
S 7.781113280584293 8.301267733247837 7.14358653334559
S 10.003601893239273 8.468757737559375 11.644010964439309
S 8.230839697764791 7.4966745851957475 11.237990126285503
S 10.737977034729532 9.35814863924958 9.9229114749196
S 7.448654246048232 10.333885420995477 6.675245288942362
S 8.058246347838136 11.321455886838867 8.343709986279501
S 6.677631430198302 8.765826183709517 11.742931338576396
S 5.789414586424721 9.5076345386405 10.024197283511938
S 6.376304398424815 11.426257182726472 9.588811919558642
