13
Energy = -48.84054656 eV
S 9.498299682981743 12.876059928873966 11.895213359528203
S 11.146175 9.719412090318015 8.190441863794538
S 9.719326483125904 11.146175 7.552910742434323
S 12.794050317018245 9.416290071126024 11.895213359528203
S 11.146175 12.572937909681997 8.190441863794538
S 12.57302351687409 11.146175 7.552910742434323
S 11.146175 11.146175 14.163555649456908
S 12.794050317018245 12.876059928873966 11.895213359528203
S 11.146175 13.25291804077284 13.225266391455577
S 11.146175 9.039431959227162 13.225266391455577
S 9.498299682981743 9.416290071126024 11.895213359528203
S 8.659743508751744 11.146175 12.609313958530855
S 13.632606491248243 11.146175 12.609313958530855
