13
Energy = -51.91747576 eV
S 6.414244276400966 7.310967754794551 8.152288450640231
S 7.2791373242000335 5.968518927591717 9.518578762022674
S 7.567750769820548 7.059268416192729 6.4381409472275095
S 7.688546961077192 7.036537453221613 11.161278513372238
S 8.447243417682174 10.347440818629222 10.864062659919465
S 7.224109592550763 10.671907526992163 9.397596707277955
S 9.534356261542678 8.249917247248995 10.629896798388994
S 9.550118699677643 7.384226151074663 6.713619168907404
S 8.575102722218562 11.806281430364887 7.848433353337591
S 10.81502271247855 8.273802783860237 12.060648125562592
S 10.257598805127454 9.342904694470768 6.161725263881325
S 10.333423076424449 11.715447173850436 8.63122442079361
S 11.432653558988495 9.968872207184711 7.617422781875488
