13
Energy = -51.35672939 eV
S 11.09260939672332 10.170212080436446 10.835866125876263
S 11.427897552264112 10.545723641674975 12.874797111600163
S 10.734631009648288 13.694640586284004 13.056794042076529
S 11.820225431006971 14.500358638076005 8.66147309116676
S 12.412105721693932 12.302631155800972 13.02699033350646
S 11.147099912283302 15.12153837659054 14.337686068328512
S 12.102510557462171 16.767528589145694 13.088072626816544
S 12.881886676547499 15.838252839544797 11.539214973626349
S 11.258593595731215 15.745136972951691 10.019402915343498
S 12.600726800519709 8.935398653887686 10.172666736765292
S 11.97193408584974 6.992237208033709 10.317608819982626
S 12.671510381498752 6.2278518152623485 12.20014108486159
S 11.709265272058323 6.989484942311458 13.700281570049594
