13
Energy = -51.00391421 eV
S 11.544471723695754 11.683431509452504 7.470793537694028
S 10.74574817491525 12.710068354304592 8.912019051916657
S 10.335111697784104 9.78579747905962 7.2857986407767275
S 12.883575398940492 10.37612137467129 10.099141741171831
S 8.480103444248464 10.249898681736724 7.725756410637279
S 8.244838981967092 10.14586873114041 9.98263992710015
S 11.75269645565597 11.739709670854172 10.810215244489097
S 6.433141338492362 9.610684336447786 10.303449241738031
S 8.271865403076024 6.234782717390744 6.913545431634653
S 6.770530111882553 6.49268503544353 8.116419289214141
S 9.391779504525285 7.960600311434047 10.783301790977918
S 7.703027069946939 7.143962369961614 11.2904217248353
S 7.136948313330965 5.567114114682695 9.96653977266031
