13
Energy = -50.58642764 eV
S 9.949609127323285 11.621107733169525 10.124968749602951
S 9.818378062899155 6.344443603739859 10.249978481965853
S 8.397158008555147 9.06267203016935 11.63556444346755
S 8.623711477429278 10.927178081680605 7.00984089226974
S 11.842530064736682 9.811844371605464 7.646960643315518
S 10.528334142520901 11.20722961539276 7.821404483528224
S 10.284624682890449 8.88005888694423 11.720532202060683
S 10.326630007250667 6.748603535214699 8.019497221955007
S 8.589614144760992 6.957000227449934 7.224277875162898
S 8.114544750075474 11.081768674495699 10.35335934571105
S 7.293035237488799 9.11581084573162 7.07579967174824
S 7.959174498894214 6.769308015831597 10.352465377645494
S 5.937194393545573 9.137384656155522 8.429760889147222
