13
Energy = -50.44486258 eV
S 12.615903195054203 9.459239153313877 12.299293622053105
S 11.077637831577398 6.824979743380966 9.519944767833906
S 13.517889174677352 11.139474226598601 11.77750746796154
S 13.673498148347381 11.13844779033907 9.638957079878843
S 10.40756083170376 9.802263590539102 12.10504974424443
S 10.162876560021777 11.648325108064427 11.447181917320755
S 12.249356095331335 12.497225909456729 9.075890499798398
S 11.660753939299424 7.981890419970813 8.134039879097585
S 10.417851340497348 11.601532146462107 9.321836266044116
S 7.306483433279727 7.8898629369427296 9.620288451671861
S 6.203941150289436 11.098426003635176 10.246314871068774
S 7.005046037851355 11.758793491270108 8.626425410427538
S 5.704561457428699 8.88089559939362 10.01279289129717
