14
Energy = -55.56140992 eV
S 11.897364583944913 8.674903177072476 14.347716237174808
S 10.016164262764773 10.891381969322774 12.553979017754074
S 9.8178656587651 8.544621569842533 13.088681120271636
S 13.111986029701772 8.558041195548064 12.796263245277917
S 11.327798421818855 10.6796434291251 11.08787026033971
S 10.319888853181236 7.675412060496649 11.482307390264337
S 13.23683387835552 10.49134420354689 11.951459875281417
S 7.911040883275138 11.684846504620083 9.067698844114398
S 10.025334907660577 11.566740189464628 7.787313208939573
S 9.879286899205576 9.102408347511858 8.020691382402749
S 6.761540002864787 11.352532826438708 7.506239065642709
S 8.674105983332288 8.873776544958812 6.488581393888753
S 9.404417525840868 11.799729095580023 6.0112548400675445
S 6.698169670412589 9.263190666718433 7.1523994280524
