14
Energy = -52.2737291 eV
S 14.237661963007929 9.95429284087543 8.919520258220901
S 14.759754518647613 10.32590327110295 10.714944497185439
S 11.317956175815718 10.82951444886535 12.543763620933149
S 11.761757681473718 8.769470928158722 12.666396433483303
S 10.936826679771025 8.196574282662048 9.712901690976972
S 10.197805788157474 10.073811587438188 9.236335544998589
S 9.784975120668452 11.350498476409232 11.051106072719636
S 7.804688310310195 13.304454682915347 6.82463431119541
S 9.615516079389089 7.124533201604369 10.713182242209292
S 10.17233024874212 7.650470174176788 12.909124612905504
S 7.428618206298918 8.899085910893794 6.887941698929881
S 7.405337639487915 12.337884472773196 8.416284585663073
S 8.026680880554581 10.990093432937085 11.735601920015169
S 5.591271411306419 9.168802802188045 6.47263605171378
