14
Energy = -54.58533589 eV
S 11.904542240720854 14.321164162465717 6.748320087421296
S 12.506780966303976 11.683889397282863 8.843044583693656
S 11.550176753234364 12.620431566858484 10.219795914710549
S 11.732910584926403 12.408536903015738 6.811451142377391
S 11.266174200510726 7.248226560991948 11.745830847426019
S 10.106676160396788 8.911753917152454 12.429586635963629
S 8.531458857117352 10.924071408012068 7.427399591563111
S 7.3096790178605735 11.739255581874076 10.394941543125107
S 9.432206806836929 6.442087318689546 8.9962481956369
S 11.330008619665163 7.352674762043976 9.771430290011306
S 7.1984819738912185 11.843849769584276 8.473841951945012
S 8.343810074994567 8.037769294957164 12.999260127478106
S 8.362203461880547 5.873069633202642 10.557279817675871
S 7.307180021405144 7.583911235442604 11.290217048013627
