14
Energy = -55.16184341 eV
S 9.851993770327422 5.4325264947085765 9.481213658190851
S 12.653694009462827 7.193285048113117 9.88769346268989
S 9.157562659670626 6.683104802058557 11.021982815152397
S 10.101617483217247 6.4563053515786075 7.7947590445776225
S 12.059048842344064 7.553412526489801 8.105627850360925
S 8.43059645696167 9.485927793784498 7.217773663316501
S 7.129156210674202 6.988489494609263 10.75921682780016
S 9.90634775865297 10.895671669760686 11.230099929951814
S 8.223438520605454 11.875292100118816 7.197350855568409
S 10.207704396263335 12.356400946962987 8.258253071393685
S 6.711561370514314 9.00607794921429 8.043762024200571
S 6.867740216463056 8.93112524927454 10.163267136840481
S 6.713703982589571 12.215569417276402 8.306570185630893
S 9.63664587970189 12.537552696853654 10.211191373989415
