14
Energy = -55.11270209 eV
S 7.974773290977655 7.237577081620138 12.264506923719352
S 8.949848773462225 6.74354815442346 10.295878220349985
S 6.267341011039805 8.036398976589604 11.595153873120553
S 5.799509446941809 6.759131616469872 9.996921186841547
S 12.199369817447922 9.459828840152921 10.774973737371935
S 9.22361952291059 10.81576463205634 10.614114299626959
S 11.044155569643346 11.103427447214795 11.514416080293277
S 13.462522548303536 10.18596602901959 9.440279936342819
S 7.561958716961299 7.430256062379012 9.044749057205843
S 10.880006679323673 14.807859737547101 9.761428271985046
S 10.510792340552932 9.716084738959053 7.814357931974755
S 9.417060920077509 11.35620438269268 8.6469876614195
S 12.649023317137203 14.338982202586315 9.249650976167096
S 12.353555384789932 10.346307867069914 7.494085472900015
