14
Energy = -56.48478994 eV
S 11.89670849502973 7.949778995523087 7.537489050252784
S 8.395749667057121 9.184745867167853 12.122132490844013
S 8.060253608744322 11.388270786384929 11.994153363273025
S 7.5220172153772635 8.104098882672915 9.121589276880691
S 8.082046274617985 11.679031756582889 9.542426026297512
S 9.7289447883144 12.735976919018407 9.435666287447884
S 8.10653661933784 6.20238299672069 8.867016129249507
S 10.827627120726428 9.453611062407427 6.657945137354842
S 11.474144997438948 11.533096414510744 9.174616668174696
S 11.069341589307461 7.763952146742787 9.47706925878245
S 9.71186045446424 12.213463366926414 12.489023106372748
S 6.862147503881963 8.350573895745434 11.126923052179752
S 10.098607047103192 6.019544284506905 9.683965154513261
S 11.786254994775858 11.236910237006214 7.179292144916166
