14
Energy = -55.25411914 eV
S 4.785826909073375 7.594828892572053 12.936162171728823
S 5.50496945746526 9.348145530170756 13.100944357917772
S 8.127787968760952 7.495100473785438 10.763382140231135
S 7.295536880128213 7.410991949610986 8.76825088086369
S 12.326559044541908 9.192615227585458 8.165682419728538
S 8.571193781286446 8.344391585237327 7.521624471228023
S 10.103468356299075 7.259755992602693 10.549423804038797
S 8.082387911638227 10.399773517113536 7.132022320755225
S 10.44991543792863 9.431472219997598 10.254641122634867
S 13.393351501760879 10.404284553352644 9.163973565595654
S 9.185652907884934 11.70773055649791 8.190276173249423
S 11.107252412191054 11.79533958161441 7.098707579525591
S 11.804187440304462 10.270011554885508 11.319003868752521
S 12.451308814077489 12.531355208134663 8.283343422454747
