15
Energy = -60.7651225 eV
S 9.561484919011622 10.901381189562615 10.809606224205664
S 6.1716490477834665 10.988145646285641 10.592018758772953
S 7.178120339077133 6.463052959521214 9.123571399582534
S 7.827903022019366 12.069256491157134 11.032340098542214
S 7.090193263896085 7.810622933824602 7.594503733711379
S 5.443403930722118 9.047907475607092 7.997767285453984
S 11.401528440780464 9.917986337816476 6.628949522450246
S 11.451930791867527 5.482218283238393 8.852995403218316
S 8.788460697870473 7.030798344973539 10.396167444257564
S 10.048827827477249 5.47871067091097 10.512543404334169
S 10.605114103248413 11.84760193234245 9.312427193213217
S 10.953809426019214 7.973771452589964 6.868413468621876
S 12.151113985930856 7.3250618128428755 8.576407397875327
S 5.948064563409248 10.957567725795478 8.481188407073663
S 9.961062107836465 11.193061122118507 7.460374083624348
