15
Energy = -57.77421334 eV
S 8.53832443717293 12.67170896111357 7.000934825929206
S 8.11470168868968 10.912953171112893 7.890641351064592
S 6.806972775238542 5.010692429943112 10.738403147346775
S 9.12077413319368 8.242130952906397 10.082746447157575
S 10.295188258884876 12.004462401045984 12.758755196066327
S 9.151235695096704 9.008340646954077 12.014409465734841
S 9.5607635301401 4.308226925933673 9.0322283736856
S 11.3294862556133 10.955821085362771 6.521346372679667
S 8.651898208637979 11.027949126463437 12.062585459844767
S 13.035929330990916 11.404651805565356 10.893729850573317
S 11.504273122274734 12.575315238279982 11.060822534793164
S 8.731420781065259 4.910756304545613 10.665405903188109
S 10.810323572429763 8.720620336248269 9.067131557397122
S 9.63739115667154 13.865002788974822 8.094395991572842
S 10.052106451326033 9.695911871801131 7.167486781478075
