15
Energy = -61.18906178 eV
S 9.020739647687385 8.1450151354149 4.756717530004929
S 6.1990943589918235 6.682560455161547 5.5047010513192856
S 8.818028402452937 4.733064414611936 5.271684559091178
S 10.532331988857498 7.616567764840664 5.921672299449696
S 7.290124980536638 8.345488450993837 5.995892533674141
S 7.0737999950032915 5.090434985231443 6.4551612021647955
S 10.376931919343233 5.408310006952485 6.281532902360297
S 8.42687194746322 10.833611097754071 8.560950205554889
S 5.211214916810462 9.820880198643096 8.842194365052613
S 6.585433658660808 11.268165175936794 9.382822618714364
S 9.421405111890047 7.790954697350803 9.634363178133938
S 9.576959392567899 9.824547144086207 9.950522957677835
S 6.219247498105273 6.805826296571147 9.951067517674876
S 5.036542650089936 8.443163121518587 10.370103723690898
S 8.025095812777671 7.005233336170594 10.934435636674372
