15
Energy = -56.82439254 eV
S 11.827823014585885 10.916168897920416 9.861573690616826
S 9.925883031577746 10.912624462793408 10.770200493064712
S 13.262363145697872 10.910255490994594 11.169311374721735
S 9.153402784893016 12.89305747016345 10.580278515412388
S 17.30200817271464 9.668887554815486 10.724857735165147
S 8.888972488351465 13.715169823713902 12.3174245362106
S -0.11536342600317535 9.043537487414335 11.113755295715558
S 9.219601189004855 16.516256593578156 14.768569118556066
S 18.45788308640778 10.677550290845351 12.129248397476351
S 10.389908505409801 16.70440920299916 16.289618293087784
S 16.14192269119301 13.223994607931964 14.932960923545771
S 12.300689494744017 17.426902720886563 15.564490487005619
S 15.717440926808012 15.047080613359226 15.393726363672968
S 13.591179235654563 16.934081809754026 17.07102731732848
S 14.141467595326745 14.977695610340268 16.880630095929902
