15
Energy = -61.14189767 eV
S 8.267061900887951 5.45227520413747 5.16526787551179
S 9.25094219135109 7.274121036450735 4.92517172331925
S 8.611843056501572 11.025249518009884 8.502016134845862
S 6.643800437780235 5.719696574894405 6.404493241671
S 11.062354895854247 7.049245200870619 5.872603797268766
S 10.43384975274939 10.881274373882476 7.552113427028899
S 7.523807380497926 7.738054370629945 8.826816070501218
S 10.819231495430525 7.49930604953259 7.884983001223709
S 7.276822506977308 5.730284215197039 8.380561053513176
S 8.796196720194803 12.04432646943959 10.302649039969022
S 11.612397125670274 9.355293284637177 8.304217517517452
S 8.734133511110265 10.696404073737773 11.855133643750694
S 5.77297969695764 8.406893918810448 9.722902570086177
S 6.19983329981551 8.461838072450345 11.750199409118876
S 6.71558767025556 10.386579279353972 12.27171313670792
