15
Energy = -59.13228544 eV
S 10.044257251956184 11.265300278868654 6.015302705618516
S 10.417035399162481 8.999260415826736 6.250580220614016
S 9.05706100713655 8.296499420384672 7.406153885271572
S 9.55401230750743 12.141071222879697 9.157379952948947
S 11.99813133985699 9.192359676756702 8.809364061058021
S 8.585834672392203 11.689364560273706 7.249410621628559
S 10.46458276805764 8.301269161087372 9.500383927474534
S 8.438791528653237 9.242555205762828 10.874187285106679
S 8.277515353794852 11.504218587902075 10.533512914071096
S 13.575394974830235 11.224125533256478 12.568286163674884
S 12.174344905886851 12.950862716961346 12.890946251498308
S 12.469012335089726 9.742858989307464 13.331904720577823
S 8.746681330659834 8.90402586042961 12.737302878635413
S 10.646135030230587 11.984480634781617 13.748792992613085
S 11.663296219261758 10.673834159997105 15.038577843685244
