15
Energy = -58.46251231 eV
S 10.663230702484565 9.668980746603857 5.44194089384629
S 8.810140241312977 10.398551320119374 6.383645498573744
S 10.681477265513738 7.843121381115096 6.695249013622843
S 8.818089828747732 8.547413700994044 7.6181218030611655
S 9.098255562595625 11.982389755398165 7.412384331331617
S 12.137756628181027 7.816124955824598 7.938372473003755
S 8.793512240318025 9.453406324000566 11.924392983685848
S 10.826329701606074 9.208507084113078 11.927068363711031
S 12.392471228512598 12.252678624585268 11.684588817076701
S 10.921600557092988 13.39576211915556 12.135403319300588
S 11.759402937390885 10.424661562732405 10.59004713147044
S 12.704578137000373 11.21901820088355 14.0401577733628
S 8.371645679011145 11.151053641121603 13.124750063074416
S 9.350881198021911 10.958764761235763 14.860086449366825
S 11.187282607531001 12.196220337437607 14.740445600832391
