15
Energy = -57.40956362 eV
S 14.541291926430882 13.939793366376302 12.53789202360049
S 15.710090157439994 15.429322887713802 11.490467707665395
S 12.86526187486815 14.770351502290376 13.022878334225819
S 18.877112704768507 14.553372744437622 12.169407112691234
S 9.41027173218453 13.728663776743208 13.076202468615147
S 17.35124432484756 14.376612206351028 10.844397673476696
S 7.394430153105997 14.155065152768383 12.778563730647226
S 13.283109876047465 14.399794558871688 17.590158294859044
S 16.434610492890656 13.76710817296096 15.508037770720941
S 11.636107304085431 14.935296458149791 16.75370172789502
S 18.064720677927777 14.135259004454477 16.43713277118854
S 10.081947350798814 13.797372375325226 17.01532035076727
S 19.74935885618234 13.305237838237451 15.054585406741563
S 8.255787425726083 14.335417362885275 14.689852544842985
S 18.761766421681603 12.788443871419975 13.448513361048331
