15
Energy = -55.295592 eV
S 15.279213533680023 14.611026626398472 11.127518189946258
S 13.807878318671028 15.43671831639604 12.058223092345811
S 18.519248968928423 17.935736198200463 11.478453466718907
S 12.22748162603354 14.377660748065594 12.374487606327639
S 18.874937217228293 19.492769158321842 12.55192714024729
S 19.884116972063378 18.842338416182873 14.352559130842517
S 13.011688585680332 12.053738783885244 14.70280406511311
S 20.113191280177542 20.68229309217471 15.325804135288331
S 16.847853776575523 22.14072978467121 21.239163703645012
S 11.888571217704836 11.117067145974552 15.964498880199047
S 18.58293073586812 21.10217766906927 16.456624775485285
S 18.37275815146055 22.381570615284407 20.127523607785704
S 12.273485662214634 11.252235028243868 17.84929132881003
S 12.669853182073487 7.991010021250993 20.179624669817624
S 14.275623669882721 7.211761294122906 20.84032910566906
