15
Energy = -58.70603482 eV
S 11.998264671082126 12.473101687183293 8.274768076964632
S 9.265407015149794 9.991658234193217 7.754553489721126
S 12.037113749478191 8.2780083106165 8.092581291012126
S 10.169800053270068 8.087411317292094 8.501699747332758
S 11.497511936307028 12.879329973279336 10.103050861304862
S 7.28961034564146 9.735097888371492 7.630414049511714
S 15.010123986490104 10.557119727049253 10.193701489734934
S 5.671547297721979 9.207991825088754 10.549364596546862
S 6.294511262146551 10.619372981289498 9.336334277047085
S 10.169828705136533 8.191492852426498 10.878481479208888
S 14.069459901538291 11.376545792243597 11.676842963637077
S 11.968092013932585 11.300047347163174 11.436824617902987
S 8.638545507097906 7.27068994345363 11.599200603240151
S 7.324864254720231 9.297367292138759 12.227330989234785
S 8.521055767462457 10.660501295386567 11.670587934775522
