16
Energy = -60.84336763 eV
S 9.764912022600834 9.059084733104134 7.131349149134456
S 9.711675367931464 6.481862374015539 10.838553860478305
S 12.134625754673014 11.192097556876933 8.426674017011393
S 5.202185046946211 7.668297420711895 7.703893536021054
S 6.096891834442753 9.079458228240737 6.408722649573719
S 5.438625785942805 9.167698394273438 9.184638654829609
S 10.471931740312714 6.363728528802635 8.62665208375288
S 10.343531284183221 11.953936637871658 8.536392387598095
S 7.810595431703019 6.255548503859176 10.735439943465934
S 7.702429671917636 12.129194793198623 10.557879945920886
S 5.088894412215727 10.518955645095094 7.587188245230772
S 12.25063512790664 7.093060860050295 8.424309211445184
S 10.275338577118532 8.746023168400592 11.164644578433148
S 9.590464058641354 11.757818757944138 10.61839036459468
S 11.845612447920308 8.771395028238587 12.271979027575489
S 11.662770531980499 9.152958337432747 7.174411441371421
