16
Energy = -63.65853586 eV
S 8.384290526191602 7.044725144369864 11.533386036640858
S 5.435472689337687 7.850029210952699 12.900753387132978
S 7.108189329073754 6.0532614935450795 10.1396036369967
S 8.187421991952034 9.004228303653402 11.291455791334982
S 6.201691580082822 9.48530714027951 12.259753248911178
S 12.737783338023132 8.721999840744854 8.743005899075458
S 7.8057939623254535 6.210446205760409 8.248432799821892
S 6.823196112127267 7.945846156080011 7.528239976922151
S 13.409196292344935 11.948186706281719 9.128348787973563
S 8.185683395350082 8.992008421026894 6.393290790897765
S 12.404621317376396 9.18506687143004 10.563811166766454
S 9.634414595268252 9.962299087594541 7.4363594757595015
S 11.750868505446908 13.232016647010006 8.95916108828666
S 13.447136024367287 10.61157686992714 7.656026730517214
S 10.029697698723341 12.305313491630509 9.665103463650837
S 8.895023345086654 11.883317411130845 8.040288504888942
