16
Energy = -63.20609604 eV
S 6.092829357885508 9.00941703759275 8.660959259277066
S 5.326018976397622 8.871455862638868 10.487380817814326
S 6.531230120283516 10.078043416970901 11.75942739606799
S 7.488570751796382 7.24787809728864 8.45175216992111
S 7.318398902099207 6.15235969180263 10.01490400664116
S 10.126256599454175 10.502625040296856 9.470725563386832
S 7.393647304675361 8.857970919889556 13.1699586855254
S 9.036881475809468 7.966411825836963 12.338983517642012
S 12.878335245860903 11.344843472495988 7.848732946929217
S 10.729768522400242 9.242638419670511 12.518291229074082
S 10.380138711724763 12.139606942903821 8.493698054092958
S 10.307684018363899 10.982854744982331 11.61287500095353
S 12.497721630185207 10.983567962427772 5.70688629213112
S 12.744725310862519 9.73186598103892 8.870601927362666
S 10.790488191031887 9.811412488568207 5.687758479349962
S 11.231461525594282 7.914090633842979 5.761444090807599
