16
Energy = -63.82846808 eV
S 5.493726755837591 12.064059967592824 9.260297838585485
S 10.386453049614571 11.52249146662558 7.103113303952711
S 10.35289112226969 12.585204808019368 9.005919858192827
S 5.912198749453011 10.209020691847439 8.997878274338483
S 7.332562803602748 9.840244151474328 6.782266918208926
S 6.950221742987746 8.000423948628455 6.3596712935131094
S 9.502480348618947 9.76789740591405 7.340551045438035
S 7.891868517209349 6.410006431812439 9.651159024075817
S 7.3545728733757905 9.637287332480627 10.551987314378552
S 9.590949813584132 5.594902675280693 10.508840948817822
S 10.426862757182837 11.186219678550339 10.450246006550138
S 6.933903232933253 7.701630375344141 10.97099119470031
S 12.395742872489063 10.633263333045388 10.89020677047452
S 11.30382082498549 6.114985876766646 9.460893406068179
S 12.964314013232633 9.08964433134152 9.655940098467811
S 12.656596551311784 7.2425178420101375 10.553489274490232
