16
Energy = -62.66632238 eV
S 7.114934470210536 4.824083209969567 6.231187161029565
S 6.654278705895776 8.937129000632655 6.1971254528440225
S 10.530078627651106 9.030795291152925 5.811722503859538
S 10.954650287086116 7.3419318282190185 5.01764475233123
S 4.903293842332798 9.467817518840723 6.772456410349059
S 5.408318062783036 4.885673703215589 7.338874251755897
S 10.108950208544666 5.013997207939106 7.766985103102328
S 5.315993501370864 6.607397537612142 8.551910313568916
S 3.8645334213115614 7.788680706817255 7.837504276860402
S 10.80171129277885 9.173179739740759 8.208984519340769
S 10.396242085441388 11.033193359558988 8.472680995389096
S 8.506603260358279 3.7934599591092213 7.429347276975408
S 9.838676735770537 6.21333500008125 9.465295377655844
S 5.326583469602663 10.808016036836253 8.812216454078214
S 4.274655525492933 10.1572264096123 10.267677720064777
S 9.043634670810798 7.967221658104623 8.861525598237392
