16
Energy = -63.23005529 eV
S 10.862275278990797 12.2120786953052 8.564245376301553
S 8.968115241069578 13.187171738778494 8.121844184928827
S 11.762183518630872 11.668736836596596 6.849825283329986
S 7.894952924725099 12.970417544004343 9.7114186663841
S 11.5505287703911 11.879606406975599 12.506170609494127
S 11.040305044583489 9.818044836844573 6.081490370478195
S 8.050435457799637 12.822321868032581 14.294678781766539
S 10.957387329124055 11.033090779177066 14.171335344027941
S 11.997830550319392 10.168668756114965 11.040939836970415
S 8.721736270062424 11.018477423070756 14.237875064169925
S 9.19352209164459 9.348216778776932 10.508192922808655
S 11.687207829875348 8.264946240223875 7.1864788693184565
S 12.09237488369641 8.532805907810113 12.030575793270827
S 9.729994166161793 7.792649852822394 11.451192713650201
S 9.81434761562034 7.520658571338408 8.10057995785466
S 10.252095764674573 6.297916563678958 9.537330755953072
