16
Energy = -62.64816827 eV
S 12.645772256286884 11.261777812354175 12.262235289655463
S 12.644162849078418 9.963724097384286 8.544490836855848
S 11.245471967354199 11.234992623599705 7.7147804937653754
S 10.750977611575465 11.633961140614504 12.217140777872366
S 11.523849067917766 7.344661636411639 10.351061366047741
S 10.193119684622298 12.834001133881198 10.507902207939027
S 12.022057241255233 8.000042541072782 8.430437158661757
S 9.682840305326714 11.497108826441918 9.047056422213894
S 8.467932016865642 7.996812083527164 11.873024497199308
S 9.574933208413679 6.758454312623392 10.54294012008009
S 8.707208433555028 8.918246089428253 5.938581023010693
S 8.181178820312628 7.281571487823771 6.811784876013499
S 6.678716620242202 8.475159096277839 11.059576274939978
S 6.684974877185222 10.551499698073549 10.410542597045824
S 6.324805100501485 7.0498910632466805 7.271276876477455
S 6.002074016509058 10.67139789358984 8.607628180452021
