16
Energy = -61.13550808 eV
S 12.45505630238926 8.755629048349679 8.848130767928092
S 10.29368050540517 14.073023967025438 10.425356692409984
S 10.338446831036242 9.461347428320032 14.271391962984774
S 10.78794680541542 10.186475007795748 8.391899432884415
S 11.185982277329114 7.155301701475456 10.03641257291821
S 11.772399506205348 10.706308114126262 13.327458451764198
S 10.18977932452985 11.763111578165482 12.34077268075642
S 8.644210014373408 10.137987171227648 13.532208113096813
S 11.746704514504234 12.943926492887107 11.481576347407687
S 13.61752325014167 9.474567632757227 10.19315116828537
S 8.615583117029251 13.214002913416977 10.998079542898282
S 10.169844164050865 11.629565994778323 5.518226720046927
S 6.729005286254621 9.11566571940978 9.285581872231129
S 9.376186174738162 7.084723451942415 9.275452228761406
S 10.18154911515174 9.914369487971474 6.437119224605134
S 8.41916000054802 8.862144476146216 10.167250498771473
