17
Energy = -66.55749766 eV
S 8.83175443341262 7.32463083600137 13.024495569899015
S 9.16511990611466 5.959311816778863 11.24415166649801
S 12.351266041422422 7.936228660354515 12.390672280539478
S 7.55063838469825 8.738511131157413 12.561124265135428
S 7.749091685748576 6.293246331222406 9.901562477593519
S 8.689057356587918 10.517451806355501 12.01216250508291
S 12.423909171126901 9.005996389209137 10.788818193995525
S 7.845989060413938 11.327729328710376 10.408288871012406
S 9.014556562467158 10.671970857315934 8.552647307419601
S 12.272481482137886 8.125323751731887 9.08259477195844
S 8.68149189806079 7.263571290178179 8.212419157555532
S 7.737707777305651 8.953015272683178 7.749762757710774
S 11.40732042207154 13.650872787612247 10.163272297653975
S 12.625263874157467 12.326623202502638 8.885260377318984
S 8.767556105095874 12.117433477207896 7.313164757655405
S 10.8371783372896 15.008235219000495 8.957292266016362
S 12.525598971790242 13.167713797285847 7.181149846604373
