17
Energy = -66.88895257 eV
S 15.046807805809465 8.697326455064259 9.579686662049122
S 15.193571925058052 10.770515536283176 9.311436702225953
S 13.714567116627581 9.767827142134161 13.988732947862145
S 13.866205683137974 7.989077774765779 8.011126098242801
S 12.182343033043587 7.238356918000712 8.839657719878911
S 13.423740352602511 11.673741536229892 9.58618716027704
S 12.42578405546765 10.236477453128026 12.649702549157546
S 13.049136574129632 12.338963297133688 11.707723002140467
S 11.43734379723034 13.361804769039693 11.491222240171592
S 7.827578753743265 10.994584692473222 12.088733535092585
S 10.803133526712289 8.902253447472939 9.112750440693445
S 6.600908278947917 12.252501118322488 12.79082587772073
S 7.907724436942801 12.347977737540084 9.749182445252288
S 9.35691429858785 8.215143615257578 10.188550219216863
S 6.693362851652786 13.631238965872196 10.426444632853496
S 6.092204189715014 10.390993063988924 10.092234065897635
S 4.844122309244569 11.631908075105438 10.791777651036094
