17
Energy = -66.41229794 eV
S 8.011318036223473 7.439555365514751 8.561603636093349
S 10.653296458590324 7.3019755836957625 6.487324372481801
S 8.844120479917605 6.279093112499122 7.128508522221773
S 7.380047226871576 11.450079577072577 7.775465488188426
S 12.105905802850414 6.028515415555364 6.461028104307142
S 9.117979538202754 12.401431188784548 8.004495336336108
S 8.984254842713332 6.893314656371887 10.353118036068805
S 10.747433203121739 11.123408590124363 7.616900358881475
S 11.695384504553994 8.800151968501543 9.967207558769815
S 6.690004988214753 10.983181147728008 9.868206209035831
S 7.912645025160337 11.783876587286823 11.108006168076674
S 9.948768237843897 8.514193213816194 11.11310964595293
S 11.733228288773832 10.76568635741522 9.408736799817193
S 11.586951857560543 11.15579468657845 14.244030214937133
S 10.543386948933282 13.786739372237413 12.32425668722422
S 11.313816468431224 11.860978160772188 16.01647002032847
S 12.138561661655615 12.817040883912199 12.819862525366421
