17
Energy = -67.74412948 eV
S 10.707639862207651 11.209431028939475 5.307720620521196
S 12.452929529337219 10.31236706181921 9.325894582586146
S 13.095315570434847 11.647231418893531 8.126827942596444
S 10.628501469597264 9.288382718475368 5.7114501728882106
S 12.522322196305733 8.301226999729145 8.2573768638113
S 9.831761229409103 10.8894184902776 8.573068034347505
S 12.66695640652175 8.786524316433772 6.359613460837194
S 10.507745301873937 12.191090576856384 7.352658451512718
S 9.141342983988347 7.351043980300467 11.766868906768188
S 8.07327730531294 9.052181320316137 11.147895183421463
S 9.22472888681818 6.7023565767102395 8.49411198395399
S 4.142782975808075 10.18788711741122 10.324710219682053
S 8.162363788690282 5.315848282835826 9.282405257454228
S 5.37472078803286 11.63794271086618 10.517267964662816
S 8.02188802456273 5.732668033181054 11.499666450737509
S 4.887736921239703 8.477587322877689 11.639126395107686
S 6.495213624145462 9.286367649345037 12.491044868697333
