17
Energy = -68.10697791 eV
S 6.359524452551252 11.398668090590618 5.881551526854185
S 9.025902890105279 7.662219436182443 6.103982694241481
S 5.618424319159911 9.233853201225925 5.8891748364077365
S 9.80971051162346 10.93601942631218 6.5519129786615595
S 6.71118360656483 11.894141055611605 7.723222076580262
S 7.980084725639957 6.827732300458065 7.758516517397523
S 10.44486830195435 8.916761524624375 6.82311324943526
S 8.944161540123341 11.692139294716979 8.172044453335122
S 7.0817379738328174 8.343522945357044 8.735805591299464
S 5.220191061089894 8.826807831698346 7.776516534280997
S 10.365988942374283 9.279585340761725 10.38361616598213
S 9.308736724838448 7.448549476957107 11.642127936377083
S 9.96633374843167 8.052459316112529 13.396822127461217
S 10.710242880771709 10.544845978051258 11.748663508200758
S 12.442497821206489 7.952474509215535 10.403933791716401
S 12.99695934955646 8.54929761666888 12.194524786409469
S 11.95518588734161 7.370502734949513 13.614236089388386
