17
Energy = -66.91438134 eV
S 11.364929079750208 8.430298762090265 12.87900874595199
S 12.021962655382314 9.54552945181698 11.452501131538943
S 9.517975420556125 7.882716733863618 12.835933846612019
S 11.089804029976884 6.540084265945762 8.390910521217254
S 5.938457761901958 11.657935172466004 9.723830457978822
S 6.595748652799533 11.951311270374138 6.6433408286286815
S 10.051739626375406 8.055633667236863 7.395361452273063
S 4.9540830305424866 10.351755048514077 6.209370644521769
S 7.584485196706686 10.708816935482822 9.56916198232524
S 8.10930557157876 10.93846880600333 7.266151650135333
S 9.859485826943395 4.937686239719582 8.567901117888573
S 9.870561749159506 7.543668150870468 5.4182817028944195
S 8.424510606968285 5.519759394868848 10.088812139286393
S 5.792106286162806 8.63281687856159 6.585615345220527
S 6.611590101563861 7.91290784433194 4.684154971565606
S 6.691510372451752 4.838937352560785 9.578720648480239
S 8.015153173899826 6.576002610965577 5.228027502884194
