17
Energy = -67.05123798 eV
S 10.4922769176558 7.143263334350287 5.458992889209441
S 11.718406392777775 9.102478833872178 6.0499825418023825
S 13.134040826690745 8.102434732833265 7.679408274585212
S 10.473288049924255 10.154096426323935 7.029663264638492
S 8.152961553522104 6.704264526541451 7.877480134414848
S 8.680141003830885 7.635395746898784 6.075652917637121
S 12.953174775700754 10.135786027709726 10.376030747705027
S 7.2090712046948795 9.681100030155841 9.032196832518887
S 12.10444200198841 8.430096086812311 9.3205925483466
S 8.357110872466523 8.151018102602308 9.423738591001072
S 11.754344505205813 11.690387711653553 10.232249357223036
S 10.221243458964906 11.27966760943002 11.87441322780521
S 5.1809704569812185 8.90305494334548 10.192589807971851
S 10.56656426874776 9.512197390652547 12.5201451161135
S 4.835427581919172 12.24258683512456 10.558951571403234
S 5.775909249324533 7.2948195369443845 11.028283469406508
S 5.270254353383795 10.716061966795998 11.643186392692117
