17
Energy = -67.94673349 eV
S 12.389235869232845 12.121543051511939 10.994854535915069
S 10.647652202280566 11.3938892916834 12.584133753584133
S 11.605433669273252 11.369427361832306 9.389920053854615
S 11.693131783684846 9.269109159300115 13.277935614267749
S 10.41702367741072 12.967973538769035 8.45843071985871
S 11.774821867330273 7.560678715856465 10.377327183684631
S 9.171630025306122 12.130804786672611 7.131766813096933
S 9.335928980575526 10.732318125788957 11.38415625762647
S 10.792544238893315 8.119888201078801 8.741460950561297
S 7.889403910017435 6.206038805450004 9.253530193743538
S 7.188366832314757 11.958909138647932 7.872038054669177
S 10.60894605123024 8.07627238101834 12.190637809622842
S 9.643182892485507 6.441779025817179 7.764973297387144
S 7.617031500236157 7.9721475843437695 10.158323678969097
S 6.54962762269224 10.019525404085975 7.5750445680592255
S 9.146338008722386 7.321257561585915 6.131053828037417
S 6.034646381606382 9.056714103824008 9.318624460056112
