17
Energy = -66.73416393 eV
S 15.660681331717878 10.671905962206383 12.924709449405345
S 13.76121589197734 8.360253352529801 11.190010662765872
S 15.030591279415566 11.46318561766009 11.300345496491662
S 11.288776393782921 9.624035576650869 13.097237907843937
S 14.193649824611692 9.881008132267672 9.954966911627503
S 9.993592819557017 11.014893101948548 12.37667022125371
S 6.593071942903625 9.399403572712957 12.381825603177132
S 11.708930640674714 8.254652057374017 11.587837394789048
S 11.167866998127842 12.425667123991456 11.268575704696978
S 8.30131988841066 7.2783498170100716 10.507413614245396
S 6.849531867561993 8.534891375667424 10.681132914034809
S 10.867510875887406 10.985016384824283 8.240711158656078
S 10.280426103345029 12.659799238047105 9.498049248989986
S 6.416444213502278 12.388765876974194 9.232729418543034
S 7.793448274725181 10.05942780650632 7.158310693057868
S 9.547178730414041 11.092525414935391 6.719800752996326
S 6.2841033647675895 11.539086810004266 7.49996468481873
