17
Energy = -65.57198922 eV
S 13.44612241819802 5.768694405330202 11.663416212139115
S 13.234445949471487 4.13669921701386 10.713101752683205
S 11.625102552969672 5.81560438604232 8.830971559386727
S 12.07178138005626 7.2223993593891995 10.028893015516088
S 8.203996043453115 11.618821298474352 12.414261531599886
S 9.399166764795252 8.514339735582828 12.150253764761269
S 7.757268839917562 9.474280721531677 11.99914974270212
S 10.087313109924509 11.627436799576138 12.882848164607488
S 11.652136717037946 11.444600541011733 11.045415062396401
S 11.037182163135025 11.837081803184716 9.25543424843098
S 7.0805323901200605 10.062538095187472 8.973978616153698
S 10.656095905979095 9.960176759855353 8.252448835910124
S 7.950197587159558 10.556372580938126 6.194040011806789
S 6.561246386874473 11.961612482360184 8.920435488895857
S 7.904729590888457 13.120374093354128 9.848688097850033
S 10.130977616812006 10.55669119841193 6.41334120805292
S 7.222899735401492 12.346751897656478 6.437255999999522
