18
Energy = -71.33370385 eV
S 8.390688825582174 11.941517573096602 7.083240283954885
S 9.733570648636503 6.23397091052618 8.673307711582558
S 9.768543057554025 9.247660333034194 12.802056925015187
S 6.795194204339172 9.102398614350552 11.155250049191112
S 11.575184838508275 9.323716221881597 12.077552431417752
S 11.821395147569831 7.134417858925505 11.142683651086115
S 8.560628418581413 10.035053949735044 11.160388960691456
S 6.997361307794767 7.1181187946949285 10.442094887817724
S 12.821155969154702 11.029095157026626 8.492348739651067
S 10.342941146153601 6.147642982869324 11.816479870973227
S 9.688475389874222 10.424009588762944 7.412824804515099
S 11.251801748210662 7.480833724163509 8.811032506583485
S 11.619570162743406 11.042750764592514 6.84955824556961
S 8.062451499507858 12.94703409119803 8.993088070105687
S 7.817940769575891 7.170579345816213 8.578623308144433
S 12.788040288603339 13.012781708108653 9.329936163441374
S 11.509545432096012 13.129987281540695 10.783323033352815
S 6.162312008053326 13.038939116467759 9.313586557806614
