18
Energy = -69.27960794 eV
S 14.643960594698651 8.133252146591852 8.337738318870763
S 14.132180689071715 9.3190939553457 9.760895094618569
S 11.512330348001628 7.589269235886882 8.612776356680058
S 12.805778253333585 11.174903277194453 9.299184070661502
S 6.841670770309568 6.35023246775609 7.51076905863371
S 8.812300729326367 5.769265477165097 9.20975523419129
S 5.047481259970071 7.006223230061017 8.965734173700639
S 10.864354478046295 10.911901607599379 9.485750264599089
S 9.682458289355843 10.994607557825605 7.489245692488471
S 9.585226407778052 7.567956797067419 8.926879090675827
S 7.4289889892109375 7.9912261610340165 6.7788373527783605
S 9.9086845870989 9.866956959523245 12.588902432866641
S 8.921290302553773 8.361907202803641 11.839154208250175
S 4.949068779168689 8.916419857494816 8.595076488060569
S 9.538521728717992 11.629048652495365 11.833324766903047
S 6.191600576110307 10.120681486507305 9.97145838423925
S 8.331397768507514 12.38231819943872 7.90355233729746
S 6.297237096991446 11.810684472960608 8.954028919133478
