18
Energy = -71.28765447 eV
S 6.384767328236359 11.221523517481742 7.051033824122841
S 7.156236097615131 10.44869239499835 8.596591892380593
S 8.816147821613972 11.151718113293466 5.812263010142412
S 8.095356333233294 13.340597761058259 7.266777439693897
S 8.110004689725672 12.177590101670699 12.375120467835272
S 8.945101520101561 7.328792405243188 9.68322084792683
S 9.575088388156361 10.376664198340048 7.361041176929823
S 8.844511484751653 10.648168885565882 13.28128022731682
S 8.86100039484243 12.557684467225283 8.8117275508744
S 9.975409064709659 6.4059288684851134 5.550502650289134
S 11.15830091850375 10.727782111007398 13.32179420511441
S 11.45497503626068 10.146043437243863 10.91925408288968
S 9.161739512102361 5.474670210329656 8.66490151394639
S 11.811907449798719 8.256570107600929 11.222802882818279
S 9.920514211871906 7.23963287613761 11.455905677045605
S 8.171839598810218 6.965454429795628 5.851364425055638
S 11.653776040679013 9.086698326863097 14.161946342217119
S 10.761900072808087 5.494818372923715 7.481178222181684
