18
Energy = -70.3147229 eV
S 12.297756319264733 8.93309642802589 12.09688967015364
S 12.947003983924757 8.186306064956128 9.982116539151615
S 10.7208510211911 7.568291687114276 8.809548625970006
S 9.855626177657955 11.1313824867285 12.34721412700423
S 13.516813224908578 9.487319307210965 8.69795734933213
S 10.391292117979704 8.903255359626744 12.506467753525774
S 11.349374514509712 11.942132473712316 11.477311471128411
S 9.137515022832781 10.586354892913084 8.685353447804102
S 6.780230398703801 10.47702272984627 12.636306973776167
S 5.676520318010131 8.958090288947803 12.16374605526807
S 4.365212380557925 9.211676007601188 10.77292228697563
S 11.224877288212191 8.40317778903395 7.163558704220307
S 7.0260730202483686 9.790301690187476 8.549282675661852
S 10.0236054517141 10.397691860929113 6.978278844920326
S 8.508222752112392 6.771645185451868 5.364100036202059
S 6.706805557322542 7.25801869453011 6.4053743959912355
S 6.627629924614466 9.325148201244579 6.650982333059427
S 8.74843275050574 7.869433943260644 3.791856078342116
