18
Energy = -70.90647499 eV
S 10.940464878827774 4.654898869245586 9.199122368240594
S 11.653807195978642 5.707365611806047 10.897577276243922
S 10.225604175615581 8.575884206502236 10.645594965436892
S 9.274059093313015 5.574477114051707 8.476563200125492
S 12.028327396024237 8.920059122567654 10.15266922120917
S 13.150423810221714 6.882179941981311 10.353371148681765
S 9.797489851228399 6.7551203003656335 6.834375716910827
S 8.415462457274069 11.737502582387776 12.90302970050751
S 6.14445037206337 9.95986722261004 9.365559158462409
S 9.856477847179598 8.716040271511469 7.387766727979352
S 10.112473599936477 13.00155030109026 12.703771970195389
S 11.918984752434703 9.288953297978113 7.551654375610301
S 10.530531457136194 12.758996268892108 10.710580570794276
S 6.847660762864961 12.775297657244648 12.305149405159776
S 11.905775146645452 11.219554138472347 7.4714987956242735
S 7.746763738676318 11.01022921142613 9.069875994031419
S 9.201806641698479 13.89868175773665 9.607238494974071
S 7.338911578187188 12.947877695816873 9.725745361974234
