18
Energy = -70.27289273 eV
S 11.888326756937003 9.412700752618017 9.523407450612524
S 10.761780835218033 10.548739468440287 11.090644910515511
S 10.378975750610744 12.279143432582485 10.093479064313842
S 11.967429921368453 10.787921046810217 8.038920198112987
S 11.754623687613757 6.612388041383167 6.753252355369407
S 6.327953038561275 11.379316691742735 11.231550223022069
S 8.217179933904802 5.656050250346232 9.614152951782383
S 10.835474815994715 7.756941974206377 5.500340077783883
S 10.133987343676413 10.82933472847699 7.150065303227013
S 7.239276214422758 10.613188097434508 12.7214454166612
S 8.942322738793122 11.891879556923849 8.713227078213189
S 9.322969482707963 7.044298695919763 4.55043569933593
S 7.821759001820704 5.590181290749477 7.603300588010631
S 8.302935663505211 7.587486344748603 10.293070349389627
S 5.685581627616035 9.617186329451725 9.88146457850526
S 6.32099701795047 8.076382997638264 10.933886856814702
S 4.787330481871302 6.430336205812087 6.35996891955404
S 5.689916860234387 5.210639659591432 7.555677025620149
