19
Energy = -74.58820396 eV
S 13.67437818024357 10.048935661211676 9.07779518039658
S 13.831430518457731 9.767950834088051 7.168873837913199
S 11.486618491665896 7.4874208925460435 11.508407259789863
S 12.028851790394802 9.269363928555634 6.19218225905083
S 10.569744567965673 10.664018298935792 6.8717000614513335
S 11.478671565798837 5.705466074935959 10.657589037923263
S 10.324107337503683 11.422223052299426 10.770230348512031
S 11.082428185146501 5.988835986483582 8.574147288301724
S 9.543542491108468 13.156691108739583 10.550645154952763
S 9.35472902671083 8.045799681999366 11.923696040630436
S 9.142426124877638 5.357483955710131 8.387555161547315
S 7.194070410143134 12.802348629955594 12.315452874090537
S 5.876974750061843 14.002186859605255 11.560392922648928
S 8.845081997259044 10.021452445570791 6.292711493451498
S 7.2616433918073575 11.180228859611463 9.383539265835974
S 8.212097876621106 6.565945116989655 11.283339270957551
S 7.0984132118919065 10.903326787899877 11.532717532097474
S 7.947284759665733 6.824260823444387 9.171709216158833
S 7.843636663241104 13.058336147202988 9.15527989818197
