19
Energy = -75.85949471 eV
S 14.876294271734968 9.539735912766789 12.208908499496319
S 13.307541711488822 9.145354024858614 13.254897043501233
S 10.672061393117357 11.868536290244537 12.26951621260472
S 11.98619067507044 7.921217664335636 9.827145484989627
S 15.483921687370827 8.216913521712424 10.946233717950662
S 12.686083265425241 11.011078490497201 8.474414838752638
S 7.821518813113013 10.897237160419966 11.260220730538318
S 10.194103969732172 7.816654255318406 10.823632626505193
S 11.846415559534329 9.151393749783484 8.156361299367148
S 11.510263901862412 13.012016827151115 10.932634209529251
S 9.039726676449957 6.456986177026955 9.725927609891047
S 11.192605183029542 12.350619765087515 8.9272479181332
S 7.787657024962772 10.402763003157967 7.8429477236885585
S 8.384483876666543 12.954655787806846 11.965361595460083
S 8.809720323917734 14.165550075422024 10.54437295446244
S 7.428696578177806 8.391675950995948 7.378477957734244
S 7.295226036600186 7.38615903601475 9.184622133785139
S 5.951228606121163 10.913727285547399 10.589177680994702
S 6.080095068544665 11.282842359472568 8.433419628622113
