19
Energy = -75.18966252 eV
S 9.949464954353058 12.389271812111442 12.38593293740989
S 9.940487306190006 12.043044649958238 9.065589382741475
S 7.754541699448693 10.224903492558473 13.795211696251519
S 6.545055556862633 11.332241797821833 9.315003421035467
S 13.663976177449074 9.662606256342544 11.311005776985944
S 8.761636390712003 8.321187082658897 12.99821719129702
S 8.999971230929273 12.997920407156347 7.630386691285876
S 7.871069609469821 11.611427943794205 12.423825024881218
S 6.768246118154258 12.743138637701952 8.035724136561871
S 7.770280544192187 8.631529856703931 8.166025450860944
S 9.922420183777062 13.490383786381473 10.73912490705574
S 9.345248873598797 8.58204814772506 11.149239155310536
S 9.648549148130279 5.723531826756588 7.91546424419546
S 9.179713227154203 7.195627707905714 6.799038347064953
S 7.788379481450819 7.658592686296125 9.855814418422039
S 12.718507370915807 7.216215726816121 9.27238848988547
S 11.066442892049633 8.606322646296608 6.719270305521913
S 14.176799512585356 8.743603036218543 9.687440168322146
S 12.492749766453265 7.3115579701555165 7.2167637891358405
