19
Energy = -75.87614244 eV
S 8.825002271873688 8.814349190526048 4.830678863743044
S 10.485577818849356 10.736330997544295 6.0259031001282715
S 6.837000438430015 9.195349902731115 7.226523330130716
S 9.494886006232939 7.575490969409592 6.101895582834118
S 11.278999156899012 9.374938309553775 7.144284841577066
S 9.124812808213727 12.007778553624382 7.009865089319075
S 7.8955182380633415 7.679630703382867 7.816665877796893
S 6.587902680879862 12.27568004751501 8.997633660603753
S 7.870461528044373 10.950858204768886 8.46595728739746
S 12.90273779782834 10.455673950809778 10.663094822107618
S 11.200340636636232 11.803394507026704 10.890909416858182
S 8.866424978453177 9.005706374416937 12.173628152152855
S 13.209691499368583 9.43333121433477 12.307093609371
S 10.532016018243214 8.00275211447677 10.869598566470701
S 9.936192190613925 11.920400612449578 14.020291336764457
S 11.410626427107342 12.671260613503106 12.693622532400408
S 9.345818903471425 8.59467497650941 14.00906279297109
S 11.921257283926732 7.554330287542939 12.142716376105499
S 10.564216382372065 10.237551535382226 14.900057826775626
