19
Energy = -76.02773023 eV
S 11.53439740212587 10.566890711004488 6.170959567719137
S 8.914797095180464 12.373521180088668 8.20756980123748
S 12.89046856291539 12.719752556032377 8.458182522946972
S 13.290026185322976 11.352576705932934 6.979290915454756
S 11.521414509994006 8.542823481193286 6.502540675952763
S 6.603164667246761 10.20932887414191 7.00189457385431
S 13.129866779899213 11.861794627725459 10.341509496073606
S 11.34533584695249 12.049773822801306 11.401305109491055
S 10.579195521613 8.07649815615994 8.29955781315776
S 7.809268180406878 12.067139747107857 6.675637380750248
S 8.599930576682034 7.6837773515445225 7.968748406621019
S 7.3917735084872 9.30691165163518 8.598421215451266
S 10.126395148617961 10.455281832557864 11.187728421158303
S 10.483587041416659 7.224791242017559 11.919616243177884
S 11.052757820963874 8.99016159881007 12.528349381255058
S 8.619948861699504 6.724465472578009 13.230687832543321
S 6.629059468071915 9.013773932428151 12.235672025065629
S 7.234915127325758 9.675561165038836 13.91735162328095
S 8.679803407977401 7.977314850343314 14.69447374427221
