19
Energy = -75.58305393 eV
S 11.373900957545342 8.351756397523802 6.866966158095449
S 12.335715228883014 7.430988775839294 9.953901608585946
S 11.670514087859948 6.741736694112807 8.274279975211773
S 9.045123480030115 7.663781882814054 11.13259640402622
S 12.43026124702851 12.084771397900006 8.949220869776314
S 9.49447416944136 8.036969473737848 6.124751232556686
S 7.052061838720091 8.08958103000493 8.49827433643022
S 9.401472097035946 8.378822685037964 12.943947946524688
S 8.086354339498689 9.22533725396794 7.056022085920921
S 10.537788661780683 11.289759128492385 9.23305580892711
S 7.37832378183094 8.844166899117749 10.33202515762875
S 13.46625112621502 12.234819419483737 10.699932370134464
S 10.93978146006232 9.95212788090491 12.725713131391696
S 13.210127099828929 14.359449439874451 11.100471547540257
S 9.257843631727079 12.774167678256806 9.886468048465861
S 8.409165604909562 12.128769682939092 11.702992076157228
S 10.61998127731941 11.280820383761084 14.132101582343669
S 12.902549962014612 14.69591191883387 12.973180532253636
S 9.28727251652716 12.897054581858741 13.319277236858078
