19
Energy = -75.65339686 eV
S 13.73895615370759 10.249393685726789 11.846953018727472
S 9.501540175935762 7.482751129527098 13.039680740897788
S 14.640204501931832 12.105416972311552 11.866545278136309
S 14.279833782995926 9.241956701752777 10.129484070041189
S 10.271383905489873 9.25149004821097 13.15078251982322
S 13.312401510553178 13.515491697407354 11.152456062693494
S 9.414713521357818 6.834875197995809 10.981979683376034
S 13.34368503389349 10.99979663271026 7.4136151375341175
S 13.702905589967829 13.86508423658883 9.15598009592691
S 9.60726030495616 12.105877067026487 10.250084393123402
S 12.411482906920853 12.7496083527102 7.993052815176453
S 12.808236468552895 9.477627442841698 8.699478521067704
S 7.488675624336979 6.250455201532585 10.756108343524721
S 7.906302822481819 11.618684916021746 11.400729331605552
S 8.924551746980342 10.753686268663815 8.798786258325814
S 6.439109791163724 8.055536590032185 10.199253406786616
S 6.439308709453558 12.295476531477188 10.225300492767829
S 7.201971898390587 11.60519999934656 8.227046027509695
S 5.093532867403255 8.476165228521785 11.516254816635849
