19
Energy = -74.19821306 eV
S 6.315849125651931 4.195767150052248 8.654535382152602
S 4.865773268655109 7.645123212519689 10.611478811590791
S 7.831552622580485 4.511946131817891 9.796998200711993
S 4.966887873692075 8.66263593279608 8.68764104413434
S 9.55457606966109 4.745810475733653 8.964621237143117
S 6.612379113670787 7.944761692398487 11.650868715002309
S 6.823269942142903 8.776723011239296 8.06167891027367
S 7.452544544635453 7.161971191159856 6.700439596114559
S 9.34400111420802 7.81817962474787 6.429232377353787
S 9.182256545957337 9.598529100525322 5.301754522100271
S 6.9343481716668505 9.836590379729682 12.170442054042166
S 12.653892886438593 8.468781033908098 7.738583599109433
S 8.225368198223494 11.834918102391729 7.673614505318326
S 9.483132815484327 8.554634571474521 10.21765784349321
S 9.83180757933743 11.15225329719163 6.442831297921909
S 13.32849625817437 11.648198484264952 7.149101634127901
S 9.025254902447088 10.226535940859613 11.008305942428155
S 13.331534524497748 10.15724554119622 8.371040788134144
S 8.933590956700883 12.04686644296981 9.523316298923604
