20
Energy = -81.32066517 eV
S 7.668368367856523 8.391417189616126 5.366977632522686
S 9.239085494280783 5.823758026799204 6.898298726931158
S 8.89879131388432 7.860467010376044 6.939165033719344
S 10.110327840785757 10.822035280108379 8.098874590477154
S 5.682270959146478 8.344671256890278 5.9280584033926855
S 11.796702434875593 10.950997853743928 7.079037764191095
S 7.812934565555011 4.9187786791851895 8.104664906174929
S 5.23709265945663 10.136075257360275 6.873764022360022
S 13.269806551554822 9.696689257101228 8.099398989493912
S 8.084266850334805 12.869115101148505 9.537426424650928
S 12.304332138561577 8.072648414417174 8.793295810663627
S 10.03247116812332 12.338430791081471 9.663182892956684
S 4.951995900256146 9.71490859188668 8.870717244584283
S 6.988638352064532 11.620158644220421 10.807089482812342
S 6.749092565251425 9.782852822025164 9.904363728222458
S 8.51007395453011 4.652791159986222 10.011010069400188
S 12.04769291515029 8.397330165742483 10.861469659797969
S 10.102340699252032 8.83389595103218 11.338466310130459
S 7.784349132276466 6.243987795254516 11.181571964389178
S 9.311382791182453 7.111007406403801 12.22518299750814
