20
Energy = -77.15744178 eV
S 17.45664914707782 17.511703059403278 8.38463624084065
S 14.81273945926829 19.13480284215713 8.364174972514736
S 16.404242968828456 16.682293402345078 9.737276514149842
S 14.539740478550735 17.82246899898351 9.719643551157287
S 19.48242368839163 13.290739569443001 11.32146550080518
S 9.801785839206875 19.287219692893444 11.050315048291417
S -0.7817737196764445 12.38850002035955 13.024404300258283
S 9.671301508801335 19.070257831268076 12.963172180285774
S 19.820229153483137 10.270628705351024 12.6371951593349
S 9.702862576141408 17.04276034153129 13.542201646678658
S 19.966980715401736 9.45229081516176 14.502896295218632
S 7.964776747885639 17.264860990737613 14.71184053584238
S 18.138507592437886 8.784331359384723 15.118873914730218
S 8.199915653373852 16.592611265957352 16.505244502565258
S 8.968202606124311 12.183061238383326 18.736765692796492
S 17.346876778834172 10.358549673959564 16.401053245037307
S 10.598684340148782 13.143357666094435 18.952770860410762
S 15.841651750524928 9.588884791380494 17.32692040551484
S 12.087823841665278 11.587461819792406 19.25786836712062
S 11.085837359489453 9.969017779734548 19.16708293076771
