20
Energy = -81.26476672 eV
S 5.70612431503346 7.705419634222758 4.179853216790754
S 10.446156710380976 6.95180114750994 5.014869881091946
S 6.871238087187817 9.166938224825792 4.931093333200675
S 6.0923250077773465 5.88507892237012 5.144713801680261
S 7.760176430992523 5.036839004201125 4.274240785112412
S 10.094365501765651 8.42997183811623 6.391043106226338
S 9.385700942053948 5.232808165058459 5.52313619338567
S 5.825751284071883 9.664311540371255 6.762632102198988
S 8.29082452585592 11.299854124629572 8.397361527040559
S 6.510328767017282 11.481911481761065 7.278844698235431
S 7.117239126656727 5.535471034349443 8.953466963892518
S 11.618511576169228 8.191079278910246 7.824630276147792
S 5.094478861170934 8.114217023400913 9.896217142801463
S 7.8670821072202894 11.445259151472385 10.4049546860105
S 5.454963903715583 6.054593145105976 9.990571023477967
S 7.804932468895001 9.565208581256211 11.263113188444315
S 10.813379134856744 7.77022321269465 9.632317721825508
S 10.420553278375209 5.661671888705771 9.677598708748713
S 8.620505493336244 5.402441218436592 10.5034903918009
S 5.829347662737401 9.02888656787183 11.579836437157297
