20
Energy = -81.41792977 eV
S 10.010738042238428 10.135436552687377 5.155260629777649
S 10.85658696554066 8.427075785462536 6.028331128835639
S 8.52958301012041 10.82753591231389 6.344441284149986
S 7.992014449713469 7.461874281340262 7.834724634247225
S 8.526106629171682 5.484375225952705 7.535830028225746
S 5.984654783329533 7.530937585987597 8.323678207786262
S 12.434102086704337 9.059623459147227 7.195755071615642
S 9.593067616490483 12.177105109491686 7.660718105932955
S 8.3371552120107 13.656767040733357 8.144829089859861
S 8.90200376433476 4.6576665707815135 9.401388979888383
S 8.374516614687103 12.527854608559045 11.293731726005307
S 10.849066172462297 4.9193265773076 9.970156472280042
S 11.780463520161495 9.43483336156156 9.126095070116014
S 5.749150362413105 7.297680799387429 10.366115435919221
S 7.118293252086243 12.991653107274509 9.75136904237647
S 12.429094355977057 7.884614322760112 10.359077879309968
S 10.938315347758948 6.694677618326281 11.098464281838055
S 8.788211375021067 10.49554968445391 11.130054068259712
S 5.682705594693648 9.15539085347764 11.270628602977224
S 7.434456511849979 9.490307209757935 12.319635927363665
