20
Energy = -81.60151347 eV
S 10.182748528616749 4.400644118536845 5.732129682072179
S 8.200167247493603 4.6491632751470044 6.235753782031465
S 5.239386662127708 11.19389389115677 7.989401642054536
S 4.748857766174804 9.44383079544796 6.997838679268889
S 7.637336881368412 6.545296036012138 5.608216657403177
S 11.118863757344448 8.113640051572737 8.164013882828934
S 6.6469931868518355 12.22305606695405 6.870275434944109
S 11.426310581101383 4.845864992411212 7.324788348718447
S 12.200102527578787 6.745949177017301 7.057067637119186
S 11.958891882709244 8.1260222232086 10.055730327572464
S 8.582318965415796 11.785221608115162 7.413615032596637
S 5.670021886630577 7.871387858980977 7.968004942241738
S 7.617040141228833 7.761446887586518 7.2811888277591175
S 9.06451327922965 13.065740707625281 8.989195301886236
S 10.850279890414345 6.923305037941025 11.322123454932004
S 7.213190173580376 9.561122038787316 10.867694049776997
S 9.829432778825916 8.189049661874662 12.613020102826189
S 9.431144434712236 11.928208083973365 10.65484007080933
S 7.791338576839817 8.201818834635436 12.326058509282584
S 7.624725530185896 11.459003331446402 11.562708312307862
