20
Energy = -75.94338829 eV
S 14.13625641133089 13.516613296402301 7.77832588504622
S 12.180677985808364 14.167175437629773 8.567326571791837
S 15.240110071896346 13.543715261839438 9.3288769871574
S 19.762281734998385 13.4066889887788 10.781893113434682
S 12.554793674222248 14.439210437877197 10.414914851432789
S 21.563253270843923 13.045232193876286 10.276388262662389
S 10.301291021347255 15.965074076210273 13.470349217272357
S 0.20722789856848509 13.502108697041917 12.068123486730142
S 9.57656390277962 16.210516186454413 15.2378074161853
S 21.40990020668416 14.056562542498822 13.334484503724083
S 21.35868202358767 15.837270038351898 16.981247533740376
S 10.785686835402172 16.358802725254538 16.728315370939136
S 21.003329313599565 15.705069730359693 18.871136263360366
S 10.903469833603896 17.373432819639525 21.16797432507699
S 19.17559057397114 15.86188453481895 19.481569738537658
S 17.84960393171479 17.41118959595058 22.148857701873112
S 12.19311641226467 18.510454342553643 20.349293784999393
S 16.041247937689114 17.36001465632495 21.559308997876624
S 13.217357720053222 19.390911106534293 -0.3855097738254123
S 12.271410618304444 18.58513043250987 1.0559614184183113
