20
Energy = -81.08622159 eV
S 7.6605860969933754 7.249097437233189 3.950206553700286
S 7.8486002366136605 5.222020678126398 4.613909961954082
S 10.692832576944342 8.649089480585468 4.857095010544554
S 11.724893818283597 7.015290228940046 5.778150432054397
S 8.705998255304163 8.417535403800205 5.255479052128123
S 7.769458417701435 5.266064310492085 6.649809034751328
S 5.5657602515231925 9.049560879605927 7.3210659725421445
S 8.995566231643513 10.628231398444067 8.355403414877815
S 10.795649414325228 6.668004273142452 7.5587426168991225
S 4.418904338532583 7.486557331745274 8.053637869247444
S 9.714670640756477 4.9151822284240705 7.2893501323147225
S 7.75810117795769 12.166947564098754 8.962146610246231
S 4.791463667216334 7.087177203971059 10.024071058881523
S 10.376961849539388 10.228176945169603 9.845336729266283
S 4.8611507962917795 10.831487044552807 8.088854376377178
S 6.425745764197557 5.778743243916655 10.228742264941067
S 6.061418891800483 11.261090456649734 9.71686792674141
S 9.552759036231775 9.275088008219873 11.458124136793982
S 9.507856309646199 7.197713882553461 11.156231969949069
S 7.655075756815914 6.490395528647873 11.720228404107923
