20
Energy = -81.12253969 eV
S 8.374011054578036 9.819284772874381 5.02832170079642
S 9.985963313674269 9.573459690486922 12.356106139333837
S 8.608346065053874 7.798012726830795 4.406417699850867
S 7.348507875824927 9.744615594678303 9.381018941712135
S 6.366396192433456 10.212421172460182 5.0490411341640185
S 12.343778828030755 8.183031686481424 9.757260288975559
S 9.513573002191071 6.829674413423912 5.901792824047665
S 6.468122995889281 8.779418150265316 10.990389410678997
S 11.612504315785486 9.477976528368256 8.165141905081157
S 7.942820940583577 6.327037571702739 7.310987622937108
S 5.426857879331169 9.426751676929383 6.717806418145679
S 11.83043387394371 6.297506075241536 9.363199051200134
S 5.832226184151512 10.666976715682951 8.326214930909705
S 9.851589337933541 5.9187568952170775 10.07799320183079
S 10.368203512415981 11.965470329783697 10.089319255796605
S 12.004618418261352 11.2902834176004 8.964175621011359
S 8.905722289687478 4.993710112957639 8.496308617808237
S 10.752762478463438 11.505534357892802 12.048422472162756
S 6.644150580060465 10.131543332569382 12.526681684598934
S 8.369749594137742 9.608873510984354 13.593739811389154
