20
Energy = -79.36093918 eV
S 11.419796180429115 9.478908510928758 6.467957586221259
S 16.107353883957334 10.913546271280588 5.522831678263089
S 12.981114170078715 12.040586620598878 4.939144089476391
S 14.867244811206707 12.34099176789422 5.938618963483103
S 12.752097642974473 8.606156393110055 7.774967586987393
S 11.650164513393696 11.54170119751721 6.405308558663206
S 11.924000166499418 8.739727264845497 9.674770233979261
S 12.563662780264139 12.040722697671317 10.242023063825306
S 13.067153137189473 10.07273463005918 10.745778294762168
S 10.958402104399507 12.745276438194919 11.254351400628442
S 9.954326739600608 8.531553942185774 12.875526586477001
S 8.053289583269823 8.296596586749397 12.715902844992524
S 7.519383403521314 10.1401755607901 11.290898896610221
S 11.847802729287407 13.525881897250336 13.072442182037367
S 6.922311606097486 8.950973192810268 14.52951575521643
S 5.654464050026662 10.485918351611915 11.050107800233224
S 10.514034643348916 13.415846137711815 14.532043657919619
S 7.273527601251473 10.915087912225069 14.807704581150144
S 10.599996426708973 11.40517409062392 15.354201090890637
S 8.79988611068926 11.242452820135803 16.235917432378038
