21
Energy = -82.8127818 eV
S 9.760860203816332 5.655801563791872 5.506745555003917
S 12.086976556602592 9.893116753269727 6.85459605314742
S 8.890776705881084 9.77947225107822 7.402887319458098
S 10.168650476280924 12.605819246307133 5.820223351227721
S 11.661490920142592 4.884338234727646 5.982572395000415
S 10.509808301485476 10.208388507245214 5.814731663156253
S 8.608552176084432 4.694124124816157 6.833283143382402
S 11.482063663396442 5.813428153402732 7.862343131199489
S 7.188266786049048 10.602960198370937 6.963581070905159
S 7.438927396854981 12.802735081605883 7.6261395114417505
S 5.253052729345111 6.736842563855977 9.302966850015103
S 9.275732873943713 9.611468964013472 11.190643662341731
S 9.938930196091237 4.811635944217961 8.641272983805226
S 4.35981032647747 8.443966665583003 10.131375921846038
S 10.808825183723881 13.06038147057208 7.5824278082057335
S 8.893441478803869 12.840281247067365 8.892596451332212
S 6.799227607369805 6.444498208617211 10.545916139449899
S 9.676044393685935 7.829632811880743 11.826737853016278
S 3.954272768247041 7.304839975060711 11.8668011639983
S 7.599805602140808 10.399566034246847 11.733938102976186
S 5.809774814730473 6.924062637795837 12.502857686842948
