21
Energy = -82.33430371 eV
S 13.587093458012589 12.350390903522403 9.954691191525114
S 14.169627633062358 10.79274127571853 8.866451745048545
S 14.010132720026148 7.895405524082477 12.555996513448214
S 12.057783751171803 8.519985836226851 12.858654484221287
S 11.602754701197954 11.757406773775976 10.823592404013024
S 15.43901708976275 9.522389534136103 9.971829983376054
S 10.868676171939272 10.346707338812832 6.406590087277562
S 10.302720746098586 6.554598888825599 10.801743228004495
S 10.864806527613492 6.842437668553617 12.795005188315299
S 14.432215650647821 7.818114626723621 10.530011570946485
S 9.985590416866136 10.777188075312617 8.053269706682523
S 8.01202383658373 10.216873751156255 14.269659359897828
S 8.418951894833286 14.617564406977678 10.478399053914305
S 8.240938397473611 9.306183630166542 8.18794981715206
S 11.1164043666247 10.065351157516362 9.97243025913927
S 7.381604173706672 16.19739248852842 8.38814065911451
S 8.310262249342717 6.902870469665759 10.546001459586208
S 7.805730484098331 8.905700090435815 10.111826154866177
S 7.298540529506289 13.19805408199931 9.896766485926529
S 6.43100485180755 9.6901255483641 13.353832806329851
S 6.299294288918188 14.727100333031549 7.875306851563311
