22
Energy = -87.55152502 eV
S 14.442576425073934 8.513933944792008 9.044959397807899
S 13.29159306087537 8.418117902517027 6.96046231033029
S 13.938928841655365 7.083145378877617 10.216633072225367
S 10.700268515350034 7.725994200391946 11.852000733753556
S 14.14429288411469 9.795479852910518 5.926562595130631
S 9.075581012865426 6.934023907531448 10.627071588379945
S 10.911158421762048 11.467759428990437 13.131628727663708
S 11.316096274740472 9.157141666733425 7.744387523291717
S 9.857052380545817 8.34811852120414 13.551254781605806
S 10.074873352061216 6.252347782298201 9.027041471523567
S 11.164234920430363 11.737158298678557 11.086664326240719
S 7.13344383475211 10.368369232444122 9.74912151066266
S 9.20547737483812 10.358021335098103 13.356609293851575
S 10.578960245054686 13.662334609050198 10.62913367906283
S 10.012563726435033 7.66178055051072 7.433387107866224
S 7.9490601427421925 13.355930488035256 8.492621868394822
S 4.827622773001666 8.050793654689253 9.510991330010937
S 8.508955205721435 13.698872584687347 10.421479760518405
S 8.037674136714367 11.250274235252776 8.190355089363678
S 5.27524666013888 8.812264336357886 6.254156413574345
S 5.043732010588211 10.004867515218853 9.333134966556534
S 5.061710074751221 7.277389025964953 7.378343795018611
