22
Energy = -85.65887237 eV
S 16.728135277191907 11.825214248900066 11.096934437035051
S 14.851936651344127 11.567787488114904 10.73225476967383
S 13.357409103282158 7.609354808196115 11.40590052700728
S 13.098539503926037 14.416380230058337 11.37906156006187
S 11.683081594867131 7.759202311342572 12.330075959422215
S 11.759905056979413 6.446520900254826 7.108440051057211
S 13.67884108888429 12.784675492189024 12.232438514791204
S 10.562677560558837 7.783557469083973 7.810008277934758
S 10.209578008862119 6.45619333484558 11.07436677292644
S 10.857058962070548 9.950802918503259 11.92088283506278
S 9.245442986953648 8.409659084114693 6.156479827955009
S 9.872772266034469 12.882227279951923 9.584650465099351
S 9.375519281955688 11.67678392753008 6.478442891633083
S 8.779100650249072 13.107560240605105 7.696668550057235
S 8.48022603870734 6.342589413038281 11.897552474585575
S 10.200412915447643 10.582279173149253 13.620121477765638
S 8.848147302945698 14.117638015367467 10.773223447167057
S 8.138500708431971 9.890673770441259 6.881828542998119
S 7.780102005922473 10.327518315437088 13.198108479670708
S 7.0632465921415095 13.15303198081675 11.515519248739269
S 7.3117562654450685 12.626081884521444 13.396540667477842
S 7.774707894284067 9.923738443514122 11.342222988123467
