22
Energy = -88.51223657 eV
S 14.330994472814117 8.291000408591152 10.364310364375617
S 15.496327925886101 6.838616448328556 10.821148811996398
S 13.233959925455224 7.528299164543201 8.45444072219696
S 12.335194737839485 9.00238155065768 7.513605868562873
S 10.949427255969818 13.442926652267463 7.595689828903484
S 12.450997489361907 8.273848377357885 11.619737299469772
S 10.255819866955454 8.980694226078855 8.168514732942226
S 11.945748728267755 14.104156044316774 9.218197657893182
S 13.452275432901299 12.697672915894461 9.770801674045147
S 8.435792633476066 10.000418020017994 11.104579607722412
S 9.45695525813846 10.494518329814388 7.085471715335333
S 12.843639617053444 9.625053024435138 13.067863092089416
S 9.299210506105197 12.2552818618782 8.162548007335769
S 13.415548019414242 12.7217877438441 11.811040040570031
S 5.309522771930295 8.721991318304728 8.951034990318863
S 6.149508801900597 10.958657098623382 9.035269766569074
S 11.968482250434358 11.451987848938861 12.58270169610334
S 7.5769653508754455 7.76818902350384 11.035006828076252
S 7.170184624230558 10.892404994427489 12.249181565803207
S 4.337051071032746 8.59400697467747 10.604346944600415
S 5.485136428964274 11.592373100332134 10.723079448774852
S 6.017165945634409 7.89370252901324 12.150405059598352
