22
Energy = -86.45298345 eV
S 13.620585593318651 9.743517197830013 9.086560076280298
S 14.029980369046282 6.06162422742428 7.808105895380012
S 13.683547288822782 11.01014007954498 7.278822066198586
S 12.321433074393829 5.662095708927882 8.612618682694801
S 13.32255913335276 13.325653283429167 8.315643179160167
S 12.08471291047019 10.936536665257075 6.21787004114216
S 10.35551217603482 14.528208274679189 11.325708746078824
S 12.630817906384419 10.5722643915197 10.674703873363082
S 10.936594466789204 7.262429625193818 7.982435035448739
S 11.68196412713868 13.618984988008734 7.324235778721572
S 10.525761141268019 8.081388595488013 11.266793661423751
S 10.637479407760132 10.174842044839782 10.656078075581085
S 8.803966643064411 7.41219474858943 10.628831762675546
S 9.985428672498076 12.919104642941672 8.400360438049734
S 7.271177087779756 10.318436193732868 14.029223438824578
S 9.139435382802482 6.649051758666809 8.480631148041711
S 6.656564638818427 7.0995580036128265 13.666065216660268
S 9.449054504244671 14.568025161230313 9.609918215466717
S 5.006682898714626 9.66263464339835 11.651107626498334
S 6.704600981409585 11.885199163029705 12.907925423902457
S 6.584783948967527 10.798748061194566 11.115986635674123
S 5.656950647573498 8.732355972461146 13.689436392727805
