22
Energy = -86.0351884 eV
S 12.598391706960447 10.453848413686739 14.206675540816482
S 15.085011727715232 8.40010257224221 12.734509710298498
S 15.26522078943945 10.145875105622176 11.647469169541042
S 12.902245168385699 8.3701268559615 13.130919655552228
S 12.450519077330847 12.494760059018187 11.606692717260774
S 11.424722016503976 11.395448107528702 12.860564034667814
S 10.960603628456262 13.214335392577564 6.83424824605026
S 14.669570879168841 9.898194989967784 9.80439040269805
S 11.906277855613547 8.442765287258384 11.497314364107798
S 11.167707773316087 11.75001053860749 8.294912740367614
S 8.390524981995027 9.647896967157752 10.403360098632637
S 8.843211525539708 8.265627486087178 8.94195603637759
S 7.985439656274524 7.238777768675487 13.449775179584698
S 9.163519175863296 12.98054080977724 5.870539904143758
S 6.428550247838448 10.295784374402228 10.114621259735204
S 9.337322612644476 9.264562197396748 7.199864047975537
S 6.389468786549877 12.282028522197743 9.626421043654808
S 6.13703113237463 7.229664412678492 12.50305596513172
S 11.2919230082894 9.925980392831688 7.3561344366647266
S 7.695928879616763 6.084778942347965 11.748712598280981
S 7.6094049342692776 13.916285049100587 6.9108312567729175
S 6.213181820981195 12.560424426551835 7.543342309533834
