22
Energy = -87.70137185 eV
S 7.6496278193535145 14.181327252218447 10.495506227288935
S 8.35552847521544 12.89200848922181 12.294883655880174
S 12.747465682920748 13.826199098943498 7.42916108217161
S 8.865965668517017 13.806052696345173 9.069271820646831
S 13.47398839619475 12.652541102597954 9.207401625269092
S 9.778368709524095 11.837314041881323 11.474331303222304
S 7.163825132489435 10.222844027670348 9.920030853282634
S 9.401704205467253 9.962139989649728 7.430040345974433
S 8.87332605092788 9.897632121040816 10.83050829228187
S 7.591790380926546 10.73634985955146 7.822298270961547
S 13.283634606304728 10.799833788816533 8.48966326676388
S 9.375264059383074 6.528791603770138 7.650464479829516
S 8.360570773060417 5.399026399242753 13.669997461512214
S 13.995197892368891 11.0483413035341 6.519603679420493
S 10.42531895070197 6.958092610605195 11.485552512088834
S 12.356270853365862 12.319793465589147 6.1747836091180135
S 9.789633245397646 7.107347588754528 13.28592838830594
S 9.251834615900048 8.150173878403757 6.387520351091659
S 8.351917694579978 4.404149623074743 11.943919592981798
S 7.454106457737432 5.793188402173799 7.834169069533153
S 6.685459284548239 6.41963402240476 9.660762235207812
S 6.56518563267997 4.783345753812174 10.876925881908374
