22
Energy = -87.78407547 eV
S 9.988462007673556 12.31397512902581 11.605306272716055
S 11.865067350763756 12.250731731356128 12.070948568160174
S 11.971136671364617 10.77827955881866 7.772759118731175
S 8.861506402104112 11.114258970606611 13.255733822170955
S 5.4559482349902275 12.72354104587272 8.506870353863357
S 7.152509819525474 12.483870452383494 9.314073379400837
S 12.689993555696253 10.356316219141666 11.03456307066761
S 4.350438346925285 10.942026731159478 10.197285935168873
S 10.190981137670487 10.021520419641464 14.132552726380265
S 11.343233991385706 9.921087920509592 9.68525621754018
S 6.013437564130693 10.679561087614458 11.06385765253792
S 9.995627795347291 7.972273164229714 12.989696764060211
S 11.38424334895817 9.335593267659615 6.496389529422662
S 5.424157132264561 10.055914329315423 7.857777618362933
S 8.554068879476567 8.247585276905106 11.76604037515331
S 12.887294856741782 7.824931382536293 6.469597247863219
S 7.102560809024132 9.855194824143465 8.710096519365598
S 8.262854627721488 6.637732976437029 6.102845193492696
S 10.274752562598742 5.966454967884855 5.081474125253186
S 12.308464388489563 6.401478919025117 7.739770067175629
S 8.33265074926201 5.836199836364195 7.832872183040407
S 11.132366939532572 4.9550741292809315 6.497791710944502
