22
Energy = -87.80686829 eV
S 11.950468856450168 12.84882749283358 9.965891626940728
S 9.81627631428383 14.671713556533083 11.75839021101277
S 8.396054145699948 9.455693084200341 8.83787947959919
S 13.19004399473502 10.074282031469956 11.557291337109461
S 9.555465228674757 5.565494246991749 8.9509884377756
S 11.066633084860008 8.521941196636204 13.70879744429208
S 10.123951757843551 10.713412001028944 6.36850370500693
S 6.058011517137116 11.279068987877398 7.205676264042279
S 11.949242565204951 4.881685446103407 11.232660867557192
S 8.972174144874671 12.250843863995616 5.538492520535488
S 11.197503256579793 6.2171608312211974 9.753389863347309
S 10.960593400608385 5.295259004851849 13.01705638670322
S 13.668762107197377 10.7173135735906 13.385144643516659
S 8.79865374554755 13.413004789588822 10.740693946954163
S 12.056403119327284 9.876205100788999 14.713998639564482
S 8.993930045808412 9.07226298435981 6.913653320112908
S 12.0157730841892 14.278115278534864 11.352035380810968
S 8.568058865000056 13.53556436104443 7.039387878286001
S 6.4856052669103 13.206131462963953 7.618066288287356
S 6.353753466240205 9.94369859938656 8.754326817439335
S 11.458363517166074 11.039910822176104 10.894449489511585
S 12.026036098002885 6.592536063841665 14.1307314358926
