23
Energy = -91.99821139 eV
S 15.95489771555262 12.103077741073221 13.385001279467728
S 16.905864124948202 10.556588246652433 12.693963007866174
S 15.279833707297216 8.835627256690735 13.453371319305711
S 15.048324743049516 13.250306603850815 11.671063133852398
S 13.971904265679386 9.95965336997559 14.24895219255141
S 12.761670791995643 14.935372000727789 12.813582208719993
S 11.11427384772181 12.471798597801286 13.960123547699176
S 14.272633440780574 8.005309003573227 11.482844233454237
S 13.575555440713183 12.281988209793747 10.880544185907992
S 12.665038625815594 9.14024038845509 11.335082110708198
S 11.718457282044188 13.516144898161036 12.061114626562578
S 10.929811006789244 8.250796430918145 12.207675023535963
S 9.702252178004018 11.054292916870077 13.689936146641859
S 9.503891390052898 12.430032690144001 8.498578037199035
S 10.577481845659818 9.171786389414214 13.992536849958404
S 7.755811950603744 13.256970915483178 8.615801476374939
S 8.640139429958944 11.223091697884984 6.028225991373554
S 8.475767776633337 9.234529333260546 8.93391318920165
S 9.646241425891162 10.681407188608892 9.777376861693034
S 6.670883664108559 9.103973794645706 9.89952927542263
S 5.49055831044302 10.733757813231831 9.249623447457738
S 6.995944125355042 12.12001208843376 6.431242608335513
S 5.394225869442729 10.714377522067544 7.258966110958727
