23
Energy = -89.53732107 eV
S 9.62776680134329 13.046831244633433 13.244036846110403
S 11.322445390386337 12.386672149315428 12.603659008958035
S 11.617881028359882 13.219134989769003 10.509086017976438
S 8.373794009634588 13.138697887072942 9.723163177879467
S 13.632988002310503 10.520386948563186 8.064455106148728
S 13.461509662199514 8.725934414075827 8.750012359385217
S 12.568838035240764 8.919693775894341 10.722496996905768
S 9.160556333134753 9.648878643445412 11.852075229636428
S 7.942815130909884 10.75319688284413 13.092623266462768
S 10.018012071195084 14.359463427410732 10.258165550592883
S 12.42523665349496 6.99087428802241 11.468433251759537
S 8.15176605612692 9.96801915545656 7.183503036696205
S 9.108544643245262 11.741843478164892 6.6953163549575345
S 12.631579215283871 5.306943198355964 8.723459860886354
S 9.425919563507266 8.979688599272908 8.455069972096348
S 10.582929712385596 6.281733057604071 11.269934091202842
S 10.196996754255414 7.405767791655931 7.249470034534346
S 10.886844279212308 4.854915952857344 9.347690083582018
S 7.101516991243828 9.240482098100019 11.872858207672262
S 8.060400449304836 13.226077765823396 7.706855802743645
S 9.325623120187798 5.7425315815047595 7.903840203517144
S 4.3923533616426 9.433191918784614 8.01971884389617
S 4.246372384795429 10.54296123621509 9.558683680639625
