23
Energy = -89.95040664 eV
S 5.909040948012206 10.134722255502844 11.424150412005439
S 6.069684185997247 7.960149336209026 10.886164655880803
S 7.765198186356674 11.019071074852498 6.951087265505711
S 7.0298931166309755 10.309514991437327 13.085076149967788
S 7.284251991582338 7.109846522164381 12.100081325279891
S 8.909961428663545 11.345143474541889 8.667407947606128
S 11.055480453807993 7.766938601074706 8.799891016988198
S 9.98517668817628 9.111453084120411 12.450647724650317
S 11.051093817128809 6.061809641792979 9.73279573677174
S 14.030532665981216 6.192526290253775 8.474585555363374
S 11.617714496498749 6.496228566791303 11.867572646850236
S 7.667069501138955 6.859034228914277 4.779012268384034
S 13.2052541847002 7.814979152729625 7.900278015267076
S 11.906661969027523 10.1055914209499 12.147316038502224
S 9.993566460831818 9.297148133346147 5.120149416396778
S 12.937471944061869 7.9378091325629 11.853363822764845
S 9.048981260866663 11.10229930573556 5.332158611571728
S 11.995947936284598 11.17247531320056 10.553151196919702
S 8.730048789144469 8.154723608092691 3.8091308999831974
S 8.922335420315207 10.94964809799581 12.622234363673357
S 9.066496594985212 13.338725109792408 8.997053728903325
S 7.6928171683222875 15.38744542067089 11.225942707168562
S 7.3585997504960465 13.736604311477555 10.289746643112101
