23
Energy = -91.05491121 eV
S 8.046937784884593 13.459578447817464 7.207373085036071
S 10.349347793236861 13.383801911211805 6.86332168539508
S 10.623294777782686 11.429583904815816 6.730685006731748
S 7.42212156864469 11.66214790776237 7.123742466630545
S 10.363253381133541 14.012622928866902 10.756270687695705
S 8.239986979542538 7.140856851530938 11.91541171419373
S 9.835362364785995 10.839834320252635 9.9482790079987
S 10.552686903212198 11.941663173214286 11.461947401071313
S 11.364734568424895 10.614028604375509 8.533296752204457
S 13.366927495274421 15.497774800650848 8.29490309425232
S 8.305494996229998 8.779463180084468 13.038922712235353
S 10.093237718682008 6.127102577488983 11.971856479568594
S 11.187091657554129 15.110684909502977 12.140038219323548
S 13.575314924949097 13.93521786474076 10.05876478761253
S 13.232376109142958 17.16917603858853 9.207363334336206
S 13.470462998444031 15.079466219521624 11.602411066999535
S 11.820582020456818 8.840632739113323 14.17932606269566
S 11.258620725659107 6.722819177903668 10.412600443705733
S 8.166126045002914 6.063083954457082 15.05037783218238
S 12.582509145701458 8.25500061350049 11.047461002620569
S 7.9998129638241515 7.968646528534514 15.134393241155667
S 14.07067769028021 7.4324928274846025 12.076132220788775
S 13.41073810036733 7.780217015024382 14.228560299678428
