23
Energy = -90.01950817 eV
S 6.76541562094522 8.694869023654071 10.503554382963033
S 7.1924277799523635 5.011693702104604 12.006439877182338
S 9.051693034741547 14.15996332668752 10.338554557342906
S 6.976972401892614 7.999490210602164 8.624680622134395
S 9.542121273122321 5.577506848185676 9.720766290394193
S 7.558399321128188 12.67996125012561 10.505962836305534
S 11.299889693342125 8.969975321414651 7.310100614083312
S 10.184961428827458 9.077201951990297 15.658284475598242
S 7.625217416561732 4.784925033730627 10.147444117577194
S 8.591793501694758 9.541007133322415 11.184003432070073
S 9.97096872465918 10.409723404097885 6.3557844974074476
S 9.920386620479317 5.4641008474181 7.8369492502030855
S 11.803309582794826 8.992442755616665 14.619496007934156
S 7.962148979015771 11.316811178960021 11.99527592341977
S 9.207952691006863 10.737544412283835 15.701651732690049
S 8.323753660498035 9.331105215865339 5.883745761516974
S 6.772455220341482 9.581091567542948 7.224367559283496
S 11.77063918714691 13.276289737262259 11.998564542614611
S 12.738221286448734 10.13122943868873 8.040393489651342
S 10.372203967175915 13.69038968468301 8.927786286614705
S 14.11517058943601 10.488604156176338 6.341407770692665
S 12.184375707039022 13.039912620394855 10.147385016324376
S 14.679082511967987 12.334229731383296 6.381155153603402
