23
Energy = -91.21022942 eV
S 16.578114966748082 14.155092831069023 12.864440284963612
S 16.60004639903194 11.52493643492664 14.69589412218008
S 17.405402961242643 10.925398569785505 13.084367943987388
S 14.355869310885048 12.08112020653056 8.302212565359984
S 14.199747721314678 9.954814145233867 13.216026670694353
S 13.346514684475075 13.24683762928511 13.43422240886386
S 17.492607240256106 12.855684277092791 11.701647226350474
S 15.708628448142516 9.679835854638796 11.981563567728841
S 12.918619615260488 11.485392348730102 12.478846286923746
S 11.775321384647247 13.745632951729625 9.521726272563615
S 14.558288815514201 14.394025500865634 12.250045648323468
S 12.535523138941224 12.677493575911896 8.09684186889873
S 8.579763913119091 12.640267556386048 10.12316264082661
S 5.355449853103498 10.415004159031941 12.6437432663537
S 8.809586208512073 13.12074819504177 11.95176437416563
S 10.413193449048428 10.289704537870291 7.695896435491063
S 9.10400850887159 10.187378076389809 9.103275373485031
S 5.6546126032830095 12.289683570902998 11.727513326230818
S 9.800782919520865 9.47229739168767 12.55114653531038
S 10.063311685461969 8.87371276628915 10.65745746736905
S 6.355124694338651 12.057387201472713 9.88139222521224
S 6.843450632181103 10.034717500644184 14.018919295684459
S 8.091197780897266 8.544923363032032 13.366814747941183
