23
Energy = -89.9271904 eV
S 11.04784322484964 14.618006968691232 13.626679896670414
S 16.27278092262837 9.336908380134055 6.918720247915012
S 11.53575268860309 14.170861051833619 11.53642814248787
S 16.262538030748395 12.195949929898267 8.59708526420881
S 15.325235405216102 10.840490443492635 7.63027406835085
S 10.485949294665772 12.748745977885937 10.781660030117205
S 13.689454152972294 12.442841707145842 11.851375103711982
S 11.027478390493442 12.859713541587823 14.64016183550225
S 9.113778324715572 12.420749106957814 15.276111286146905
S 13.429158489011352 10.972440259867497 7.393687427221932
S 12.613959341433768 11.069093691213672 11.05298421834621
S 11.977478739196279 9.647887110685309 12.62430510786449
S 5.941119716720146 14.092991987228123 10.7768149447857
S 7.015998427645309 12.550412749680232 11.207785492666739
S 8.156165574329027 11.034423156705111 14.025315276924413
S 7.8697286907295165 9.43552533291458 8.053070572727716
S 11.512668253479404 7.586297405663422 8.68753780784997
S 10.517692151220672 8.611396530989444 11.71644978603385
S 6.5130899969231 11.912578393910959 13.236594973230902
S 7.191740879185741 8.40291219294351 9.505872267781436
S 11.446549021073812 7.039814586918791 10.586926967377847
S 9.560525725062954 6.752377172429256 7.818994133611713
S 8.423163905082745 6.364855611718433 9.326624652128997
