23
Energy = -90.37553028 eV
S 15.062030187902403 10.092645688529146 12.153318337420021
S 7.8356564244571825 10.986426329260963 9.068503652908841
S 10.182713859791017 9.077631970411497 15.52031202105618
S 14.666746564989092 9.067044677792994 8.940622326129096
S 15.305793777316225 12.999509664807196 7.275091460627759
S 11.16854760368034 11.465146944332128 11.401327323155375
S 15.305090191899096 13.427458629586893 9.155919114209121
S 12.14904350250761 9.439130044546863 15.125496047600858
S 5.276205389854629 12.200241847104268 10.735409152990531
S 16.139197526565468 9.531218674249073 10.609184070283364
S 5.061011778175698 13.681155663336934 9.45716887782724
S 7.724796249595291 12.414784085073643 7.721452522772269
S 5.861220993390958 10.482000345867272 9.64944807218017
S 12.154646482568719 11.222565574309119 9.761489118175943
S 13.620100297748435 12.967884807042585 6.341254421757242
S 9.084530549003182 7.58163705743962 12.687381351855537
S 14.614442549449228 8.32921806381065 13.393959829579464
S 12.90311258269514 9.125044542372367 9.799071605413879
S 8.111462330416664 13.421442527777485 10.947536410583993
S 8.45397490417022 9.390367850845546 12.64891212149435
S 12.63553936430439 8.126460261456364 13.46569366210251
S 9.025500622397038 10.41965504791421 14.55189080687989
S 7.4582674476621555 14.234021957341833 9.365035992742209
