23
Energy = -90.66868077 eV
S 12.519091008830577 7.361584232853887 7.418010084695304
S 10.72077888037388 12.587850896218473 8.244124912596611
S 14.458097634128116 6.813509103150682 10.190969897767813
S 12.905137406526192 7.797454077547774 9.641617372519734
S 10.093689832117718 10.740488518345956 7.509317260910444
S 11.82320443371398 12.252631578294942 9.935874459692467
S 12.992862224984293 9.132963181112807 6.6095228016251895
S 11.178720440161737 6.697435059725107 10.599764609137772
S 9.89441187614737 13.328723237941677 12.51646212768118
S 7.904601622676947 13.908540023832765 11.569024908361646
S 11.257473059843724 10.121175543753399 5.94774317433101
S 6.208381085578565 11.841326409760574 13.35478597416662
S 10.501562930121791 11.731628528988615 11.510758829632037
S 5.51827775132718 11.558704028758054 7.177669548169452
S 8.415276457414388 8.189922456301604 9.452168161100664
S 7.458246398894329 12.52187252718323 10.300044313442127
S 6.026149857700704 9.752297098796905 6.867908050243263
S 7.305997237175765 4.722712054888179 7.686208163589742
S 6.277000195533765 10.98602207882507 11.651382361994212
S 9.808701552833481 8.117089616433647 11.006110112337895
S 6.811649472593334 7.007914766023464 10.027655417556561
S 8.98143272549826 3.9253399494819985 7.151029855977937
S 7.3325047494067155 5.0512740096078375 9.821268732590552
