23
Energy = -90.83838236 eV
S 16.553205178836066 11.08573443961781 14.445458691636471
S 15.583351449171795 12.317581512206479 13.187588164965025
S 15.108855199444847 9.923322331071672 15.656675361462238
S 15.265807016010397 11.448900203517617 11.356856682057922
S 12.12787115095491 14.048754617082949 13.739470599647978
S 13.308011376177783 10.186354045889193 14.838223678644164
S 12.638066718464644 13.479958180231572 15.628086791907837
S 10.001557481101289 14.382996089538462 13.79444986915053
S 13.106285514878383 11.068907237341337 11.307754064229867
S 12.788827631710864 8.057554273597413 9.872906567149311
S 12.878369641129023 7.861832057653095 11.772202619168898
S 12.77762257488649 10.374321967082864 9.51555821357164
S 12.122945192524249 11.509835902295627 15.963607011800763
S 9.147409235095576 13.315092585031138 12.422694609979217
S 8.575670385875265 10.454907585966161 9.897008239856325
S 8.690670970096237 8.806301010727086 8.887103351388353
S 9.070519155296441 12.267849669153348 8.726571982395177
S 5.54846062332679 9.997587611139403 8.765064227178485
S 9.3853429544392 11.895747912617132 6.689050380561998
S 6.547112478831809 8.546482786393797 7.98281256334176
S 10.724479690646104 10.596609166655858 6.201172093998708
S 5.842846325450712 11.713803741734964 7.180745205578538
S 7.195067246560769 10.988824071987178 6.012296923069517
