24
Energy = -94.34151251 eV
S 15.789542254556109 10.821416368781986 9.600014236576243
S 14.603216588958217 11.100806608446842 7.861710961919101
S 13.517229501741841 15.397518401009703 9.749512799299467
S 14.09467230294184 14.375299249391967 8.215828945230351
S 13.152282506923234 12.419283943504608 8.295524276776638
S 10.582855288680209 10.250335071340933 7.1533356692090475
S 14.583350879300207 10.274647617795754 11.116820243907908
S 7.509542886854435 11.424209890583334 7.012714676003363
S 12.333740485537485 7.843761544306517 10.567985121664
S 6.774451712720722 12.171140468903763 8.911120408720231
S 10.962879359495759 12.0562545969312 11.58753279985512
S 9.430789922515615 8.732784804867558 7.309131972857962
S 14.220707844024997 8.154931489516535 10.867895299447195
S 7.867654444300618 11.600213503270728 10.481425397233956
S 9.458749317477306 13.045325021148134 10.667654358954032
S 8.566997530295762 6.5587531590571055 10.621283906304804
S 7.299404609725701 9.457611986911648 6.968878083453042
S 10.870086837032106 12.440914012325418 13.627156372304738
S 10.200390897942942 10.705708239497358 14.667810493664284
S 8.268019432508561 8.224487017313418 12.084449881941916
S 6.942175739724984 5.448119085646839 10.999000333662812
S 5.486975746771598 6.954739402245959 11.244629027074364
S 8.295859569401465 10.36115092494693 14.470346435987816
S 6.5380692651987395 7.625330686322861 12.923565094158338
