24
Energy = -94.94302489 eV
S 13.327876577943313 10.076516791817712 6.607261323572949
S 12.13431718360049 7.193998548490964 5.892364578400458
S 13.888479740720422 9.03838955261168 8.182130162988026
S 10.005164874687361 10.291640839828874 5.972988809509893
S 11.605462186014316 11.21154621692146 7.041964527252844
S 12.78177219747395 6.941314738530941 7.678204176317419
S 12.495748664590943 13.264381266257404 10.407907898601524
S 11.02877832687244 7.376088827141165 9.038386403482562
S 8.062949530178244 12.774544418382158 8.81237862743283
S 8.526053026986924 9.8817215639747 7.1605408829104595
S 11.913861701041169 7.697861111235859 10.790995300937599
S 10.880055984398968 12.983624117068375 11.425972772011272
S 8.039601942134071 14.787702643774553 9.805010011716607
S 6.151768990855171 14.832450841210598 10.474468650710019
S 10.887896916167703 10.823665616425377 11.811395530352659
S 6.1703725743696864 12.210570819421033 9.158807046330415
S 8.16407736164537 6.460381709784558 11.693005845711731
S 11.635454742900876 5.94350151940848 12.049998101060831
S 8.10416741550996 8.509635101188435 10.755644542384378
S 5.917373553866854 12.8509197530677 11.142487798688332
S 9.511688497635287 10.376584325038422 13.176135438068727
S 8.64988484820739 6.650929068286823 13.569957224649952
S 7.657479295128128 9.810581217059966 12.173258528534033
S 10.912460502200217 6.706815927634967 13.718409682714427
