24
Energy = -93.71905858 eV
S 15.637129692914584 9.277949022292054 17.60296738474348
S 13.871789062890464 13.004414400615724 16.06020671343096
S 14.318852078880553 9.651542283810125 16.245812284693496
S 13.06803584645584 11.419189402110652 16.830537897118347
S 14.364694100058182 10.202131681905938 12.505752767573998
S 13.54029766424363 11.401906054916894 8.338688326893877
S 12.853529897380268 9.637377721150688 11.130996249998688
S 9.04862434284195 14.343713066820843 14.27475814977855
S 8.599536439958149 16.088099893186477 13.658935762495602
S 12.714771950828979 12.814009350945682 13.844230642569295
S 14.544399527720188 12.17146335385808 12.513044328353358
S 13.62170932888837 9.49162812330651 9.250553891676857
S 11.71636116069533 11.22494848785856 14.159138646946236
S 8.521840067033747 15.03211289702901 9.489923770298521
S 10.028345422968048 15.830171724937562 8.609438713000428
S 10.312586541735106 7.277268821093261 9.579239954719473
S 11.635322624863493 11.937333726791136 7.989697989797627
S 9.379979717349611 12.984812728672697 10.330698031576887
S 9.619423198308048 6.268281893762496 11.02638673437542
S 11.261096128479556 13.074938077070742 9.853356612774448
S 9.634208251697162 15.068265224579543 6.358875625703947
S 8.029467099880938 4.848136811521528 9.19979934114893
S 7.979083097858129 14.144576773985827 6.557088571023229
S 8.793501436225231 5.868760600603963 7.79768778445468
