24
Energy = -94.27045584 eV
S 10.732374577550157 12.311585470190925 6.31041244450731
S 4.644168149421166 10.374943594575607 8.245950457637466
S 11.641485215433525 13.32908564591301 15.317667667642999
S 11.399243575993422 11.48062874623821 15.706416853460178
S 7.061499926023976 8.257016322920263 7.766276645184159
S 5.164017138351311 9.204209823094372 9.7754631230688
S 12.62697488162439 7.242680591847636 8.863511959644052
S 12.557037203763823 11.115412408714167 6.888247821750307
S 10.970404322010317 8.479075172163562 13.07013436154963
S 11.122869221505368 5.5275551655080735 11.439127876348328
S 7.268571677052768 9.234859468550814 9.619342407029139
S 9.737268413787323 7.314452049897052 12.199740897949143
S 10.788750116109957 14.547062783753656 9.01750242282396
S 13.32767216187237 13.858087805446411 14.046751827849919
S 6.0970313745889415 9.639125007836608 6.6933347167482875
S 12.298672489364106 10.611024296597527 8.797633647266872
S 10.444931565396715 12.35826163752094 11.559633828019415
S 13.865254023939215 7.273557114735563 10.406523831243252
S 9.27092559003904 11.86573116223846 7.508734690532555
S 12.845455043090048 6.104412606199951 12.086371128734228
S 11.238772661172513 8.827961083109258 8.991623196028817
S 13.451858619139557 14.253903155980657 16.102423644267912
S 9.09758880354465 13.627702981945056 9.024335886881332
S 11.81849228607281 13.518709884539364 10.922120688864574
