24
Energy = -95.49273842 eV
S 13.087006806393633 8.996234116149123 8.129311356084786
S 14.618009707456235 11.30431687260922 12.567311193619533
S 14.572374458927868 8.297155404319652 11.18548594639716
S 13.67290078458462 9.46504818069684 12.643229055233656
S 13.156787537312459 7.775081456478597 9.763092320251268
S 11.590468335079455 10.459781864155973 8.486166701195772
S 13.806180157307688 12.657551481785537 11.249506734747575
S 12.734467791068624 14.067843239553966 12.382205959677364
S 10.130111045325311 9.54302526986877 11.214000922615798
S 10.881543429910803 14.482031700346427 11.629816573152963
S 9.973378174471849 9.408490830673097 9.118161257583164
S 9.787996004812317 13.574188213901778 6.978775388116904
S 10.557458685568387 6.63862418793991 14.14949512721943
S 9.041667975098779 15.364344187387935 6.102177850313077
S 10.384058203949746 4.762297459862231 13.210274517606253
S 8.150724604165955 15.046914743550976 4.419000431160696
S 9.523974081449458 5.74826229875762 11.561498483920204
S 8.12229113727511 12.270352462758284 7.136014114573138
S 8.404840186308805 10.406168556732865 11.885046549154367
S 8.63730625422343 7.153656357975352 14.355829897737538
S 9.321966243525095 13.617053523831482 12.71221740593985
S 7.841808385673437 6.459062386301322 12.369695374488039
S 6.722148687021385 12.965183348869532 8.281810727651424
S 8.276444295862298 12.417305868859266 11.399041827345233
