24
Energy = -95.46101421 eV
S 14.482708655850367 10.636793086171838 9.153775008769053
S 13.907594744998297 9.209789245100861 6.900310341846812
S 14.374732269544335 7.920680151255417 9.237261220385035
S 8.95785658694119 11.75808016231198 13.854069577435798
S 9.994521563582593 12.95518091563627 12.506894739180272
S 12.634670490684682 10.725463601581739 9.556210319273056
S 10.736342740876262 11.083987965317625 13.017714802152033
S 12.533409441044862 8.003185936234152 9.664430853517302
S 12.064226329836906 9.314191055943784 7.311675133508387
S 8.11344620257679 11.579949059356325 7.609935272404593
S 7.544349945706398 9.43471456772478 10.615505787713076
S 7.385989068813434 7.312759776733975 13.271348884104652
S 9.003920144881276 8.30228827046454 9.681034445525981
S 5.64086750761351 12.486774333416745 6.8385413847812755
S 8.854990536830798 12.31413782144519 6.03123921200789
S 6.424020930058693 13.241858462620508 5.289634874276188
S 8.790895360398652 5.887813617011417 12.64018665268038
S 6.393984138195216 8.040923117118286 11.639360401754525
S 8.333853936875727 4.417168564719739 9.63656049544113
S 7.244179396613769 10.722151427033065 4.526278932339507
S 8.306272961903037 7.353433265640773 8.000197394345713
S 6.470515571983179 10.024718789572036 6.10622115124816
S 7.140305282432263 5.725252002345492 8.583114903702326
S 7.770688280695617 4.41061974059688 11.633747246349019
