24
Energy = -95.40380517 eV
S 11.950301702862047 9.949053615998746 14.62646921321651
S 11.709182008542868 14.175843306246344 14.106459742897005
S 11.684388754140222 13.25349809555523 15.919008875203934
S 10.80315360665717 11.225893791909904 15.475791785223251
S 13.215665620885083 6.04359064280766 7.521545626977543
S 11.445451647239585 9.303262524310206 9.797018965584206
S 11.857706387322516 12.552385217596656 10.771858765279308
S 9.643462639459688 14.013319124940692 13.79708475175435
S 9.562409214983097 12.02329393133568 13.644100683552011
S 12.752381841185672 10.881393109202751 9.941986064789248
S 10.471677732035133 5.681689038747376 11.013349988656858
S 11.869126411906317 4.551756653903504 8.111486866344233
S 9.383461381789049 14.128966569150325 9.053595257675866
S 11.432283113706168 13.945225543150194 9.303760379929656
S 10.181964281680376 5.340573461192107 8.881282054799073
S 10.57608564625684 9.348658928859283 7.9019938574632835
S 8.924916608995344 6.684541292787133 11.580745242031234
S 7.499705945516145 10.52806815377851 10.716573589465483
S 12.251759089256527 7.047678970594947 5.9903948268745015
S 5.959936312980537 11.646175772155445 7.90962100365665
S 12.1107449730576 9.024631241104858 6.567493977370713
S 8.77773133224521 13.309625002533453 7.273387329314767
S 7.902411030093885 11.402066818284291 7.514044089561852
S 5.830259846923633 11.251365090510351 10.12582261873561
