24
Energy = -94.15948246 eV
S 8.942978113945838 13.70385627898356 10.303531106492313
S 12.597030422596308 9.750620612908692 7.206257694863479
S 7.215060818968467 13.599095867100942 7.391006420461655
S 13.46620816396983 9.23544505109529 9.354741115621112
S 6.974859947982531 13.773655588351529 10.658910495435071
S 12.305041676837048 7.695600583709973 6.281907981831763
S 6.175930201271092 11.89300170687116 10.420941280962788
S 14.27237598923003 7.450785831191495 9.554616885838817
S 9.012475628883006 13.747535076480348 8.031948862184416
S 7.79024818337527 9.194737773915227 8.345012928898043
S 11.00062376159527 10.743537451960819 7.576474584897003
S 7.526004402409287 7.4791350404762795 7.561890750279245
S 10.71563431392866 12.009412826792436 12.897301406988163
S 8.18817425703196 5.966003728493942 9.33548415491736
S 5.321717265863459 9.370828198194587 12.334928045715287
S 9.117176201569036 6.684504130267202 6.126082642765309
S 12.282214039807895 11.096196252995504 12.240499208763028
S 10.8851815565393 6.521815581447279 7.110383305818228
S 6.231699007431225 11.066809684135507 12.428587508835088
S 9.343031341392432 10.962170295202787 13.77118217120544
S 8.415102334617652 7.282843068030761 10.77475667899558
S 10.306201346010626 8.229235031180512 10.65728558870707
S 12.716330980364681 6.0683781392633405 10.120106482954114
S 11.704070422654745 7.034131477555926 11.600804740124516
