25
Energy = -97.97419908 eV
S 11.419497631697832 11.672922627861457 8.321974063616723
S 9.559884571854354 11.871574661751787 8.745225370647864
S 13.271472534321399 8.155307747428933 7.838090476434334
S 11.206808596969292 8.457176570629136 7.974577493786017
S 9.619069912033414 13.78197684940355 10.274423156679742
S 11.54449820095127 14.114282994935754 10.169529773554299
S 11.96397244792341 6.408430250294543 7.9603467143498285
S 12.527509199217922 12.82541674908381 11.550427262922044
S 15.895131262982 7.115935813087609 9.74620809064387
S 14.019950113001956 9.326138803948835 11.382407004881218
S 10.798835073227584 13.354935027833701 14.327516820505437
S 14.845059988844987 7.31564673817833 11.352687722891321
S 10.788945283167472 8.533367832087524 12.143294081938958
S 11.928671073139366 5.475826491194614 9.623986616989843
S 8.70219201641168 10.335209781624808 10.176967289613449
S 9.559946703189112 10.233974687652712 11.985515987887851
S 12.627904427493739 9.16828460910952 12.859027741421945
S 12.621525667389488 13.741929960106052 13.368910446329577
S 13.299012419795014 17.504052044224476 13.13802533295681
S 9.68931053908517 15.059035879805768 14.217386151633207
S 12.821081008222178 15.02192631206864 16.996476688568276
S 9.952223918263785 16.114201531956933 16.042534183995436
S 14.425528580581217 17.136872160947814 14.637521284235707
S 13.107103321222434 16.88827325044755 16.68532963768012
S 11.115392602338959 17.697827717660648 15.79213769916161
