25
Energy = -98.71654126 eV
S 10.740473525639539 12.047680746109824 5.176198514228406
S 12.611506293493532 10.782210143951467 5.707827130783976
S 8.612447321236539 9.844596040296734 5.997398442975264
S 10.077742027144417 12.765818903098173 6.835746467650273
S 13.077250443656833 11.207288654749979 7.55844738146717
S 8.51036879796354 11.079496997388198 7.446954023876386
S 13.550557088399021 14.715605160259619 7.4173063583028185
S 11.973433004738014 9.745249041383781 8.75953343249026
S 14.133927506110098 14.849940698046199 9.249073100666527
S 10.965014922425778 13.735676838093978 10.806903705968802
S 11.790713456966296 10.560665044852113 10.582276543080878
S 10.12749736659689 11.875899355827706 10.621838780763445
S 15.427317727916277 13.573439738131793 9.89174540944739
S 9.565716678467465 9.360512086515222 13.237052413009609
S 10.918264492054206 14.249327058413643 12.820923599082654
S 7.971049318905419 9.808393142950967 14.799756858931907
S 10.425338874109514 7.567377688787557 13.374151661304282
S 7.494067663141822 11.607303218523633 14.325168085464199
S 12.625845625164144 13.71824352747455 13.810458826622657
S 13.39430623986758 9.069272667038641 13.54904990913679
S 12.205675618975315 7.6983701970973835 14.51193235806639
S 12.164925379775656 12.031598890721218 14.998002232346728
S 9.347164498567116 9.911701629748508 16.71360860712402
S 9.286420437726495 8.20680274174389 17.593331853354133
S 13.668489979291545 10.6530440771276 14.880828592188081
