25
Energy = -101.51596148 eV
S 9.022507652279552 7.002959315762454 4.751029892973656
S 11.812815031291718 8.905685205962188 4.906623116867452
S 9.518492084411188 5.165251948656811 5.5850363403569485
S 4.8419594883378085 9.401531011182106 6.736200737301251
S 13.23292103796974 8.02245660072941 6.082965694846574
S 9.92783747518792 8.573700458354153 5.717426676215836
S 6.8919458489729255 12.049861240750733 7.141400841000671
S 5.2431357855455145 11.112016496340852 7.915886497465406
S 6.473762258982729 8.224302445901651 6.74872407938968
S 13.925017023785463 9.493111763932879 7.433854334084634
S 9.006950269432016 5.094089028427558 7.573090293121524
S 8.56732475713396 11.446807222220675 8.19655039072997
S 6.925176235602923 5.122680917418654 7.777627112350193
S 12.066412605633463 9.74967412378956 10.376727210342223
S 6.499011309755737 6.972353139811807 8.49538009031953
S 13.771027641193445 8.882820342963452 9.353073826590123
S 8.667648910605507 12.702379192818174 9.84859538303673
S 5.662127298869098 9.609614867233958 11.041188078430197
S 9.632187678108117 7.423551291028815 10.66866795092396
S 8.215236761200357 11.607140233449922 11.528839783975254
S 5.718298198605332 8.320467514282287 12.678003700720648
S 6.148557683618173 11.482009238854053 11.747399381360964
S 11.394855138122422 8.313083840865058 11.584022382074332
S 8.695867170068032 6.6694575172813195 12.294141130442853
S 7.654449478369073 8.16851986506332 13.333069898162229
