25
Energy = -101.56099341 eV
S 6.233603032624053 10.811720369936964 5.271062752863029
S 9.571270065200919 11.09313422881769 4.636121508107129
S 7.602928807414317 5.656405623757901 6.422154496570262
S 7.912815815443981 11.997316435433165 5.461645146104559
S 6.0735013009284335 9.490465180910286 6.8603845500901235
S 10.72366069305121 5.258784512219022 7.580968943599512
S 9.024826017983195 6.596587733691476 7.489121733439338
S 10.100024231776326 13.067489299012989 9.52098602660439
S 10.494859525701317 9.897030744171081 6.055264660777215
S 10.762628714624052 11.144793005773407 9.133638325424107
S 11.708474229545402 11.019062208636383 7.2943893105281745
S 6.328068925964501 4.543879808710434 7.667252255349384
S 5.071640281625101 5.926020560925881 8.551155100750245
S 12.196286888172644 6.594941422313828 8.064054005344488
S 5.524625237842692 6.015260447201321 10.573199265226956
S 5.054412245709813 10.347936574911529 8.44300967401972
S 12.693087333245463 6.496481403021952 10.040016313536976
S 8.192547666940996 13.35076795337821 8.7835002542567
S 8.783298061700945 5.81914932406467 10.847560981456002
S 6.7765203117095245 12.744051418158017 10.15426425675089
S 7.1591347656265185 7.211851950274689 10.847339653655338
S 6.425121452664206 10.713860897786882 9.948537493448738
S 11.372000581556678 7.865768151055227 11.104379838804084
S 9.44484577966672 5.558087832952625 12.690132255475154
S 11.097890080422047 7.107224960026234 12.887933244959012
