25
Energy = -101.61578022 eV
S 9.5609747327797 11.272694567290504 3.9056889993877792
S 9.32106818367717 8.067814139970224 5.024085845203407
S 10.606140312586087 9.645351531198449 4.589361812927363
S 6.800541314993212 12.178498933542038 5.441645942601222
S 6.143553919136362 10.379070072510094 6.269720045650817
S 8.842300261309553 12.317039484706937 5.566653373830536
S 8.96774446459615 8.251532240937433 7.054654453975438
S 12.233724049018777 8.229806484065053 7.74917685143801
S 12.019864239491287 10.230258106533219 8.10684837807392
S 10.423884861597529 7.224942863760316 8.083507115226736
S 5.176346927205498 10.717014821512636 8.053721766560821
S 6.43306129321851 10.475513677538492 9.682802177677807
S 8.683309740037153 12.977161914093488 9.664615344758884
S 12.508082366648791 10.693758113344083 10.068440590419181
S 6.845375174295955 12.367897152952695 10.398083107874779
S 11.768261004300618 6.176728871429624 12.348584174182141
S 10.063236540696288 12.715623652590882 11.17997979860536
S 8.8632892297036 7.6985937756247385 12.102625882809821
S 10.772165702136 10.77662035490792 11.18310450614589
S 9.732451612368251 6.027843560999311 12.810755419542508
S 12.881990203832537 6.867997081192369 13.945241732489716
S 12.847220225736653 8.91369989763197 13.78078163632293
S 8.47684267121417 9.00501376448076 13.824237540695647
S 9.819400300537234 8.504297637732687 15.23999881722366
S 11.55544064403457 9.631497274606462 15.271954661528042
