25
Energy = -101.52404016 eV
S 8.552694366568005 9.575614460241562 6.2779227398325155
S 6.666784560449232 8.844815458013901 6.776223537389192
S 13.313877985345892 10.109317825571049 6.117181491361716
S 12.294658037930253 13.545276627908475 8.145274165937758
S 5.753763224010205 10.451146529555807 7.668766456731758
S 11.1546913525447 7.645096526802155 6.765168713979845
S 12.992710809719425 8.290193105573255 7.232472047390781
S 9.797494606940251 8.927107296893423 7.784637858323232
S 14.565942933057071 11.233332490075291 7.235986629909546
S 13.633365845056442 12.15839249493342 8.870693569414518
S 10.465094585382971 12.600199219281912 8.37084056941018
S 6.537072223069791 10.5389051882367 9.61390224349343
S 7.847207337475633 6.488776337391013 10.066714452844119
S 9.435696768923911 13.510591422360598 9.921707540391356
S 9.386238740252601 5.383133968322136 10.87167366641929
S 5.052352551899429 10.510505551485823 11.022297622974992
S 6.138310826870606 5.972724045008257 11.130428961553502
S 11.856621150158798 9.125574655233713 10.949571841663877
S 12.063029168003142 7.242150469275646 11.750598484060715
S 10.325317949735515 13.241523627051214 11.753851074234362
S 9.956220304501542 11.3656688592631 12.588023184538287
S 10.279248822572013 6.441012486025165 12.415176550734113
S 4.265835271311462 8.63679082451496 11.401339042596323
S 11.782608469283762 10.435481726426154 12.578671019957616
S 5.635119981845861 7.478626677463786 12.442834407765442
