25
Energy = -97.82101236 eV
S 9.899279302184635 7.5180607310279965 6.497193707093286
S 10.480995782592213 11.695273829288134 5.8677854360969945
S 8.633879295482476 11.265827677125221 6.140724576792776
S 11.663106884884277 7.409706287754481 7.273190597495013
S 8.233053747870995 9.986953120869137 7.796535153724969
S 11.091046697842188 12.792299046483619 9.683065297084159
S 7.38998930136663 11.86906091524126 8.374036970877569
S 11.472528272049512 7.759388401837792 9.443403759984818
S 13.866543156237487 9.981071322100526 9.666378801954481
S 13.345341965278482 7.856160722371722 10.090796143378416
S 12.749830777728114 13.471976764993864 8.974756983785257
S 10.413971845608208 14.159101441522141 11.276602778388046
S 5.480504322683667 11.891612533779798 8.540968379783934
S 15.712983861400849 10.226729416168084 10.217314156024011
S 7.328999599660442 9.530522066290176 11.88811026855344
S 7.534316115781984 12.829992778538795 12.185439460150691
S 9.6921749206804 12.955680600623328 12.683537739773504
S 13.718149480115335 11.480179361961017 12.660489515966026
S 9.529701836233263 8.94594983529191 12.668149136843105
S 13.067623212825918 9.502772914873475 13.828882187876621
S 15.58769012783055 11.126447202729912 12.380561432401954
S 14.703120327380537 8.533630333253269 13.955610163245032
S 6.4666645467801676 9.906759799680211 13.562471892786105
S 6.634466125913768 12.244160296824552 13.807977548119633
S 9.327757291729203 9.084401397512018 14.559736709961937
