25
Energy = -101.376012 eV
S 8.224707558837112 12.196186769880546 6.675057940583346
S 6.537956816245494 7.520557642973303 6.987634847937144
S 10.941482322855364 6.863478147917374 7.782804620840172
S 12.860015762945437 10.862317550536314 7.156830942072767
S 6.00590675787152 5.720351821288148 7.890576504296022
S 9.530221950727556 5.4010680091043515 7.158118287370153
S 9.41522994970984 10.883375437255923 7.695948165102289
S 5.1104927178132415 8.916716841465917 7.568725176374746
S 13.405196053069975 9.127762042926568 8.097457000403871
S 7.925481612877084 13.843980039006844 7.946794852316721
S 11.283767642158086 11.745247220478523 8.131359326592264
S 8.888406705467085 4.338219506921931 8.735626095206506
S 7.18013522891744 5.397358080550834 9.499909595543313
S 5.9586668989142195 10.288450684527701 8.83189691457057
S 9.923175492050719 7.901469266072282 9.217158423140782
S 7.3615617998559335 13.204786799039844 9.81075695784599
S 14.095229798301103 9.702131241433744 10.053857709422761
S 5.615434321478139 9.748806751662954 10.794628096441258
S 13.68613641664449 8.117153033806748 11.212737644471675
S 9.06023154214211 13.178329417035338 11.01958707435869
S 10.498122943093772 6.972438667650291 10.996148241027273
S 9.739136047000944 11.259950586695886 11.308838924423586
S 7.352108529934382 8.911979145331747 11.536886092143536
S 11.730498520423026 8.267787509950555 12.00556252781182
S 8.38248886788442 10.341890043704968 12.59689029692016
