25
Energy = -101.22796619 eV
S 12.682369630864999 6.640056811778561 5.698113625492618
S 10.642535056172601 6.281702659653798 5.662680225469931
S 9.482391110979277 10.33956111826925 5.777031394274473
S 12.832615555699755 9.937420285575088 5.935849519306455
S 8.207485697622618 10.266075939236492 7.355240439287574
S 13.070774076477614 8.158285746525804 7.028919729689343
S 10.191969963684526 4.7910098315557 7.006595279651371
S 11.297968403537475 11.036325695302683 6.668574672240317
S 7.289100789207075 12.15485561102629 7.406441853887053
S 5.316164200867445 8.376456883614836 9.218926204187104
S 8.816775769010814 13.467508358718607 7.8213338584000525
S 10.229379979160335 5.637920240315504 8.912870374180976
S 8.739773359432785 7.013672313899666 9.04051606378013
S 8.839950763771327 14.230285453482374 9.751113830446783
S 11.153581725283088 10.267848120155486 10.62002987980535
S 6.976648080001986 6.007120296580272 9.772287233492222
S 6.9878640412667234 10.096783957462469 11.402304221253651
S 5.411016151830885 8.585117039061219 11.123892100184626
S 11.385620803570752 12.290476716318958 10.835976429636702
S 9.411241577552202 12.896983802970666 11.201852921949653
S 6.7361250603059 6.4570793081633155 11.646977711578812
S 11.686547569782226 9.426053557606927 12.459464037658698
S 7.210269589028134 10.290673203521042 13.398612650752053
S 10.478079597758533 10.118834491450741 13.960177290701266
S 8.71932485905635 9.027465969679842 14.08979186461789
