25
Energy = -98.5105823 eV
S 12.666371044311852 13.628375698087774 9.307188498267093
S 13.498640198003514 12.39464292047207 10.676443635723118
S 11.92866834183382 15.312886497575661 10.215031386546636
S 11.26778521837246 9.63755946168748 9.863301630555114
S 9.744707798150316 10.82097188080549 9.98591602110511
S 16.842901036248676 15.381149677608418 11.754749677477824
S 10.366032991644323 14.367384758995481 11.338362125923279
S 15.15809274502742 16.406015239861556 12.489738156591432
S 15.763538598143281 12.236014862023085 10.564512501074415
S 11.535920375005743 8.351500591205799 11.276160029726075
S 16.673373647011054 13.428862031268578 12.242149601234523
S 8.521118830273869 10.196386096525345 14.070759654592067
S 9.990550028893555 15.613271190525795 12.883046829906231
S 10.341518047979338 9.812819356973911 15.161124810187058
S 0.19954765243497774 13.151418578713093 16.367992401064704
S 17.45709015735324 13.267457048898246 15.741352245823041
S 15.936851253720985 10.453874008362723 11.294755864609641
S 7.6779786991464345 11.857779668549963 14.566701991111712
S 16.515459850597104 14.963981384446454 16.777402725565985
S 15.602246896819572 17.07307807423066 14.358698829007743
S 11.34114768933215 15.525142277114455 14.47498886253821
S 11.703096514404722 11.200370550466166 14.507137356400579
S 14.938933142587615 15.559531410605908 15.684427533043694
S 10.687726948290134 14.194942637959139 15.913180766994573
S 12.045669590248272 12.646475600748426 15.966768368641297
