26
Energy = -102.60207867 eV
S 15.668504987705061 13.416573471469984 12.97832743597285
S 12.98981149593475 9.805240196085212 14.029827374832513
S 11.590788888205894 11.190344780320409 13.578149856181263
S 15.020586824889351 12.974932964247845 11.214812669267056
S 12.938173343858589 15.280889984279938 8.334254746255118
S 12.391268074571164 7.883617969145886 13.434174710676684
S 15.873376527323785 11.522464538743378 10.268549058887308
S 13.320590797464595 8.634033018510875 9.548529021308784
S 10.920192772412895 7.2984416174946025 14.72382959679837
S 11.930172320935037 11.715264784176659 11.504622657735174
S 12.636298077585426 6.883475783538547 9.199395012892714
S 9.14240689992718 7.132881725982475 13.558996475121182
S 11.717400002268477 14.18663195657331 7.31655185018543
S 7.524461935668111 10.011685317376864 14.222932256087935
S 10.549263536059382 12.965674173447225 11.01531806167841
S 8.61904583063787 8.862619451329355 12.731086678066104
S 9.22713258810588 8.65043591626179 7.899187729004854
S 7.872429361569611 11.692346364918015 8.360833019347929
S 12.444007957822414 12.730342946567918 6.279163745011309
S 12.27355036681949 10.086081043133081 8.119955077233856
S 8.079122541229182 10.09828404171429 7.0201786756241304
S 7.228000794739994 11.716303819337469 13.180054176325767
S 11.138866756131657 8.87086846019458 7.030736841181135
S 5.365596188257582 11.608808407418744 12.2223063139126
S 5.500581045845954 10.490063094741357 10.505421424498735
S 5.8826293110185555 11.72207076424217 8.876953848601621
