26
Energy = -103.35461365 eV
S 12.23703794283925 8.975023436112782 12.528521883484853
S 11.50038772400707 7.161519337050538 13.277433143474537
S 11.333785247908693 5.80535929215709 11.734335353115926
S 9.360616070546476 5.7748365465658065 11.129996037224515
S 12.199286656368592 14.342262585666843 13.06444069366898
S 10.256604902545243 10.807442443136567 10.095948249306687
S 9.008224003429133 7.198744045158976 9.668103160605854
S 7.73209809576242 11.170375210153184 12.360405633548478
S 14.192558782824383 9.128353092757797 12.99778878796805
S 14.479185413791182 7.01262039930191 10.350247545922162
S 8.539396048563942 11.05718873472254 8.686874879415196
S 11.655372916230682 15.535403755970114 11.636140597610623
S 9.020572139001017 6.322716416572902 7.783862674545829
S 15.345063526595325 8.481074185896965 11.238756102953452
S 10.780132919372576 6.584491962288215 6.777409791241415
S 8.581550520049303 12.801453601481999 7.8971603844192835
S 10.205402649107196 14.577290716079164 10.383502158335677
S 7.033910413341794 10.701848252979525 10.636357793675037
S 10.62300008171349 8.537160551825723 5.982550328772575
S 12.814146518117758 9.821681595721605 8.272298762206102
S 8.444768070827637 15.578119340644086 10.872845778393383
S 11.818671042959528 11.502394564987522 9.03312091316477
S 12.421698581911338 9.472413113572685 6.281113371534253
S 7.821001496476505 15.026211088591717 12.680344573194356
S 6.277362845204323 13.367523009733244 12.434982978553572
S 5.687470041047123 13.207663432028864 10.631552287266864
