26
Energy = -101.29450891 eV
S 11.969308508489151 7.692586948198107 7.581868597067508
S 12.639772458188093 6.384410727600256 13.67511513041617
S 13.773111845523877 8.2566977344929 7.938777960942665
S 14.264624689282746 7.0076441376402085 15.063522490966056
S 11.057532462276065 7.332463116977328 14.344518633557703
S 10.789650716738594 7.782654839221835 9.339503821554503
S 12.748042872758814 9.475234082205347 12.335830214107347
S 15.94963284385904 6.938069660713376 14.13522906002314
S 14.215410577572472 10.334925663692653 13.61002355880234
S 11.850966078454002 12.791473782573942 8.652114054344823
S 8.984895432844562 7.219718013533234 8.986125388188082
S 13.77730972937138 12.19443821035541 8.94379515884144
S 11.000545470073833 9.324978250093897 13.269596446524067
S 10.600154473515957 12.709994234790358 11.759064820580067
S 15.54137922458607 12.746341756996893 11.791510577227548
S 10.52186082263644 11.80673030782755 9.937896529003606
S 14.602201476192688 13.652824971412992 10.242496338664116
S 14.216916645113743 12.359582029273597 13.383379681008103
S 9.444663013041987 14.520085495708454 11.532139716482735
S 6.164518296634414 11.788841501476396 7.8450298732583015
S 6.282526009855977 10.790671414755684 11.130773426619353
S 7.431042562768169 14.954017752107818 8.213602037354617
S 5.111125008931508 11.414180595223069 9.751232288015839
S 5.809903208744046 13.959293470509314 7.973007735471151
S 10.509214761187314 16.017743045677797 12.1409233475685
S 4.746504774546469 13.586989825458563 9.881500515938061
