26
Energy = -101.74111853 eV
S 10.254063138000191 16.43140928115216 7.6197732479524385
S 8.568169915284239 15.046522980511797 7.486099884187479
S 8.36067261240341 14.0089777438114 9.082201531052858
S 11.412649817688772 15.317047743916353 6.074462544407269
S 12.943558616244207 14.430791543660293 6.804556242479314
S 9.697322693301517 13.977659516190416 5.8676925677105665
S 14.442462427322662 9.273719136372579 9.625985532911098
S 11.194440251036564 12.925907706921269 14.47796563638761
S 12.604225327041537 12.400932328365833 12.927443223842653
S 10.464842472670366 11.123397518318598 8.612293340544614
S 11.729236313481877 12.709201812476405 11.156025593150376
S 15.64261306624015 8.201377966958717 10.714126755304619
S 11.19344712246832 11.420998027498017 15.801407166871046
S 14.948811853533478 8.199703205345259 12.799976822737388
S 7.1976075408634275 11.239413785320552 11.813504398757185
S 5.682531993426019 10.695501786766654 10.456580910823387
S 10.870053875203828 10.814057275604572 10.470983752152195
S 12.939712479417251 7.983725660656549 12.583361816741792
S 9.64219949798347 10.028220446047554 15.148475216785057
S 13.221593935326558 6.116589894453014 9.879847638413235
S 7.15137674321087 9.251937610783678 12.524086886796908
S 6.6351487577606845 9.355805588418647 9.319930028111466
S 12.717056053344761 7.793861854951601 9.042861868005865
S 10.15554421651805 8.251818963368201 15.699301363151815
S 12.515617800817125 6.098986343713132 11.964438114207956
S 7.7676641424013315 8.245046866800656 10.913058496333903
