26
Energy = -101.16820513 eV
S 10.77036292628666 10.572769910557469 7.753181427142897
S 14.374874775870623 9.599550017242825 10.135873730505924
S 12.202367747422159 11.673888553346538 8.627612363051266
S 12.62187779711777 6.588569254175001 10.708393046009073
S 11.01193474192802 9.875647956392735 14.73858067977775
S 9.680516288597536 13.603445226624832 8.848888412060036
S 15.804897647548074 14.39159929905199 11.560543242866645
S 6.740056722042307 7.872982903757248 10.715610813860339
S 8.115058714105029 6.587798541965617 9.504224255053197
S 12.518425988110733 10.986304861146891 10.503162780836417
S 14.628202060619161 14.42131767647263 8.468151797014578
S 9.419469365879078 8.76936861939202 14.78237075713497
S 13.43822499816824 7.752553974877887 9.28326225766777
S 10.879410031581807 13.121322678358945 14.051477562406369
S 7.646773616710814 14.13446917081533 14.333358889470045
S 15.283252371205588 10.285152383758295 8.594876869882365
S 14.301541346728607 14.52310963058704 10.364943024294938
S 9.744884637858053 7.749554993472529 9.496895632827457
S 7.8263337163788025 9.021043474410787 11.815046180423165
S 7.627440070338238 9.16950525483463 7.044530571583116
S 8.933305209932517 13.411507123844359 13.090263772927733
S 10.803930207204516 7.480185659131512 11.272878928341273
S 10.634408569269729 11.843488398559169 15.581808235056341
S 8.935610030059099 12.013036179467205 8.108638977467558
S 7.687102504138167 11.07897198881976 9.76414026768091
S 6.555645865241531 9.824738462771508 8.532840117141742
