26
Energy = -102.14159417 eV
S 10.624588352690848 4.374443172351826 12.37400624023344
S 11.135700500696533 6.064047847804163 11.631301445055344
S 8.590701377803352 3.8077627008547945 11.56144838113507
S 8.778553365096426 9.299415028733636 11.99723692909143
S 7.791607995224521 7.761510722275762 12.974948729887158
S 13.078418606893655 8.069394252198103 8.42793908617702
S 11.194457759553366 7.637857801564937 7.968125767305292
S 14.25641182276785 7.528662937570487 6.653362737634452
S 8.057084439737183 5.417368298152706 10.513643261598103
S 12.667851833822095 12.882933965424845 10.858697017434913
S 15.524509869588885 8.950013744078772 6.337247510296169
S 11.28825632205973 14.453450235015449 11.982728426433654
S 6.741971121756027 6.613849420777467 11.644749027281497
S 12.059890671130255 16.338339621825483 11.251816555636589
S 11.577580754713164 10.865581901365472 7.048145344450011
S 11.305993196547728 11.534051141536851 10.340668773334944
S 10.536237827810302 9.20873599429065 6.597670684734996
S 6.606000722742267 8.358569538727826 8.182756383909098
S 7.575036495631506 10.961690546499378 11.889649414500115
S 12.217083719963082 16.291309539021455 9.32343068867315
S 4.9677692794017565 10.862301409062166 9.778505727206369
S 4.858911195396699 8.84494067419527 8.795374765921444
S 6.916515739646798 11.271554153653279 9.909800925931501
S 10.543101484159665 12.009003515120364 8.444085987566382
S 9.350623334745032 14.412238519157652 11.144665262410738
S 9.218845883610948 15.07843061374602 9.322817686809284
