26
Energy = -102.91777674 eV
S 8.185788924591577 14.468136920036011 9.856615281622185
S 6.782912969856577 13.498703111493455 8.720747280056347
S 7.214808454675533 12.135234388040715 13.650219262438616
S 11.392050974394751 13.979068399623797 9.104504705567514
S 8.761922981678026 11.102531665090025 6.798090725222466
S 10.608690855076294 10.293725640994225 6.096349284467194
S 9.879891013236922 13.131309489806776 9.962273218570186
S 8.019894181482108 10.388062480159025 13.809350613106266
S 5.247805772123723 12.799858250495127 9.884598868160287
S 10.106743957151346 10.591780840657671 13.252681571804603
S 7.2559058518332495 9.94270789749662 6.276715717336756
S 11.244254069173426 8.808668071926265 7.343853997374606
S 14.123454715462765 9.97904249697505 8.631525043245155
S 5.479702553123787 10.771795491382813 10.481121828721
S 15.18380122070429 8.15806411825583 8.62089525699475
S 12.14802275912312 9.619235998293883 9.029844179566844
S 4.87177148687319 9.562298995937667 9.050891939187366
S 15.692006516633182 7.6465916480204745 10.482435295867049
S 10.577598611868053 8.68331467577136 12.649760983496577
S 8.237592540358737 9.512769234524825 9.512673852695684
S 13.661215054441413 9.858833872865402 12.911465691404102
S 12.90082800016091 5.909149016669612 9.600534203385418
S 6.983925718351451 8.71506463352341 8.331973854995901
S 14.165459707547912 6.0715481562817075 11.027155120379522
S 11.393976751689495 7.670609631591841 14.172295564525145
S 13.552892805420782 8.330149178701584 14.062699968944592
