26
Energy = -102.0693828 eV
S 11.807769149076668 13.475956560939391 8.342263521514335
S 14.755053044069005 10.222132312453212 8.383600447332286
S 12.662276682111175 9.448928164468505 8.241242660795368
S 15.627468686929333 8.697149423148812 9.338951726643014
S 12.881264473821307 7.7036789562328964 9.201460183498666
S 13.130162932031261 13.66192503810934 9.734317446668248
S 9.082772376180156 7.1570454038860865 6.3339806596434975
S 12.679232941103654 12.223490975279761 11.297627350976626
S 9.948366175190092 5.214937380273169 7.059763217999107
S 14.156769246576053 8.248467716777698 10.780334284715794
S 9.06711337681305 14.25204491012917 14.597007113801018
S 8.313599613009124 11.454157015094653 9.551449968654353
S 8.096147595371619 7.724584735551045 7.980175946598448
S 13.506379640500597 13.062798113888633 12.963753601850874
S 10.535216632805186 10.175328707942164 12.906477237582585
S 9.751437750355992 8.475860473909366 12.415069339102834
S 9.225161782116043 5.199842494249824 8.922374584932886
S 10.911823185166364 6.937117127906438 12.320343580720548
S 8.281848973796954 13.77468866951976 10.93612925221054
S 10.789815486127967 13.42346724950594 14.870644083787978
S 6.660597431933598 11.889579770107906 8.738834874781935
S 12.264758170486276 14.506948943686279 13.71476332024341
S 7.267002457939367 5.894971407491052 8.611671309155216
S 7.156773124859341 11.535356976322156 11.998975512390684
S 5.4989320025889805 11.993918450030879 11.210713827078727
S 6.621581329056022 14.23598397309955 10.153292728367266
