27
Energy = -107.59571888 eV
S 13.401978174487509 11.516789793364094 8.635849863213584
S 12.170171464974517 11.894098260165885 10.23168177539351
S 12.560880045669116 10.467321044861832 11.662630577527413
S 13.28323218850336 8.305990839794203 7.672467772419036
S 12.169503297764885 5.162377646665509 9.807804184049578
S 12.419495907453703 10.027690956241157 7.431272218810091
S 9.463736290168486 13.394336331949502 5.610210887675638
S 9.512734492907754 8.060599703022092 5.796254292408263
S 8.88050519043163 11.034999556791496 8.719505520102608
S 11.128749013402238 8.959987551314228 11.336864434713508
S 7.875052752319992 13.031299444235778 8.295903037083098
S 10.491382920612258 5.087754762400222 6.860800852980345
S 8.954746520544457 5.9770765548033316 6.001725766098463
S 10.090790467284124 8.750547936100652 13.083770689922002
S 10.35115626184789 4.933527640196147 9.234367911047904
S 8.57399217280518 10.195278118474745 13.367568322717412
S 7.865770929092779 9.183906400889118 6.055474351521879
S 7.725896335127978 12.94418307167539 4.976636147476584
S 9.169869380050804 6.803990863092101 9.465406414547106
S 7.570705827002892 9.673932665367806 8.133238263146582
S 6.485046353072855 12.684185226303429 7.002350709521408
S 7.819169555812398 6.357906768889536 10.902358964506936
S 5.675386079208064 10.10953110606395 11.564872401727827
S 6.686660282334829 9.44498780885797 13.320360421361661
S 5.105049991109277 7.545057460848775 9.387957103865398
S 5.986165846130229 5.8155811567025975 10.069023368044286
S 4.384277126686744 8.62831736150088 11.012883654205137
