27
Energy = -106.27778792 eV
S 13.34161911031716 6.981563101108786 9.516614411671432
S 11.97021338729219 14.59355864641012 6.8396419896803256
S 12.856419873731774 12.440281557859974 9.25820726289417
S 14.91310554428682 5.903820878730772 9.7824952363707
S 10.87602791766172 9.674489592193826 7.407635334681039
S 11.623550879550027 14.176633639863535 8.688378335873695
S 10.347555522325552 10.968746368220547 13.313465262705343
S 11.889660880523639 11.797949645587572 12.532256835376122
S 11.715815880622127 14.044753330498494 12.503515479624479
S 12.702909443558699 6.84427392701272 7.433832149464362
S 9.77615787951567 4.314060389305668 11.332681821586974
S 11.607994851654555 11.316516593605954 10.308441014363073
S 10.057202309056922 10.109444158936844 5.553764717837858
S 10.835970055194382 7.605551010567143 7.655430389093138
S 8.707151536818985 14.132994946351635 13.886573584051222
S 9.666800735091307 5.8820436614540395 12.426958880114919
S 6.922147331330609 11.165027314452054 6.512845359271384
S 9.696038864478043 14.318826755550628 12.215683950697237
S 8.064675365669466 9.615629551443783 5.755848607343684
S 7.287682493759168 9.888950821625448 9.734840175721256
S 7.440291808521036 11.566492985342647 8.468397205026776
S 7.756259180880882 6.967479273146008 12.001540192309395
S 7.408781160365337 5.728469473455339 8.948620863977363
S 6.163383087729882 7.318266935143253 7.927094092634032
S 5.445010923934078 9.543329323387287 10.392745362080342
S 6.734717261279049 5.653168343970047 10.845974806437194
S 4.686614863139553 7.839489176047277 9.068256916215072
