27
Energy = -106.66997674 eV
S 11.966502847526051 12.272253556898864 11.92300211077544
S 12.956297097219538 9.171863824914785 12.562348891300323
S 12.76816566254247 13.997884280746433 11.596746283084444
S 9.994944393212073 6.706927186516937 12.80083797054368
S 9.275767578821089 14.773374598617721 11.554417452249357
S 10.085340618272511 15.688970347089963 9.879060249161007
S 11.672987282262234 5.4541203032906065 12.566115622623341
S 13.47259951516614 10.68177120234933 11.479842474312743
S 11.810400734954973 5.359664725895372 10.572661452455622
S 8.839186940255109 5.2074137598161325 11.881674236504981
S 11.659652682740907 14.2609880302749 9.276843902053349
S 9.638957693179773 5.162489410517985 10.047034365283176
S 10.956353162674391 12.48603529145688 9.156253002846691
S 7.101472749503554 9.563059066065083 11.411558444862353
S 7.977461176640853 13.400768410173365 11.05716173460397
S 8.709919493675113 9.193887479180516 10.338515195007128
S 11.623430963270037 8.529765542010233 7.295903416589298
S 5.707575197100733 7.925016653034609 10.937578504367549
S 10.473069554141382 6.833858197652032 6.368535721506297
S 4.2078617504447955 8.768919820389343 9.990469860160728
S 8.156574771094204 9.981733026513224 8.271103178263713
S 6.507253175451449 7.843533950607625 7.6645854161119695
S 11.778185859162202 9.735029083136201 5.703395157449942
S 6.639731251092124 11.12660751207473 8.447610477910091
S 10.316039366424215 7.5096961925701065 4.494934756488624
S 4.98929180869104 8.9804819214793 7.856886101773596
S 9.87490413139518 9.540605661049016 4.838720025648395
