27
Energy = -106.49186369 eV
S 10.390870131008795 12.76997627374612 4.381813069390823
S 12.265972943944536 12.059940808490248 5.832382546221301
S 9.398948256010796 10.5219317742508 4.782430638124747
S 9.376558350869646 13.823980347572999 5.584061375946718
S 11.342577148988555 12.516466258666142 7.506020766195601
S 4.857508232677848 11.015773261041002 8.717711604818343
S 8.574970029461033 11.04245193975235 6.483860499101638
S 12.470225953197822 8.043525487067845 7.982275892216543
S 6.786458482155496 11.30575911607392 9.374146844709147
S 10.053133490693067 10.910333893074263 8.005916021299502
S 8.604053792558537 7.948907138300591 9.042467089344592
S 13.647350934907783 8.332611373168275 9.663344419609484
S 4.162485476074099 9.141464268510497 9.318913208820799
S 11.42601892854161 6.28051456074368 8.175654514196514
S 4.712392683078426 7.750262067825334 7.939777825908544
S 12.824113637399744 9.837857222202022 10.803203356226678
S 11.600089004001193 3.8291637065357693 11.377088649222044
S 6.777217356962994 12.212738766115391 11.230855011844273
S 12.947452275268937 4.752701387008109 12.356167735817419
S 6.479507291306912 6.768652221419007 8.667226481097956
S 5.831562229804161 6.520411539209069 10.686138736429676
S 9.934594821558239 6.5778874664352065 9.624337317936076
S 9.81978880454041 8.931825690375312 12.20301457835987
S 9.12183266527013 10.755283095105565 13.165005273079826
S 11.814047621313227 8.974454953644317 12.450330349041598
S 7.352125912776939 6.112364195966602 11.813393168306849
S 7.150284952348463 10.80772291730233 12.74178859793846
