27
Energy = -106.21698642 eV
S 12.493183346241459 10.385076674287069 9.366265556964295
S 7.039796467454719 9.01905294944356 12.62726457699316
S 7.460036148249926 7.234180344861924 6.965500587538794
S 5.397504069357925 4.742602012199462 10.164378741732959
S 7.759498478741186 11.942938203106142 7.855788232073727
S 11.4833568985089 5.739047208530081 10.704216184870564
S 8.688178249180469 4.211870550651269 9.89229219718376
S 12.29788141424268 8.983867390379512 7.878559994389121
S 10.769618945533702 9.555001191197244 6.561164869043445
S 4.15737147427588 9.532743133549044 11.700967456197825
S 4.1743899436626215 6.836903037695235 5.931923939725602
S 6.998439976215248 8.743291827755918 4.057231577891391
S 9.928600295044939 5.770071940143324 9.339467017831044
S 4.836497816681409 6.432484557651139 9.209418054043402
S 5.43455730583303 5.996237037107195 7.097602897032129
S 14.41436099278746 11.948214478663967 4.9330774284575005
S 5.20849341702526 10.313394907140978 10.31565304762369
S 7.265349229176167 9.939645267101906 10.975921532726833
S 10.178256463980762 14.012429573232865 8.749434841322376
S 12.058697249770729 8.717633415914737 12.198358280137644
S 10.937368152791056 7.005607413232932 12.258303337416308
S 6.831434498167746 8.893082894613439 6.00073735970306
S 11.163816860967854 10.098114663495574 10.917256067332298
S 11.244036188413522 11.37016530901663 5.7832889239112655
S 12.832953889929819 10.976028999450126 4.377286372745944
S 7.211989193084809 4.9485780667679355 11.153929946191706
S 8.61362149761493 13.002939345239577 9.227209117816088
