27
Energy = -106.32487394 eV
S 11.202262829172001 15.572731449910616 9.22703562870164
S 9.167365477574592 7.596378739014332 15.374143966239982
S 11.936243412039282 14.027540350722742 10.08686400420094
S 11.005111321552926 5.550853794431957 12.927818597257453
S 8.833471719889678 9.023504085647971 14.140925828930385
S 11.854583205362422 8.26882716525006 9.404324455553402
S 12.604369651129591 12.955852030121655 8.186559552612982
S 12.43893641858261 6.649720033881009 8.132638644520737
S 9.96107513899163 12.744359267815538 10.68443540179971
S 9.843872554343427 8.685099691687057 12.265596001235156
S 7.579620800001199 5.905449201098726 12.035353750167143
S 6.647870840999917 6.662653031582126 13.711954254970381
S 9.772331414812546 6.498336694636856 11.818177978988306
S 6.50455685988956 8.610178010565736 13.453395144331761
S 11.542538574112326 9.922115636982337 8.335424749784481
S 8.701683194963916 13.580561559268387 9.436690412605477
S 8.2940436061329 8.610891297617899 8.593479922329529
S 11.149342460997733 6.536856713368222 6.585068473817364
S 8.784887860252175 12.391626315611727 7.632243047810843
S 9.281256953974856 5.787082362614133 7.307991786581502
S 13.3586076585489 11.138708793478285 8.421340589137124
S 6.74797936298076 9.86322736371145 8.702977957861815
S 7.945376347399728 7.231608074161086 6.9337174580272265
S 7.719639214454296 10.634414988591567 4.053480282944086
S 6.985946776663384 11.524494500046936 7.369486034115928
S 7.641799488853728 8.754472383355811 3.6288064917667096
S 5.941720012627936 8.006525124201701 3.106908830753106
