27
Energy = -106.40421294 eV
S 15.32505168398037 12.42827515703905 14.772891540089148
S 14.354775404179842 11.287860942383329 13.537190510095783
S 15.393928030724782 11.864380087736421 16.626644180959996
S 13.351983350583614 15.19350330094165 10.97169053701444
S 12.999507353473616 14.543468835507847 14.802667534464883
S 12.081041398018396 13.335916994148462 13.622082671591095
S 12.797304551000401 13.894270167889767 7.953671108785915
S 11.383016568598629 15.420888791886869 11.97122408214365
S 9.968570089393681 15.586081998358463 10.69324383133716
S 8.70871828844178 13.810215593974537 14.15835297049027
S 13.488960367274066 13.496986816189022 9.886535652628131
S 11.132135044686576 12.689979434224199 7.745567482393277
S 10.231398294919973 12.572115001493646 14.580651437234419
S 11.597195140759919 11.25407491017843 6.319355068514989
S 8.358538422625102 12.882182952169178 10.891833959921856
S 7.450857619560214 12.93677084787781 12.649362833164586
S 12.010981118747718 8.425017586733544 8.227195401519486
S 12.917157720539773 9.830774034363595 7.001690070346115
S 11.274311307650214 7.218447781198299 11.253375888218608
S 10.966328153188005 7.106388118708495 7.030532491236667
S 9.071251526275327 10.670365152443573 10.85722988630918
S 10.785671245689276 5.440498149553856 11.778235213525253
S 8.962097087864375 7.652022324124935 7.199585560911192
S 8.493065805728405 9.905786089970979 12.50441553020634
S 8.571360989059704 5.186013930855914 11.37367097391449
S 7.979157965931606 6.25135753261797 8.291880514911218
S 8.014101406598671 6.800305714688829 10.373429634477649
