28
Energy = -112.545676 eV
S 10.538292583051815 4.1268450357206445 10.21626041215069
S 12.378602254700153 3.820537924415019 9.493484283230258
S 10.702440813636043 4.314506464595925 12.308353852563323
S 13.042345224477863 5.794854001458959 8.688267450456486
S 10.744878044257625 6.294638494434419 12.870067906745144
S 7.036417281153256 5.879626962816327 9.627480180005039
S 12.57991491304088 9.964879253812594 10.184548489993661
S 7.806958681023304 7.157235067794041 8.295037917158622
S 11.529037927060346 6.957323908530894 8.522657261200306
S 6.345299991909913 6.928448319557475 11.338675231748615
S 8.889672390733528 6.845654400007887 13.584757480390936
S 7.888087416656748 7.979061415857028 12.155750047521702
S 14.476742811893171 10.214121064222054 9.781083650709398
S 6.996441932365948 9.272127743917583 5.955895264542241
S 13.000588101924881 11.612302875270773 7.060693841642901
S 14.672774508304068 11.714831728146818 8.102731449171689
S 5.7953934020718565 12.333063759337133 6.681695912535539
S 10.006871645478327 10.992003451236341 11.76266308559091
S 11.962217657618888 11.481327452829342 11.654064790160175
S 6.105088363651069 8.00005229188827 7.240894934586335
S 9.018611225801989 11.839281625069283 10.122730260802383
S 7.438361387455641 11.109214658876644 6.869077400360466
S 4.639791507131925 12.227278550219918 8.401813263135063
S 11.803521210527078 13.280379982943234 7.868707250811722
S 10.389638834696019 13.635167842951052 6.610370478439946
S 6.249075778752373 13.335322356423557 11.192484499040798
S 8.239173564726876 13.656840616025871 10.692376811578578
S 5.085980618610002 13.870068474139847 9.577361745153155
