28
Energy = -109.86555146 eV
S 14.038396628087146 9.773102706243218 8.649678854796477
S 13.338679577299068 7.69190267789285 9.296351961318656
S 14.958939691584028 10.197991314096612 12.430379847352018
S 12.145109216719673 14.854090527091435 7.84971867921457
S 11.784114081183622 14.222595735023475 5.968431369432386
S 11.029666783502554 14.005375036306285 11.944492111085108
S 12.37994276638054 10.844235486465271 8.571417560768104
S 8.983414403664106 11.050074477559566 10.320467519085899
S 11.416271909841024 7.856876379718877 9.572321871751315
S 14.74913855528996 13.236143039396534 11.155915275503352
S 10.235500077736383 14.387065578462034 8.788357488610584
S 14.01461844298485 11.869252202421011 12.299571275344775
S 12.681965940179708 12.343090241396538 5.670259508699169
S 11.582865131655137 10.895606049063137 6.596454657443061
S 11.06880817069309 8.780495357614235 11.541645171773162
S 12.673103545873236 9.301740091560577 15.358197628721072
S 10.32529411021463 15.388432183867918 10.53143773774219
S 10.794821375266235 9.668435485479218 15.232425725572119
S 8.080663762238414 12.418476773265958 11.522309203776688
S 11.617984506874008 5.612076993367872 13.484960924214029
S 9.115900856298058 9.189422907523554 11.323684664348614
S 9.378402794831816 13.26398635903968 12.923421129770416
S 9.592418401368885 7.801639793005857 14.969232720566245
S 10.975651533428401 6.2926126714332655 15.193980186733764
S 6.252183950690983 8.23174858029989 8.357218344056648
S 4.542109385380796 10.437197973200133 10.22936603030333
S 4.914116058211459 10.731359322890833 8.394061640376096
S 5.8209058373287235 8.047512902009183 10.198716707866794
