28
Energy = -112.1470021 eV
S 12.595199531250147 13.478184448602411 8.203957134403772
S 14.384833680632253 12.675895062729994 8.832097668878397
S 9.734023450068458 15.048425295637095 10.6868777447762
S 14.041522522456582 11.65370157320943 10.6255406581722
S 11.979810538721281 12.52979835392927 6.461537064480269
S 13.809639296628662 9.169643427020944 7.361286279230629
S 6.855143918689992 13.954494947161525 13.525711677992014
S 9.152669913072963 13.215812828427895 10.766042296118949
S 6.9021696802055015 13.315622866845471 10.959766195440508
S 12.70238693309733 10.139484835777766 10.29727546176089
S 13.581403999019985 8.533018605473186 9.32373518410587
S 10.90950932645143 10.837294202044596 6.943315777114731
S 6.0823993169296395 12.247201396850244 13.967209031521232
S 9.166367496414598 6.9007230694280075 9.54790595386407
S 7.526181839412747 10.863764283431422 14.876046086496894
S 8.070578899919928 7.2722369720509645 5.434919454501931
S 12.030883927125096 9.171059005382252 6.350456078134118
S 6.185576314385836 11.558646265620867 11.206889223303317
S 7.885898523149061 8.277500349534245 8.630729442258485
S 9.264567808008557 10.81514382606173 13.845812131948383
S 9.244452787278172 9.462908802984703 12.272379552053481
S 9.418488163397829 7.558172580054196 13.129157711961431
S 6.826111905727174 7.400006084027327 7.115819323673064
S 8.432401971369496 5.30422602163604 5.110411585469393
S 10.143265895868375 4.814510480570227 6.349324562129491
S 7.710380461570502 6.620736441764988 12.563953938365945
S 8.20839924364243 5.593973621174058 10.771160512994003
S 9.7828629072751 3.15763602778756 7.276387894523924
