28
Energy = -110.39619561 eV
S 16.936207827464603 13.739021350160522 11.746166554515774
S 15.47947950810032 14.504025544658944 12.737492708552562
S 10.845510694009716 9.332583876214203 6.657053133513071
S 14.837184336989184 11.175296444390842 10.577231633892124
S 13.475021361645496 14.31523815986912 11.443035353563063
S 11.29463290614386 12.554624288718106 7.427195588435018
S 9.553912495532677 9.924445721409347 5.200745119289228
S 16.453799823150213 11.356791782869402 12.629649286578987
S 12.281275953374834 10.870153725891058 7.011205630294306
S 15.107979353165343 11.874907079504768 13.855074989834458
S 10.42253610963722 12.81263574751282 9.551850211710466
S 9.125743576366578 14.186152204279752 9.239673680172244
S 13.380522002072917 11.907523700093268 11.5882439598031
S 12.070287569961287 14.988150496161898 12.556688836395827
S 11.714820201517735 13.968613872458352 16.151581280958652
S 8.166041803553869 11.358909819311007 5.841086011641917
S 12.96579338091062 8.266366737245153 15.388553814423855
S 11.04997146597291 10.435183576019995 13.92308059447995
S 13.057137511024923 13.016745597950324 17.10697968625039
S 9.637464088199101 10.543208278737998 9.442139590735371
S 12.180349846848479 8.738719607503716 13.530298620454676
S 6.417005381816479 11.530344146728018 8.678249061881935
S 6.5077067307110905 10.58702633934984 6.768176012950987
S 10.193489540251193 9.196086924962438 16.799794753151527
S 9.408355319634076 9.679040989003033 14.941001683089532
S 11.325907974149603 7.506413804277838 16.406317427493953
S 8.4897471934428 10.118152855100005 10.96350504025896
S 6.406718830827355 10.231851141893104 10.182151618654084
