28
Energy = -110.9795763 eV
S 9.240058697043793 11.816064458112654 14.927111892144858
S 10.343310613456495 13.147785690456258 13.77972260626051
S 7.286100421694617 11.987455012923544 14.316479123448435
S 7.846253790143251 10.19577025547389 11.596219567968292
S 12.130216933470022 8.1272235808741 12.43859690161404
S 7.364725596922534 14.513643511851237 10.69327342490505
S 11.52504402388287 12.255430933162227 12.335755122290307
S 13.172247971327945 8.885264476402218 8.70721854296166
S 14.705558655083994 6.245914302376891 11.367038630193603
S 10.643024654687947 12.077164359302198 10.478821358804394
S 6.764509380796561 10.226765151761375 13.29278520480757
S 12.140457234919625 6.295732994125524 11.926989392519044
S 14.997913955678836 8.071688844180107 11.80431454805271
S 8.593846953331065 14.328255986372223 9.06367401974031
S 8.838974048660255 6.1674516129393995 9.633769521909896
S 5.962411976325761 12.89559445639088 10.534003598646134
S 12.834604454472068 9.443300773279718 6.781456910843833
S 14.740484902172781 10.34571282657975 9.301720000194951
S 10.520290013255249 14.023781314250671 9.726838194457075
S 9.11841981342732 8.003944289977193 8.814106731478192
S 6.78589651103172 11.165124514799292 9.99073394895037
S 6.653474691181362 5.877479907879672 9.276986676822451
S 6.184969277854719 7.63227005565434 8.368608238322134
S 11.771056047861398 11.177762667401767 6.795886013005846
S 14.966655814061982 11.383720534068189 7.5538566998417656
S 9.067159981865153 7.806008612533349 6.7914924525563825
S 13.372344309650481 12.622740520656127 7.3673292190977
S 6.87419447768643 7.548180763619815 6.459161073020011
