28
Energy = -109.17378437 eV
S 12.665323321070243 5.854103710176972 8.202892975898143
S 14.341574982002747 7.273983783694399 8.698030091060748
S 12.60503192270882 6.005911444850883 11.958482012652855
S 11.329672463568249 6.999603570990336 7.230676271956588
S 13.890703862651334 9.02756282006173 8.075165139776605
S 9.821147344253436 7.593301362686874 8.472617639443696
S 12.531417527337457 7.167219809145956 13.495557775088036
S 10.545522214986876 9.605783892313106 9.204108826885035
S 11.457196227271739 9.472025249916364 10.884479666788815
S 13.935507833898521 8.73976054750857 13.316333469023816
S 8.498246355467048 10.479894050814751 9.535857395477125
S 13.399832617835495 12.230054577406687 8.187110451248568
S 13.80829996362444 9.938266037303423 14.810988073240072
S 12.096500666840877 13.44792700980228 9.00588281518253
S 7.457610305994535 9.274043821522461 10.802380003413976
S 9.700400646031854 13.207148010488428 12.172661192173868
S 8.014838471811368 9.48980247289836 12.729417069747322
S 13.60258841027317 13.444360042369741 12.062657489099854
S 10.43505556341012 10.895427415996284 14.425561578742954
S 6.242310008269265 12.235307214342951 11.825910930938795
S 12.82541795882391 15.319303374840347 9.2412913060674
S 14.008534974971324 15.116708674479131 11.241618987378953
S 6.903913941633434 11.337075220213169 13.381553479850558
S 9.27535931517334 12.409459685716314 14.135252436078094
S 8.721877591006592 14.99257764116514 12.180732042566781
S 13.032164688441823 16.975456966593253 12.272592518802968
S 9.843887370375302 16.44820743053141 13.132432856817543
S 11.144872342865945 17.304072715468337 11.719940073885635
