29
Energy = -115.87359013 eV
S 8.532900283004718 16.393059623913416 9.831666352371725
S 9.409550178308498 15.947509526453151 8.123259997380696
S 11.20970881430846 14.325330518162401 10.287630692787873
S 10.143639908758928 15.477972587235945 11.36083343347568
S 8.490393060311215 14.354237309489424 7.042194078626285
S 8.7230121361437 13.976067029673162 12.607457536101222
S 9.521236870952299 12.644722136778864 7.402082314724699
S 8.23657830663063 11.344839471337792 8.503692720317032
S 7.514281573237948 12.290513355082767 10.0992693689027
S 12.21082830538379 10.510833815283004 9.292477145921378
S 9.394029585314517 7.862593214472932 10.46740209275584
S 12.302868887607124 9.696919928400867 13.042268367173389
S 14.421403489127838 7.169985038489285 12.48358331967978
S 8.424711618883107 5.287380911009913 8.481540797124552
S 15.532947749341803 7.559128926321144 10.776755994349731
S 14.060765624227813 9.98772472900755 9.047480841472158
S 5.702119482544336 8.022490669732383 8.843056691024135
S 7.511967338551706 8.024410918653329 6.0752955035960525
S 9.067601984052569 12.312550707770281 11.649793219581975
S 14.151459439657058 8.928901094622047 13.54113646017882
S 4.139406354599047 7.245483308466254 9.655950495342893
S 9.907335524560395 5.998168739022223 9.509244943960358
S 9.23742161120482 6.570703842810427 6.34939065722064
S 10.68285968015564 7.478151148606523 7.2254644264763055
S 5.846357797025363 7.228057342614602 6.798727094295862
S 10.900471048179288 8.905277516592552 14.346277319934922
S 14.28220710141325 7.845331358775109 9.188104826037486
S 8.672329077541411 7.387846491463203 12.318385139306134
S 10.271959014297542 7.08521678699808 13.60639123798784
