29
Energy = -115.54117392 eV
S 15.771683471757322 10.577813295496636 6.640637990738112
S 14.799046363749934 9.419337113111554 5.450610344702563
S 15.552581621387011 10.266832132070657 8.544505606526332
S 12.787810071398638 6.916188619821418 13.377294235525953
S 11.52502167156046 7.2363225478586735 10.262708174466896
S 12.366829516920433 11.047381446678745 8.011105889826073
S 13.00227100116167 10.869151278484395 11.96222491132677
S 13.514585515263382 12.854542812534827 7.503827222254704
S 9.806591549571463 6.648202313696917 9.399421379576047
S 11.29903724138101 6.2997903440557135 12.246392754589365
S 8.305129389811063 8.129536118044868 9.56675972067438
S 12.086063165561177 8.766955649685512 14.402209897553364
S 13.711736217392065 9.6383528895801 15.042422749820085
S 14.428803468356307 10.915589320351689 13.273724314172913
S 11.280648020976534 12.438715108043239 5.352363251672111
S 8.557659238433896 9.628759116515116 12.440649015112916
S 10.617352981312417 11.476012559849808 7.059748477086505
S 7.560662593425621 8.028110383010702 11.45304848142583
S 12.122664510886917 13.95521470241492 6.561166396070434
S 11.578089079952573 12.846476136569954 12.130221142398936
S 7.142334623554482 10.603999711769024 13.52296828374363
S 11.951385409640848 13.214520926095847 14.304158927034857
S 12.37024923422832 14.219319767698419 11.05107344217545
S 5.85000676403625 11.746840079696975 12.342778949478964
S 6.748224980778513 13.368100130947331 11.465242919053727
S 9.193636637926096 14.902471755353094 15.097901106340531
S 10.078651086312682 13.008635788314919 15.035113482359872
S 8.665145737146418 15.496591492034275 13.196412410611721
S 6.713104405186584 15.011951378935688 12.738644371959605
