29
Energy = -114.62036374 eV
S 15.254228577979971 14.871428886180901 9.556790630968878
S 15.407749117056976 12.638552026200014 7.232404507874844
S 14.033678500981932 13.898978111654559 6.487555626063164
S 14.643841362631774 11.407194399688203 8.565650206258798
S 14.079322124465712 15.547099348653354 8.206841983354083
S 12.45874758617863 7.833559534712631 11.124928328279047
S 13.456776796879103 8.252272944939763 9.295721770815812
S 10.979337200550503 4.097667814053083 10.435006389442016
S 11.931189392723931 15.510939494294595 8.886355989167173
S 13.378605515710712 12.31410303690761 11.884079581411838
S 12.598118017576274 10.739959604387531 12.956681813676612
S 11.441130632308 13.693955396788178 9.563404102521703
S 11.132755109877737 7.273111178813928 7.172350470328548
S 11.448496406350843 9.491737929341884 11.744714947901187
S 12.165038857440956 9.011299891289138 7.965362450220586
S 11.828960888089153 13.66741243862236 11.62435682722378
S 9.439110492804213 5.195902605529279 10.07057851759611
S 8.818126322468512 6.384544616305562 11.453412837322947
S 7.8469865677096795 8.082860237545264 7.556440032535071
S 8.298917793527272 10.770734395302883 9.502797479900376
S 9.51887602217502 7.9923474991896155 6.224069727105154
S 7.300098115489334 10.010466352821522 7.72415275343752
S 7.693192037594596 9.243408681656783 14.36063427013804
S 7.81155324500388 12.635435501755156 9.627665335511987
S 7.91975363913366 11.922508889835827 14.966285334863054
S 6.450475747697225 9.692981559757348 13.005164487827589
S 6.672249487360944 12.305421852075083 13.596625111090438
S 6.064625456858907 10.386007734005078 16.225888815674207
S 4.800316016419514 10.790067114351636 14.87976446211689
