29
Energy = -116.58735213 eV
S 14.289230784842873 8.23649032302315 13.37725878115025
S 8.66411298872344 13.474177692101863 9.882995867221661
S 8.766303423714211 12.891707906387579 13.530497067676102
S 14.212120714799509 13.024129075765199 10.245407771834259
S 14.471165449220283 7.853631833641948 7.193974593804752
S 9.267788604376635 6.93815391556787 13.885955069256559
S 5.466683426564518 12.92946968334466 10.662348685335294
S 10.0983385718259 8.743194850494556 14.123377169229508
S 5.691750209427096 12.078981400862556 12.530317193837677
S 12.815670906628993 11.199895183467278 13.319303496575559
S 13.565643011786339 6.836773445971956 8.778979633522471
S 9.508107126411893 14.801446638495296 6.926521698764475
S 7.02875224469187 12.279233124039777 9.470722831249006
S 14.220360089782998 9.890344699803753 7.307020042872508
S 15.772903151408919 10.716438885477057 8.410662222499868
S 8.347782966249271 6.7447050497045336 11.969598256979452
S 8.50796278236539 9.879718892352567 15.073776442636545
S 14.039954559280211 9.975770930239374 14.172346890218606
S 9.214666971753774 11.754933255435594 15.244737977558268
S 11.631232366478054 6.467753762962213 8.323580107618433
S 6.781459208714021 13.412071113861689 13.678898805964517
S 15.039983972970004 11.127042792449153 10.295404087624366
S 11.552497934039677 14.921262041494652 7.174340520333104
S 12.193659123731456 13.004525348680321 7.602714112641485
S 12.246694220718409 12.79190798810193 9.666154400457895
S 8.607918027807358 15.2009829171091 8.745401239577758
S 9.778180567416324 6.095002093415471 10.71927906766128
S 9.09398819033223 8.898435240246684 8.819185148628435
S 10.544353906102076 7.975963563419606 9.652914876771828
