29
Energy = -113.59184806 eV
S 17.15040327216761 8.423515222554025 9.423681309147169
S 13.21946702049459 9.235343740504918 11.793201527993691
S 14.821124681928687 13.615164857128056 9.826728462299787
S 14.996847432837829 12.096945197576755 8.401691959113451
S 15.419027110103144 7.580027869895035 9.37460547571137
S 14.742238460492986 12.810146341741024 11.700585984046821
S 13.280843961046582 10.990438050804668 8.317034019767947
S 11.72980009852028 12.135367900183196 7.428558062224588
S 10.642798536184678 12.802990376959539 8.923403540085596
S 11.110383076713685 6.99578487233874 10.291485561040869
S 12.676689443924937 12.695956961004624 12.214216218871995
S 12.193786586587304 15.91984867164779 10.84647943423941
S 11.351095027789322 8.779240320193535 11.908165814337707
S 9.222989141579903 10.879627116594216 9.217061487135414
S 14.413661270942267 7.681076572813196 7.731098127754279
S 14.304463682763739 16.916395851602676 11.209146398524238
S 12.30791203508728 14.02562742259214 13.638527748696074
S 9.671261872739999 9.773666916678767 7.734279973440206
S 14.324555113617407 17.244434179953128 13.0893158448152
S 9.285787674578469 6.747721724456218 9.803626454315134
S 9.800353518380476 10.094629983751586 11.278098022088205
S 11.490310515252514 15.881137540825588 12.650994937327539
S 6.431685153520957 9.600045944463425 11.819957997500792
S 7.310238759368868 11.395761713586895 13.301692373221407
S 7.221280133119712 7.99518732226742 13.515182380505884
S 5.700146724710313 11.457971976191933 14.427728744665357
S 4.578408432617848 9.677673608961914 12.211497236530768
S 5.624667641426336 8.16983310765055 14.651455507986372
S 5.856784973608869 9.896295078330699 15.851794248299063
