29
Energy = -114.8925638 eV
S 17.899526572304612 13.5889706875513 9.06863097251297
S 16.62218480551801 14.540042551181271 10.139202054254191
S 15.966817311640547 12.076109231492527 11.66977935485015
S 16.558315504681577 11.310391162189166 9.985512140578065
S 14.711436530623265 14.247197294913686 9.149372176153978
S 15.178963665252999 11.547320783940169 8.559812537884952
S 13.386434051824422 14.416159872265682 10.701244867152175
S 9.787117613414118 12.945614935166509 14.663465445147976
S 13.042778441351825 12.101872982335689 15.119109556125332
S 11.447074097628416 12.019513777705756 13.815424265636464
S 11.676628400745965 15.04914627305669 10.048384987902592
S 9.528167197358718 14.7735125828029 13.729164718543139
S 12.85380050198412 10.552950939685502 16.49082597049444
S 13.91750370779274 8.885400829739945 15.911719084842291
S 8.729645793976436 14.402019434198342 11.870585881421892
S 12.554528270726296 9.88387703334034 11.398027525566848
S 10.222717516585309 11.157110176793735 8.990290632238507
S 12.59514477468759 7.4281400052753215 15.202434451069157
S 12.03217210877712 9.377229264673344 9.164038127198015
S 6.6402296989792715 14.211756858247085 12.070246551553211
S 8.961140982976403 10.595711491639388 11.86125938901547
S 6.494158719205853 12.850467568167867 9.098979747489986
S 12.806588065081634 7.1269456977595755 13.19769746165251
S 11.452653772092523 8.53793430679673 12.343366765751114
S 6.159025858548551 12.316152470924095 12.419694927551836
S 10.941575713094949 7.8246627889666875 9.137751416978286
S 8.767479603171429 9.996713267753469 8.549272290860753
S 7.751818739628533 9.680669373156064 10.709665089835493
S 5.842827352000001 11.506538570432463 10.287080475840352
