30
Energy = -119.37219092 eV
S 13.80399372448473 8.79059849162277 5.234440544941023
S 14.132170301492101 11.236679568991685 6.129609765056901
S 11.58564677114902 11.139397600870888 6.60467616019891
S 14.137191085492159 8.049748481264686 6.971598449170958
S 14.670435274797834 10.701279885522787 7.860834803637403
S 8.726660871727363 7.861430745135915 6.907675556907021
S 11.851538201856567 10.358874733629586 8.33645435501163
S 7.6502895057020766 7.28238004754002 8.386998516894302
S 12.068958423558088 7.994045153511066 8.180237540415396
S 11.806866740640256 13.565126454478465 10.369034926334988
S 13.457805859023912 14.474788206948825 10.91745988291324
S 13.945865143817768 11.13809400700544 11.319379354029424
S 7.2784744242654 9.204501978864242 9.581619275458914
S 8.99084658942442 6.104820707439057 10.219659550981378
S 14.698430394937427 12.809190413498671 11.85183670117239
S 10.483205224979637 11.502844635648755 12.624137793263316
S 12.519192471733838 7.476930858744829 9.977164089157537
S 7.613069441844846 5.345686038685488 11.294360655435291
S 6.118024548180587 8.800905038005402 11.088104255880129
S 12.47291548188278 11.049028872519623 13.641842821909895
S 10.592301434629714 13.418529265685676 12.200444723399348
S 9.354131911103243 8.249982623257932 11.55666856721394
S 11.930270843503786 16.1201706445385 14.50442676281395
S 7.788417944117775 8.011944795880424 12.625845449259181
S 13.241956006015958 12.696856016602826 14.216694306985774
S 9.366374948848641 15.343816808154006 14.95698736852539
S 11.679815871122932 17.61993788318111 15.632485071562046
S 11.380485206380843 14.450649939963796 16.566238181611645
S 9.110420504381223 16.83135855196086 16.09942173276423
S 11.109505478909282 15.935662180851075 17.708923467099407
