30
Energy = -118.27707232 eV
S 10.095685028837982 15.18785228677798 7.490164322002943
S 7.378814592645576 13.671873355958747 7.348546373224691
S 10.646720643354767 13.592007812988811 6.567272975286877
S 8.54219954575894 12.430446226173341 6.4940580121425615
S 10.509023023091814 14.808699656993241 9.731817834562221
S 15.061144660874422 13.299501544285976 7.5640356990827815
S 17.855983346602713 11.456127711370284 8.177072335144386
S 9.897178972567223 11.588346302335621 10.391230073982399
S 15.99486680808365 10.084067968084685 10.510194210456577
S 17.299395499849222 13.299928918839239 7.737980640141354
S 11.390099543836627 13.059988763938808 9.836370062058275
S 14.395742626681168 11.30481668123459 10.122763475821424
S 14.453291839262619 11.470848147494259 7.990776868521281
S 10.025530749695065 10.05199131143283 9.083869202791448
S 17.680334147782144 11.22955694805583 10.298845437259498
S 11.53277173131522 8.652632679152893 9.647927399614332
S 10.74614971683033 7.220378555434932 10.807202137745636
S 13.031417517813914 8.72244519814127 12.83338438526926
S 8.565735242666218 9.720143743184272 12.900850882752614
S 7.789840508675307 7.795179957584128 12.951358795911354
S 12.347531964520863 12.290786260899408 13.419013387421677
S 11.435180745382844 7.659226516155831 12.886977529407812
S 7.456681340463416 9.099023900334826 14.543668531280376
S 8.363759363162835 12.545088768110519 15.810053364088319
S 12.192033843491807 12.369805540151116 15.327868642443292
S 10.750537884407802 14.213269632454054 15.748079772787701
S 10.586349294759156 10.70374638741168 16.0068771619531
S 8.556068009646635 12.696430246648577 17.68726447716701
S 10.49767929446973 14.374206959580496 17.647895542737594
S 10.39595790626981 10.875287411591774 17.91028585974157
