30
Energy = -121.83325152 eV
S 7.871129812740586 6.363125959756627 4.597238905660706
S 10.048413378886462 12.57315742600487 5.346259958441361
S 11.385619888816604 12.100307331047665 6.73355596460059
S 9.148172089859434 7.506571338796368 5.722362900571114
S 8.127629334847333 12.901227308307046 6.263369145832585
S 4.729105126925249 6.033004427067178 5.749471674185539
S 10.87505580834075 6.317044052975277 5.949675588353639
S 6.620536744101069 5.191766200419385 5.770237798224742
S 11.33473160645369 9.95654735530447 7.147194793308516
S 4.522111297253913 8.962267098748057 7.379784013696507
S 6.214361800828907 9.385738013930885 8.470838445544134
S 8.430006735573015 14.069764718667004 7.919492168416467
S 4.217208834989894 6.911202443164513 7.5421341602953165
S 11.315338570256323 6.04394283479544 7.907431035209418
S 13.21245029855411 9.728398578733897 7.848737074094889
S 10.256919877740096 4.344709508303479 8.66190731541326
S 7.30756684897753 5.642093470895542 9.541896137970882
S 8.193192368443764 12.852607538211977 9.535112884655344
S 13.283068268875482 10.282752622489879 9.8756908282339
S 5.611959028220419 10.100074212815676 10.320226577954111
S 10.15034767090141 12.150981939011169 10.062812396810266
S 4.821320080444372 8.588247868076442 11.473953315089302
S 9.246658274879632 4.979212770328193 10.26481089367356
S 11.322872605652213 8.003432675226898 11.512392507259516
S 13.246230830733522 8.589454737935036 11.04506011241718
S 6.211570760896329 5.589728277382974 11.23315002740409
S 9.261328510895478 10.359981138784875 12.716356823565198
S 6.329177058508435 7.411710258269706 12.2576978134229
S 10.116467951143909 12.174780388077926 12.089114536283335
S 10.747981843102805 9.04470081431394 13.220567511254702
