30
Energy = -122.26760398 eV
S 7.091797885407351 7.614914499250561 5.8812471575444185
S 6.373871724258091 9.522545780504359 5.555527491976153
S 9.126127846887815 7.728692926216288 6.240940769608928
S 8.589112276193685 13.421705342070352 6.304334066479778
S 10.067303993590595 5.632730826258744 8.67890244249084
S 6.777183035123583 13.335820212524744 7.2907779137975055
S 12.691511262285317 10.044660997551345 7.369680722304908
S 5.471939642681325 10.293230220817794 7.252276295720377
S 9.419129330513014 7.549423606000184 8.282320744013303
S 14.216620058046278 7.726458417191954 9.203088676319247
S 9.77919732111275 14.728020314904727 7.384779569147852
S 11.627066062720186 10.825429215637731 8.922583308864445
S 8.495410210807794 4.308940730465571 8.882291674164863
S 6.7742223471542005 11.51693548709578 8.288873808831035
S 14.55308842735396 9.430929994727848 8.081874123414838
S 10.311764327730852 13.863135067024519 9.191682923610571
S 12.097161681880863 12.872837058298131 9.138519262305959
S 7.753479158484972 4.4902512461833926 10.808151984346098
S 6.122376581406008 7.4406112253559265 10.455426159396472
S 5.90444021646338 5.399847344425794 10.68580681834475
S 14.580447260419552 8.141619342289424 11.21097358916455
S 13.524753870413717 11.09224637828245 12.008986878976723
S 9.157688721626862 9.99354483318103 11.89194096965618
S 8.714992801558955 11.786011806182465 12.826278239519024
S 11.623339267380384 13.025610466354468 13.947066187740122
S 12.93884772695361 9.050399748335906 12.014578332532432
S 6.237025606704087 8.353505474162986 12.303687225595384
S 13.266052880272891 11.75880631345479 13.923817600051215
S 8.221493260198482 8.442129982829664 12.882755892507845
S 9.902298695854624 12.018748623906752 14.500572653059514
