30
Energy = -119.10908628 eV
S 11.843052936906608 17.393313023360665 7.519358450176336
S 11.248995574999558 13.091976613739257 7.833137546836275
S 10.126793082316773 16.697929599868072 7.9926504335297315
S 13.349612773945864 15.671677794202715 7.51255351211623
S 10.316199887358984 12.13028653501764 9.216863899656731
S 12.673503355829213 14.422210151908002 8.87354842734986
S 10.275679425822517 8.615194739716634 9.756411126770024
S 12.266370726446869 18.271229429234836 10.056669820336763
S 7.428021785393525 15.028371169953179 11.888385992937168
S 10.534988948092519 17.61813872190614 10.57177022614929
S 12.334666448639146 6.038136847280975 10.517215476225498
S 9.495265763198487 7.649278840519124 11.26704771507472
S 12.225532022146274 7.51285929468949 9.255898905483
S 9.920542043773915 10.351159111113594 13.26451558853665
S 10.71582125527976 15.64001198276961 11.540464056916715
S 7.446342353444075 13.05717769705441 11.754364716271716
S 13.039789112979737 10.20326274967608 11.620784148140018
S 15.606461458230813 6.535603368053911 11.850722350842675
S 10.284344794908407 8.410513536316968 13.16560125409816
S 9.218354582483567 15.682919546215986 12.875854956265268
S 16.093717464740354 8.484504136168985 11.914332589219603
S 12.05180393660316 11.279492510105923 12.841314289430441
S 6.538963508444683 12.41690518422872 13.75525294400139
S 6.243243241831553 14.005997500275765 14.772671573536044
S 13.455885155461717 6.542383525841793 12.537182266246608
S 16.85639194507283 8.947139265030021 13.821110964434954
S 14.467818443629138 10.855963969294143 15.355825291976815
S 12.508656449773826 10.651133809353706 15.016405184292928
S 13.109790684330337 4.904417967866279 13.482601864318998
S 15.37710442392004 8.944524965242447 15.223198014834274
