30
Energy = -120.80413585 eV
S 9.596727027636298 12.505590364656127 3.526167369495816
S 11.059227067436597 11.156833883673004 4.306131476933004
S 11.705156305605746 11.825674138248361 6.104162443386074
S 8.259621274573643 12.943556633730193 4.981160996085965
S 6.838001482184028 11.428179721497054 5.253486199572017
S 7.380392191613732 6.390922007342074 7.183707989248135
S 7.669713659436015 10.060748027639693 6.494437188652408
S 5.351392629948712 8.69265332920013 8.562163180172139
S 10.92265332811032 10.498596120308038 7.56618787224883
S 9.71911050042443 11.44481953521662 8.869308597025832
S 7.519369084121337 11.354282371434659 8.400606455591607
S 9.311461441634203 6.557290458386127 7.943390268888136
S 10.165809733573852 4.6751392014346065 7.919075695935827
S 9.510670135400579 3.4139159595291555 9.392157870895666
S 6.1180228159846965 6.7567292543216375 8.762390732602803
S 6.34661882775384 10.052433364124536 9.683153282191011
S 7.582734103250487 12.86564542208848 10.405017022593743
S 13.790827992946744 10.468749289847537 11.117718706790157
S 9.712816048682278 8.572441321693478 11.601251327963231
S 10.466179698222074 3.9624499975240948 11.180040944031386
S 8.983541507892019 4.152600591849232 12.582817352788444
S 11.978843249929408 13.355643791249792 11.550575519522834
S 13.650968759129688 12.245688696579512 12.127126615194141
S 11.62568801801582 7.907680685288943 11.149702139375822
S 7.596282458227041 12.275674753153266 12.335393678046326
S 7.908450915488039 5.897578467142402 12.34371981923617
S 9.485384023294493 11.73801446992471 13.012362700052241
S 13.058529917276973 8.870995664000922 12.265088692875088
S 8.937239620163819 7.49019815675417 13.17422993329077
S 10.711071807455365 13.401779947574303 13.169773554727023
