31
Energy = -122.9182168 eV
S 14.61539138234992 11.36433381831723 10.201992901245974
S 14.942450081114321 11.473147464165606 8.167174762349337
S 8.151495503049183 14.39112827630165 11.369813825711933
S 9.78454398682637 12.611787995695817 5.502571729910979
S 9.014780541244386 13.328561841477285 7.295927693878728
S 9.92936051686666 7.95545311934745 15.798805078268582
S 12.790828008819014 12.181365889785688 10.737539742180378
S 8.168633711197145 9.098527106280828 6.70574750435899
S 9.80469275126657 8.488734868801673 7.831271839939404
S 6.639986426562788 11.581292233153071 10.48360735423065
S 10.439359749425233 9.523977500994807 11.908148498570478
S 6.30828106415109 11.396625982832742 8.444953754593548
S 8.48385940390332 12.385544997901551 10.974979905900089
S 14.34369992574528 8.188336774548356 15.1022276103906
S 10.704208717432767 16.35461967097038 10.441211409501799
S 8.908841975227576 15.52723337395743 9.81185339057256
S 9.132674438558166 7.797388778938496 11.950935076642098
S 8.460050226097964 8.32023611513631 16.970869500006216
S 11.785597856023971 7.354576761548752 17.061585518898525
S 13.130051184578932 14.169586357605613 11.209686179754284
S 10.942766368881552 10.174950998728049 8.163916579646742
S 11.024346384413985 9.817674026423479 15.14793427602608
S 12.277584185354876 10.362508367356783 6.580424191290608
S 9.87986816220341 10.51300501297591 13.616974447822784
S 10.920498500246762 13.88864789865518 6.687516047884491
S 13.054064618301675 6.536258495943003 15.780271938066969
S 14.121797721914254 9.782964851908575 7.290096717952996
S 15.042647243057594 7.730294150098942 13.367724621753615
S 6.550382950219212 9.394840369632847 7.939853447327148
S 10.058392090123954 6.297402166307035 11.168440190874335
S 12.37276822628177 15.387250609110794 9.70549316113818
