31
Energy = -121.61932374 eV
S 13.373759021624604 8.472819675292374 12.24898609815123
S 14.432639771842924 12.911247302664961 13.754526356342497
S 13.164656171559836 11.372212874131602 6.710496935206724
S 16.516673255517563 8.659942908929516 9.592899944566858
S 13.83085922473822 6.794622637061296 13.095732213087507
S 11.620205754801477 15.702583946834993 9.191445080299298
S 6.028770680385447 11.474466491893061 10.364952429879423
S 10.75275408536097 13.841761646577368 8.87570054196913
S 8.232782254640453 12.747830212261821 15.02457345203803
S 17.385275953960363 7.7605392243562275 11.028489408961828
S 10.917243889468587 9.84448907972076 10.379756913208809
S 7.78458084133243 8.622859030932467 10.394903685728988
S 9.357675496899725 9.37558165191817 11.5678681497545
S 9.538384268074068 15.811720580032581 14.30651267816772
S 13.163326303567091 7.92547785300975 8.737492368121075
S 7.40488492874074 12.753571662168438 11.240795509776984
S 11.22337232743361 8.224925089128902 14.653163623521408
S 14.283205711325625 12.813936376732944 7.715605621170171
S 10.043468045220305 13.981033113311982 14.027214073945013
S 12.225710649388903 6.598833000309249 14.738538105732552
S 11.976272592394434 15.86464222721165 11.217415983836744
S 11.591078051082697 13.360107459360941 15.496773209552655
S 7.146458039409981 10.175387333515268 9.208340491251928
S 8.757661700825215 14.126063436833544 8.442512604308163
S 12.033581838284977 7.934943338976845 10.30170766572803
S 7.599466240813149 14.474628192610988 10.12297613590807
S 8.677824302318998 10.903563982028716 15.278587355545694
S 14.078482657942768 10.866618016426768 8.49668195534569
S 13.967026948877216 15.382641910069642 11.50425181883148
S 12.709355312188034 12.001816724266826 14.497480830324884
S 14.20849696486212 13.340287601545091 11.746908446738532
