31
Energy = -120.09050393 eV
S 14.509569825510056 14.294257451376522 14.175978287820271
S 14.160470772127915 14.46099086247639 19.63852046059219
S 15.608000413615363 12.60744109023172 14.078389419627118
S 12.48152731230606 15.98262475272923 17.94712054385503
S 11.845414403898607 16.108746151006244 11.105832254506362
S 13.463098470830289 12.782332701442641 17.44085606893792
S 14.879485573812234 15.477871660669852 12.490642837313679
S 10.312908832648585 14.873844736309328 11.723053017386546
S 12.428604591300541 14.072978591181007 18.612361833964307
S 14.453039137268219 11.00389481229399 13.019418408451608
S 13.578169648316349 14.978815454326336 10.97287016807794
S 11.997472294670564 12.115865850549469 7.98794969540439
S 15.749701343678828 9.586482682852841 13.041561620709954
S 11.004858858775073 14.115933479663038 14.958578540684549
S 9.804244163578717 15.23618817082287 13.696299197176046
S 8.999871042055887 13.425067569886286 8.437795882301687
S 12.816712266184924 10.187549790399036 14.401442164589504
S 11.904166605390737 11.262579539470652 10.084205460969779
S 14.6196881940449 9.101505895678457 7.355082737771112
S 10.232527650500383 12.230301533798919 15.208666211128147
S 13.67677502075973 7.490450213319274 8.274949211353258
S 8.354345357096914 12.244159833610894 10.141231560137562
S 11.596895161874619 10.586554590183285 6.781072134460089
S 13.1519965614698 8.202850453972912 10.121561342026641
S 11.041796134907907 10.90443225139334 13.788401376377132
S 13.362302005799982 9.805699331160676 5.904574464218663
S 11.383067013503528 9.343617586559981 9.949333474234834
S 7.145157000599581 13.861656081819797 9.338781582695482
S 7.749494042215076 10.469500647413579 9.778190061864537
S 8.950951312438134 6.439557176051761 10.654459608090157
S 8.530603824985636 6.384971171564813 8.797780928794294
