31
Energy = -121.16837403 eV
S 15.172933495600955 14.196295837922595 11.968171672426479
S 9.695102831082798 9.350509151653073 10.432813132691312
S 12.447145641671247 13.1562853020002 8.086747160614694
S 13.590354447340856 7.110944607114367 10.348620837059604
S 12.129932303101365 15.511449263758271 10.313904809722098
S 6.667276736858885 11.537460454794386 7.616979591759201
S 14.854074285459143 12.235550231461806 11.628336665462973
S 11.20661534398099 13.886476921361819 9.63998173135766
S 10.500792149144505 10.328268993068242 12.243092119477193
S 14.657191638888913 11.217852193237366 13.304738298182025
S 7.8988718597013055 8.733660170823958 10.87029082519376
S 8.2336985329722 12.57031767282712 8.71181226216589
S 8.743721332909464 6.773737157889001 14.151730899146509
S 6.630716523125233 12.664314737725302 11.730927861775147
S 7.53433565931489 10.842310719289863 5.959401794029027
S 8.167185741240914 8.841466966292744 6.346319074779348
S 8.442694004193322 6.6500039788675975 12.018267278467073
S 10.572851632944978 7.307925226951843 14.50065409846875
S 10.0921288494091 8.584453353894807 5.732265852927526
S 11.994193973351022 13.412140076865569 12.969762608455714
S 8.907291720432386 10.772361166076127 13.381849457465021
S 6.560180341042594 5.629595544201729 12.233015782084077
S 13.65857501827724 8.606629967743228 11.823047270326457
S 15.096148867928168 8.546208036492889 10.329156570821468
S 12.905214746244585 10.003881567304871 6.994651445687766
S 12.99694970681333 14.935712758448359 12.406049108122792
S 13.224657418254589 11.280142669628514 8.571217790167138
S 5.7326955787743135 5.437580939263923 10.497572979170142
S 8.192150447545552 12.71894499540781 13.075036492822603
S 7.198110281195426 13.716877864611952 10.009748341913745
S 11.479782409074515 8.516747342796084 7.297077417920129
