31
Energy = -121.8952726 eV
S 14.67017693281307 12.696492063510734 9.50780804766553
S 9.773050540494816 14.584272173514947 6.402640137498961
S 7.095492684954419 8.231500184253319 14.42181012536462
S 12.146036570040678 11.873566804622664 15.25266755575077
S 7.6751499045035 11.709762984588425 12.280371754838935
S 12.689276425434338 16.166997002526625 6.456705151401331
S 15.45954664633762 10.058859911810119 14.408908540657013
S 13.954983028828256 13.200898210857748 7.796622786446317
S 10.322758919476117 13.322209656283865 7.98525084731147
S 5.567140838783204 9.031456319747377 13.589719175713022
S 10.552814723086339 9.936335507582317 9.825043228057599
S 9.07675718425832 7.345274534001653 8.574412207169551
S 16.813376891446744 9.001970081679081 13.55909132853593
S 11.840686330906934 12.222699712039029 7.318230224127111
S 7.8215732733355665 9.416097265420895 6.186720231987947
S 12.85504048705015 7.338382145702916 12.343271845340519
S 10.83695449467793 10.861895530875413 11.589950177068518
S 7.34065544076922 7.9599493747218215 7.448072260407755
S 13.470454335236145 15.334733347314506 8.126839920095913
S 6.293643766365848 10.729269967324417 8.916713228543712
S 9.194932080719763 8.303757833997334 10.320584328013263
S 12.27503530048448 13.762077671702103 15.067207546053039
S 7.0700023804768 11.277997976947836 7.257870811346166
S 10.649561049170014 16.37978362385471 6.850598259870023
S 15.993770276525888 8.163877068950567 11.633196645367594
S 9.493258422028731 12.481165908846009 11.766814207226192
S 14.097034850866004 8.804469240562117 11.591909644575619
S 12.534759558698468 7.885806462613846 14.40981374382599
S 7.569762914040942 11.533609241461642 14.384276610366667
S 8.556208292423541 9.8923200390271 14.923034118982272
S 11.007076047758192 6.859903241845605 15.007027293982725
