31
Energy = -123.64614702 eV
S 11.100474737124019 13.2335304628743 8.688978844175312
S 6.9304288587730225 5.060841639330792 9.310213295714824
S 11.977464775998046 7.601590634261755 12.360867802654104
S 7.514482846479231 6.17334538940144 7.850478662632739
S 14.470021576498688 6.247439840528659 10.608697038070995
S 9.284404807611377 5.216809190418179 6.9459550945530975
S 7.309122182245304 7.97961167908828 13.18726302245025
S 12.914071655762768 12.121179859562107 8.538848463667382
S 8.534155494157988 14.786628150859404 10.532704677175724
S 6.634480838470037 14.176255251008635 9.952723993900431
S 12.447501889261149 5.84346183031087 11.570144539938752
S 7.034102680100603 12.05157261627113 7.404732243589946
S 8.941247792175174 11.403438468419301 7.008098244250879
S 12.062519037420246 9.233430753457375 5.945997838232542
S 11.427001010753779 7.74310534072406 6.988891916972638
S 14.84477708987592 8.108950630189362 10.83160179775155
S 14.282223645444667 13.434473606833434 9.296871226127697
S 10.20797520575409 13.06975834828026 6.870971520332082
S 8.565509517450451 8.398648522883454 14.88686179114152
S 13.369189269880776 13.97721514039957 12.544272041898427
S 10.56078884338354 12.052760666786071 12.56653274904952
S 8.935721877315805 12.993841450949663 13.386527897727767
S 12.309070270228306 12.551293757668766 13.579737687052486
S 11.1698856631154 8.82946059979324 10.842675948267841
S 7.950773410308234 9.961733487808962 15.851336433788452
S 14.68439306108518 12.969055484250125 11.270954941540012
S 9.250191700701919 8.219859952329712 10.46288125592558
S 7.894556677853087 9.227060494041982 11.678427140929482
S 8.689632754049056 14.899396144781326 12.574351943324505
S 10.02728645969543 6.6023967664381855 5.725268910543655
S 6.707916794072153 12.174415061453141 9.456087916755505
