31
Energy = -123.22710108 eV
S 8.63723943595456 10.789367551365965 13.978955499028238
S 17.60404457773852 13.824221810681642 10.87976403955833
S 12.811171675861623 8.622813818681468 7.057458599612389
S 12.873406347829027 9.893480675790993 11.477068245544901
S 12.43673242693548 12.895285010887548 14.27961744691807
S 9.221605036336607 13.241726906148559 11.732995985979336
S 8.951567521435503 9.492588864794902 9.390318190475126
S 10.659498589317216 12.532482830712759 10.253736622793262
S 11.57272668539071 14.090619768042574 9.578877363689903
S 9.538196781526173 9.138274217381188 7.491228579301402
S 11.56868425565521 16.2236070559265 13.499365044252638
S 15.94161928513241 14.749197102737927 10.910203557008419
S 8.063222777277895 11.624125629460769 12.151116694731334
S 9.295244439900655 7.466046180969036 13.608539947768909
S 14.075248878404711 10.216800525369482 9.770806158559163
S 7.0169310948318895 8.362155046954104 9.521604820916151
S 18.378923732965717 16.69180548589256 11.73028995338853
S 12.818354877013014 16.15835512292416 15.032727702794924
S 13.9447736534308 9.055031592160278 12.928620331129826
S 12.78276554424535 14.104953480131092 15.825639456195045
S 15.021806797247542 10.711246088093484 13.969257132882362
S 9.480954608171396 6.780723137590489 11.623501344001347
S 16.486042685436214 16.779270746449466 11.514993563490142
S 7.697394795533724 6.501872858465456 10.791441431739145
S 11.01242253611357 7.659153743488453 7.379561503611799
S 8.320676002403534 16.510674279339103 12.869398756797338
S 10.10517718338909 9.356914734054078 13.746485822897638
S 14.080660271692787 8.471030497662694 8.680419382639318
S 9.55279065217216 16.498507807064406 14.352251341851915
S 5.751269939282275 9.39361223471361 10.531066645413526
S 14.278661662089934 12.404097083422931 13.263491964136444
