32
Energy = -125.9380661 eV
S 17.19982814220793 10.426498115841808 12.077033376403676
S 15.441351685101777 11.52278528928117 12.370816831135446
S 16.934816094899098 8.508627023512064 12.360951516273195
S 16.232228735215713 8.071991180254821 9.979666873029387
S 15.580741426296566 11.985867160147748 14.479460499977385
S 16.12945407761322 9.873706092432187 9.347030408477028
S 14.67840948210778 13.661814752478055 14.792729313089163
S 12.07777334968768 12.315334069923958 9.316330495765351
S 12.46436715348787 10.481162347197172 11.606062534294178
S 14.374091911165452 7.260806184467964 10.88729375217907
S 13.460534740979785 6.207862027337999 9.414164607896904
S 13.11556896153033 9.997945385231885 7.1805596170841905
S 10.155588229231068 13.121088357731715 13.044027672591909
S 10.663650774017427 16.82061549197356 9.7485465348265
S 11.492552581625615 11.276549214593063 7.776112175546745
S 12.120914579170313 9.554163517951597 13.457945093930716
S 11.828982419676791 7.295668829873972 8.720544658398723
S 12.254388279249547 8.173747194873094 6.889687942880861
S 6.3785719961368965 14.660400238779031 11.55556624122112
S 8.308423277542685 13.16634601241914 14.194836315568285
S 10.633909742986669 9.557391007748173 11.995765553853197
S 7.488049793545705 9.673942017154857 10.051588655409256
S 7.9920651156078115 11.613370528874217 10.298146297560121
S 9.815249392637252 15.232724638538684 10.41639425757694
S 10.415311173777898 15.033312044084191 12.593859659737737
S 8.328457633326684 11.41503091541728 15.21840883427371
S 7.2023211240614184 8.67901605414431 13.304236626595
S 7.391546426932641 15.774870854701057 10.389653331900572
S 6.419202920021764 12.799883881613518 9.322354313084125
S 6.172974405441496 9.075161840539401 11.562824559207897
S 6.741801464681463 10.18599647651406 14.65480698301374
S 7.315240465716224 14.197372497751681 8.32934613859013
