32
Energy = -126.8647668 eV
S 13.098365536046801 12.565409196369924 13.249162192588814
S 11.810191311299834 9.555277680096664 6.5165037837097
S 6.904276183980891 11.883347867750558 9.819459037161364
S 7.150518352442686 11.466687986127532 13.843232594606935
S 12.39625006767794 12.150991119382017 8.234714246139308
S 13.41004777348613 6.909905018190768 9.501742978812231
S 12.854274561610973 5.598948755643931 12.496739933480898
S 11.94759196122719 11.567026906923203 14.580412611970589
S 11.833049784172404 5.993516279384702 10.00182607413372
S 7.0522991941127104 14.510070278351645 12.540162050670471
S 12.969090613427646 8.743477637333335 11.460007153242929
S 7.413524400737642 12.736695683160567 7.985868870874232
S 14.454855079330256 9.68135132740044 15.68009271800315
S 6.747923478088979 7.705877639051362 10.96651274903278
S 12.500871614495189 15.593390316239358 12.040681812352867
S 10.028009223475255 16.352281124680292 10.100742632819752
S 7.272276073709906 8.47549147393778 12.644759549385936
S 14.423314871434904 6.535200791038981 12.003724470969983
S 7.835178615023215 8.759225698352667 9.327168800407836
S 16.7901897620768 9.906277318530929 13.259552986074416
S 13.293636970243057 10.44505289797848 7.733203430781223
S 13.1819913849688 11.147476287291777 16.241311876157777
S 9.978839780487062 14.97297262959875 8.54608405251668
S 8.028596439616246 13.159501719314017 13.512454307356437
S 11.512372079895854 12.715573607118046 6.240536723141878
S 11.377494096455074 7.845329236376913 11.953053448491916
S 16.11525099343463 10.813985593948129 14.820538851069209
S 12.101896856181105 11.132674620809917 5.163460569487797
S 10.331052727838523 15.548411437425441 11.934803125835971
S 12.97094651621171 14.655023939314777 13.733263432812674
S 8.423688257606942 10.48103524504106 10.160354459018087
S 7.921867639641042 14.694568138526131 8.178147412637749
