32
Energy = -127.40773889 eV
S 11.74910494103466 7.964624224940693 12.923825246949235
S 9.729931635926642 10.655043929950748 14.28965727558977
S 12.955753133826695 13.187924873732557 10.938998649472849
S 7.627776589511896 13.190141850245434 9.398947260550305
S 8.324144413625392 9.195944131799624 10.790608249561666
S 5.3759721450348845 8.24462886142409 9.416790401460634
S 9.53170732655391 12.55769450756642 14.263130459984968
S 7.0509933785395 7.872418552499128 11.28351817438729
S 11.938452432947958 6.074545758143263 12.706277490308864
S 7.69058010932151 8.723611095830897 6.996811149945695
S 13.220767734473494 9.317808519323751 7.6041795298557915
S 12.836996226961471 14.325071485960796 7.076003934698158
S 10.250932117489953 12.009579379184244 7.649458912176304
S 12.353434461513851 8.189978172690983 8.904028959708121
S 14.548895876253116 13.972542131351132 9.895548453477112
S 14.458058615592734 13.335518163822673 7.931408167457727
S 9.937011933042315 12.848978632797307 12.050398663877104
S 7.970678412586891 14.956985990989054 10.365075124187904
S 8.426424564569295 13.0799717759125 7.502395744343432
S 14.15184912938544 11.706314504725432 13.67182875300943
S 5.978919663765922 4.829114905596624 10.013972678937726
S 8.861980349573104 6.161464785477866 8.704130476152745
S 13.432931968535227 11.342331408077987 11.800894821500732
S 7.672358755176438 5.619664074300891 10.454666750058198
S 13.385353297385981 5.770979339879627 10.937962851282167
S 7.494751403398719 6.763855840716716 7.275019089418054
S 13.85810792323124 7.607671150480033 10.442007863135064
S 12.60620344592885 11.631385312422102 15.156405484853572
S 6.379251063551247 9.658131978256542 8.596365470928417
S 9.868300698101299 14.701847048861307 11.343919886144407
S 11.570297545044719 12.859639397549902 6.334074895801901
S 11.613637183876133 13.326702421968031 15.244137338293731
