32
Energy = -126.21172125 eV
S 7.3306940818119894 10.025479633266013 13.150380552202567
S 9.798663612953128 8.960003013432834 5.322731205994202
S 14.418134171207502 11.158138431506016 11.097017010635996
S 8.953919925629272 7.6533701870003314 6.4292153367741465
S 10.510526653834262 15.487764768036556 9.739530918357046
S 9.487270765186917 11.238176650506109 9.100924501146388
S 8.99430636262575 8.384975616579824 9.598066425640965
S 10.219353783736098 8.683553558815287 11.32482804497226
S 10.93453495852341 14.692738290702236 11.509014353497864
S 8.554887984123665 10.749188905947676 5.556945936168879
S 11.421292870444368 14.357886182042149 8.219646451214711
S 8.273427450827457 12.982081669892692 10.215310820910394
S 10.11182985279616 11.662954637285047 15.374558069039413
S 14.702243534540324 14.569132801772756 8.821316767010108
S 7.308059221889376 8.135345653559769 13.48745917120534
S 10.882404086429666 10.901860650937122 10.395768742956935
S 13.728783275301609 11.797265533597526 12.842204563314173
S 13.210429067861117 15.313802663489023 7.730003264868436
S 7.402158725011412 7.377476508776388 10.013890382038824
S 10.40283204280478 6.385799957771638 13.926330945573623
S 16.5929796944867 11.861470535422166 11.1725937660809
S 8.280178646821907 8.883607227571668 16.19032640560312
S 8.007680049196566 10.647894509446289 15.545647404408939
S 11.307293466597578 10.266701298060847 16.096313174764717
S 15.204279299486739 12.65630461048852 7.714827444749595
S 12.316537556512047 9.25819233860104 14.52146729658719
S 13.873058966678894 12.390354054211926 6.364335533369818
S 9.276944363185647 13.149483985537197 11.850698658975235
S 9.17048894135421 6.942670148996408 12.563686568773402
S 14.065188020095832 10.291217408910637 14.300260035880381
S 16.868116737595813 12.666050600487697 12.8856626107552
S 7.17932289170539 10.205005781550732 6.765291634330548
