32
Energy = -127.06931779 eV
S 7.599354293092849 8.423752367019624 8.64417825508622
S 8.213500346925214 13.13327572198439 8.828002831397693
S 7.875420973761684 9.260619770165714 10.461991151677307
S 13.946735483646535 11.283812358872968 7.584841656369811
S 5.562693745835966 10.25712057048244 12.117005371082572
S 11.151348467672062 11.775820454119977 9.3793916150705
S 12.393794001522169 12.491338800328137 15.925280306566949
S 12.259014204337575 7.323520090391382 12.038907702741874
S 10.085508558386431 6.324295248295946 7.964270510309232
S 10.547378425342036 10.418554239830664 4.737152674593283
S 9.988355925218675 7.434300882497089 14.641733032096205
S 10.212098696751852 7.758893307609575 12.76888995267544
S 6.976469317979199 12.485242345435813 13.546418731196836
S 5.010380250159134 11.94675763622625 13.082401655518936
S 14.728334391816317 12.431948513994364 13.31562871251682
S 6.878330792605336 11.254888729062875 10.442115433095738
S 8.948724871602488 10.828078668626326 5.794697068346122
S 14.385447436170475 12.53938629670698 15.318098184644853
S 11.958554140668468 6.378356656893375 8.816031535960166
S 7.656247760770565 12.85536297921574 11.643970459767429
S 14.66019640815576 14.40735406999345 12.545182290970228
S 11.952498054935994 5.744782259324882 10.807719344154371
S 9.402219560614789 8.253969019574559 7.552409855323718
S 14.892023454264843 14.020549941667186 9.26796366963859
S 13.552160218842452 14.277939327648241 10.8376985964616
S 9.775382698205364 12.493265093033376 7.804648233734401
S 10.574092544450258 10.215865018672071 12.762343415493065
S 12.350716522300521 10.373547241665774 8.594757387845332
S 10.105602206994837 10.498730493248031 14.639226810780565
S 15.26400944892067 12.005774689540127 8.989641124927626
S 11.778630594391048 10.52249712226181 15.93937445683529
S 11.594836329152137 8.872265586681527 5.334195373638823
