32
Energy = -126.17642096 eV
S 8.943315299852054 12.150821020370548 14.614822848476098
S 8.004315161830963 7.706104578022227 10.825342911026155
S 11.528992483441176 9.608774366824953 15.248098097488388
S 11.710444825613575 13.335486463833107 10.293713180324511
S 6.149100037597846 10.089352897944849 8.202581376734534
S 14.569140573358698 11.983567267444185 10.800264027614935
S 10.794966306875962 12.821939202354681 14.457918639100027
S 8.367922184299237 9.746587138500812 5.751187718588796
S 8.354360694395 11.827902421374734 4.925132482676919
S 8.147123502416486 13.071618719764034 6.447386003969508
S 10.214651163560978 8.455202541614534 13.344910580274972
S 13.888212753244177 8.34383467910259 9.733875458958542
S 10.30208609268435 5.889245502576335 9.452469701447175
S 13.842395911654398 6.685328723194636 10.917137821533485
S 6.175654625615534 6.780985388789255 10.458489668241429
S 12.907630532530053 14.087575917774968 7.232472757075016
S 11.767364173650956 12.749523650594439 7.9676949079731205
S 6.004648569386555 12.071438594689223 8.697842729698479
S 10.762838120889514 5.826401659015802 7.592306211590799
S 11.491035436073318 6.604094182988177 13.301034124907014
S 14.99779095346221 13.821170447115259 10.522747870039291
S 6.33191416927982 8.199113216376466 11.975200224235229
S 8.221331291308488 9.865710242259933 7.721241795347869
S 6.298411531320849 11.653808933232948 12.638025953456811
S 11.964579746762418 7.665319431502324 7.085545025261077
S 12.014160353730125 8.66477347335846 8.809274386822809
S 8.095658505675846 12.355378439397223 12.585831931551757
S 10.712210380133504 9.70285348596844 11.985698253899685
S 6.067976693594887 13.146527878471744 6.9512846022763775
S 12.879882582513881 14.860058464529281 10.269089328201375
S 13.364054612636425 7.199910395947967 12.897519509722054
S 12.137907856168058 11.040641067626767 14.119339355697425
