32
Energy = -126.54001913 eV
S 12.42664757055374 14.411027880829748 12.805674677071822
S 14.247315808211228 11.687673363398089 11.665488799637693
S 13.81354825739993 8.067824091992314 14.41775591759955
S 12.130645033325221 10.148398158078457 16.63170945660472
S 12.121960867495664 15.669431288020476 15.907686878237433
S 10.157859422701666 11.781001925912179 13.435343580769608
S 8.052386145591422 9.790444637604926 7.897394723078667
S 12.856313432765663 17.011759719194412 17.08121235365909
S 16.48711412230709 11.215788205065117 6.580675704585851
S 10.060678297950394 15.005346126821546 10.636884981669581
S 13.303945871584931 10.443124893581226 7.460965770110984
S 6.581188775939201 13.292534732674667 7.707754222970739
S 15.045653877136258 9.717986414423784 11.683044479955724
S 10.480568956899544 6.74737887177477 11.933991854652396
S 9.228184370705002 9.975244538025468 13.765698270441648
S 8.954414362950256 12.082275316089069 5.624967710659816
S 15.39943756128932 9.925830884441366 7.526447012519923
S 9.445460634690166 6.66648062008147 10.307131521487564
S 10.604196311018217 15.01820388586843 8.789828950747875
S 12.546320094397544 11.571987385831747 10.537806243812529
S 13.108799583558923 15.762931558998444 14.012732908050035
S 13.048362164932188 12.123253598873104 8.5902051172128
S 8.669821038178645 13.342207108823295 10.91730919155004
S 15.429000570701959 9.157815697127129 13.581819020636203
S 7.158585714108726 13.454778464378105 5.892152989841133
S 9.26235467014093 11.455293209149334 7.484074801734061
S 13.596657768987507 8.745529420262631 16.348892687350357
S 9.138285081649625 8.106710913868328 7.353596905855375
S 10.543365741947271 7.747396159366949 8.772631339616254
S 10.375328136485635 8.94606457487421 16.733010497708136
S 8.648925842868092 13.149007549415202 12.931267857825413
S 8.899013034785545 10.001474082083973 15.829586552668118
