32
Energy = -126.42893986 eV
S 11.149968051016817 12.36724312420725 16.358430513729736
S 10.463049935739441 10.288370007575963 17.112123383054676
S 11.350181040346868 12.049550809237529 14.4258662349129
S 13.40805012370512 11.46201622214349 14.113988080882859
S 14.176893153591882 12.839688199092082 12.828076753633816
S 10.263595493341652 9.19242316908404 15.560226947099284
S 10.228388742088416 11.970008802707902 11.01762852057984
S 6.861278516657264 8.318943173022971 12.335768511579273
S 10.577669908432545 13.354177818650665 9.71231315740855
S 15.596254723573068 9.178526213619293 10.347718478043149
S 7.825013717809726 6.727699961011852 11.390856309054852
S 15.45982658438783 8.490995458988277 12.360237802886804
S 10.949608660734066 15.171916192767087 10.679979795177108
S 14.046531504152686 12.158319724999988 10.865884406140907
S 15.854739250327732 11.198959255041162 10.496263972795983
S 11.190131064348673 16.406606476548678 9.007689465808472
S 7.462398246073407 10.093168076359726 11.51054632324509
S 7.184574611271254 15.406244434338166 9.974495208624855
S 13.861254957259703 7.28349976072677 12.473405124734013
S 9.644222288985729 6.314765193572982 12.201972121279175
S 10.960444880139034 7.550335613673084 11.060196702513403
S 12.097351907946221 8.526971766458866 12.400506376576718
S 12.044383030881558 9.527600615247493 8.35817941495104
S 7.721405926945821 10.753363489320412 8.13966660083896
S 11.006410981908664 15.348288045115835 7.399152713770295
S 6.493659210398374 10.128899346447612 9.608737719813158
S 6.0830110382339475 14.390056951366137 8.761864051346157
S 8.839596180720632 9.193219889502029 7.23729871699171
S 10.713399602962935 10.06632220213123 6.973039635874518
S 6.654913581900274 14.230973073977522 6.929366170115598
S 12.916244244351926 7.6241826842452705 7.459567273179062
S 11.973399427558048 7.249526218415542 5.8376910633928984
