32
Energy = -125.27018704 eV
S 16.355420269363993 8.32469863516981 13.885258581888557
S 17.294768068265842 10.073241741030522 12.644072339985867
S 13.194090990972422 7.769368710006482 8.498399898991492
S 13.133901691508255 5.600552924423455 9.463396176393317
S 14.508889541783862 8.326790112376973 13.397585743931437
S 15.72775444089795 10.79884966310581 11.73759948002497
S 11.2921162216745 8.133200842413052 8.466262071841808
S 11.21617394560583 5.421645790877863 9.66709856825767
S 14.891472281948127 12.190882727491521 13.263622339473795
S 10.552659519689769 7.478978905105003 10.64358252184908
S 13.575141115049165 12.70816278018415 7.00951366976699
S 11.64399933621399 11.396194409456188 12.93477722016697
S 15.421298137230204 13.708030305892578 7.820575222386127
S 13.211047776511366 12.900608725544433 12.526620452489503
S 12.336794408577306 12.696519153983052 8.568996705318005
S 15.07413058188007 14.2224895389773 9.630217996819704
S 13.921262996829821 16.544313325009323 13.38700285839276
S 8.64036133667046 7.513130487381101 10.64079083472036
S 12.069959558572236 16.630628722982287 13.804044638501114
S 10.36571750189528 11.663318819276395 11.445056439189555
S 10.179778745510276 15.252244822676285 5.693189073536146
S 8.998502072949119 13.167352858970377 12.276602366042532
S 11.39735098734608 14.563537099235447 8.72828846364046
S 10.902507553399364 12.975705608762267 16.455494278560337
S 9.724783463772567 11.448643307939316 16.360946739065227
S 9.752279802154238 14.438025681647582 7.403562388924821
S 7.742670471816157 12.23278525978317 15.988984164511178
S 6.299111386114806 11.772407527747596 10.803008827774088
S 7.624648827118146 13.479144020939849 10.872668074588363
S 6.651924733705494 10.08144378473512 13.578963142020596
S 6.5704279619540324 10.616679553718008 15.553649397684346
S 5.37816273053193 11.462902740684786 12.557326132697598
