33
Energy = -131.53061124 eV
S 10.846973860996105 7.603164674957956 12.00471715494542
S 13.481070838117565 11.126444523863578 15.474869345133772
S 11.366862637411831 10.85306520098463 9.214536058146836
S 7.949006651324401 10.246197653853486 6.708019070505972
S 10.391986305494948 16.27198184090809 10.790334474972001
S 13.527218094946923 13.072824989445026 15.096512386920516
S 13.136780800527664 13.140446391019555 12.931847857488728
S 9.648407793552167 14.49265926719314 9.539054747622393
S 12.675772480651505 8.183229199639088 11.844154478442983
S 14.474820289810399 11.17433075192688 10.403415691604293
S 6.698892840360427 6.025219918458182 11.120327950264196
S 10.875220009511192 15.633778937863783 12.610793495935562
S 8.039245299254253 9.662213596151975 8.601474828622814
S 8.368890760481678 7.559478408174018 8.63663635126157
S 11.176179207703852 9.710642448429754 7.469251284302501
S 15.514139074588677 10.423570984943444 14.949758692485888
S 5.833926064065997 7.254135196628467 12.523462303342535
S 7.429784557441589 8.161083620980111 13.554696268447024
S 10.059000226395376 14.937183317808369 7.71299123382218
S 6.445596668108802 11.888848332378597 10.908845059949744
S 12.967542113090046 15.08005154069023 12.514443142905868
S 10.07333096372735 10.708283764955178 6.151464866846872
S 15.396919787390921 7.759750677724539 10.020585308957935
S 6.681150860986642 13.94309596472756 11.291837667840168
S 15.790601248484693 9.75993911793269 8.955818641372934
S 13.208779976280777 11.896870377666072 9.081783354079864
S 8.034847695039241 10.982914734710999 11.839546668630383
S 7.407426160596022 14.754515380716763 9.604260953907183
S 6.573911739276314 6.722304709973044 9.166187732812668
S 13.457009622172391 7.402079442856053 9.927121391289994
S 15.426086012945953 8.515151324005203 14.675180884642801
S 7.234339792120883 10.182684661509509 13.60936966552849
S 14.841204634723525 9.88024398535395 7.304484469346545
