33
Energy = -131.93616694 eV
S 14.069900389111128 11.692304875506617 7.681693442456299
S 7.07159589246029 11.753250359658066 9.214602313176876
S 8.788275322956348 11.324135617456415 13.092502453711885
S 9.298833940075045 12.006014756229805 5.95980637081976
S 13.31999088349941 5.807416916912709 13.04958506339649
S 14.250645374057106 8.506855397024527 8.872060015298642
S 6.696289642993255 7.907373984050946 11.43826474758061
S 9.877601945043955 12.249699284997357 11.585608413962694
S 9.587835120925478 13.404438349516138 16.420475223633964
S 11.585745532917512 13.657724304002366 17.265335110168575
S 10.410288023828397 7.550103542694792 6.216172769974003
S 13.574419630857118 13.458479998873933 14.555711314446047
S 12.236720431609823 14.032956682664492 13.145357516558654
S 9.236264939705448 9.301956517946964 13.166313503061728
S 12.492289777371592 6.694459800253714 14.51745060344098
S 12.403144133104844 7.455782182649821 8.985996851531052
S 8.745107136727194 8.307159736250718 11.446815994732601
S 10.387481925205417 13.587879620356892 5.258183097411999
S 11.10225019243545 9.246705168120364 5.272328378811718
S 13.508151740501823 13.485232105626165 8.405595770050605
S 13.456339126513395 8.663324065001492 14.532645738481596
S 14.67839572301985 8.566803145057763 13.0708117921275
S 8.322338423340453 14.282089920055835 17.575215053453697
S 10.685254985003088 14.821429497535174 6.944298598756372
S 11.87983949060329 12.327721393100635 11.938454182798369
S 12.636362712256307 12.382566075606489 16.100384676804453
S 11.389546756718643 13.681270143386877 8.473442067409797
S 14.13592870352417 10.4262520328876 9.4506160517211
S 12.03475324842688 6.652106170377108 7.12895864784979
S 5.932127714567775 8.729919994095455 9.699424932721524
S 6.835146706449251 13.612824775144633 9.65738517376097
S 5.356322586060737 10.658589212587355 9.98542857953397
S 10.786512712553959 10.743418751602512 6.676600027603405
