33
Energy = -130.20291452 eV
S 6.596213964385856 14.523244810621051 7.859238285297671
S 14.601932858918696 6.8613781225754975 8.200182756862803
S 11.880217854648171 17.404789290156153 10.722274123156165
S 10.29792344682718 11.832088579505188 9.915773743608055
S 13.540170695864585 10.593411539547455 14.117455433090406
S 13.90132761375385 15.573724455434192 10.667958503740987
S 7.430841274644704 6.972462076950363 10.766124087488508
S 8.737039111446865 9.428005842483403 14.939091504518576
S 12.970302831789462 14.50940383796636 11.926254444920719
S 14.580296194872847 9.000981551289087 15.227778709166468
S 8.109865412428519 11.412346423828437 14.489758204065197
S 8.609180297932998 12.770458552825133 10.064710949412282
S 13.039038285506402 16.57734644736155 13.716665404831012
S 8.33379682330067 13.73292786107121 7.91354480293408
S 13.04815026400662 6.416178235818991 10.38496962309585
S 13.969471307145334 17.626541997612602 12.446394251495823
S 13.571105162861986 8.388449793839849 7.77006137402957
S 15.242601671158095 7.986108582126587 10.603844227926992
S 9.917166809308602 10.738065681415558 7.848221236609645
S 14.217676927586067 9.513217572912177 10.157387107477733
S 8.133086071845597 11.389678560900784 7.482044814192934
S 10.41339962863872 13.517765599893375 15.568427426920284
S 10.9544538036034 16.336254788385332 11.980014825034713
S 14.914067420084097 12.956197402022285 6.719072161526829
S 9.773559449694192 12.459130790693305 13.916163453283437
S 14.498898162556793 12.275851486337546 14.492788401397977
S 11.988359965419589 7.9215100484258425 9.946496938146083
S 8.688047895508912 7.889472547139745 11.905364918328953
S 7.627097093602786 8.211822852051135 13.792098950531887
S 13.702688093937923 13.02633375194276 8.186489918396354
S 11.834519350273153 12.335516790814403 16.597894462214732
S 13.45375905648622 7.440413935715819 15.132327819055645
S 13.659915253581675 13.100976988668632 16.37078808685596
