33
Energy = -131.45684015 eV
S 11.383071266299366 8.762380064284562 11.06460050516902
S 10.132161508948302 9.057922639540957 6.954251297344044
S 15.981307141722885 7.018158990596687 12.261789611596777
S 14.603885542379023 15.012098272257894 10.147822844695927
S 14.665520242737141 6.3657164828213455 14.009755460439598
S 7.5782988914454235 6.705015563856351 13.357303399631512
S 11.531950601083265 10.556576017376601 7.199883669910363
S 8.988760350677042 9.0320173530414 8.71727735619322
S 16.345915995047502 8.919784826354487 12.681704112635062
S 7.1175787601902964 9.721931068559213 11.944101566155569
S 10.32831846890228 8.768985235992808 13.871610797873386
S 6.754355726540795 11.940880124484853 7.391054472402264
S 6.1346604766222566 8.303041007017894 13.031470437315122
S 16.437848013588713 12.100415339342655 9.778526882213223
S 14.340529239341457 7.912716140066981 15.086798972788566
S 9.77975673604646 13.426832819318175 7.496949460244872
S 15.399623381049755 13.605158007475081 8.843246448332758
S 10.959486905886141 10.639653194431212 11.118387612448931
S 14.770924009202714 10.11485496341248 11.909210243107268
S 11.102403627113446 15.266391126186894 13.11963158935123
S 12.096028975279907 13.848386334500649 12.081077235943095
S 12.607837418333077 16.363351415870593 14.25202769707273
S 15.204059359100542 10.421559379082892 9.934071967914564
S 12.573454790487762 14.692393021772055 10.21417065544979
S 9.768224859427928 7.680679485363833 9.975828646203018
S 5.967629983490421 12.792473570197222 9.34811256665052
S 6.750117145361361 14.521963764522672 9.590031590796931
S 7.847718901776657 13.437362503486407 6.673532329396145
S 6.564671603430966 5.116284753924304 13.76878897569732
S 7.897132286256332 11.135746076404057 13.161166563292879
S 10.042808859669433 10.624880925199658 13.514060809597849
S 11.691764356027987 17.86099912265126 15.048892906110641
S 10.93913512785236 12.275453407761162 6.2297018419373416
