33
Energy = -129.35864228 eV
S 11.59975357327102 6.1702482773497955 6.506481183663321
S 6.5998025643228075 11.936922726004056 13.797949354681714
S 10.097942197746015 12.945397282713635 12.44552626419402
S 8.970326422629016 4.526687800244028 7.6667494991075325
S 12.559614742069307 10.186767319220472 15.572797809750309
S 13.563351329284872 13.538114379245304 6.3161616063904695
S 14.709543449747 12.371126237693241 11.5659402283488
S 13.605270439538067 11.755991762425571 16.454903419588156
S 11.915168166389241 10.45408018776948 11.036326246476001
S 14.508543298198694 14.24846300930178 14.388116069640654
S 5.00328845473382 11.252350899477552 6.520873144027244
S 11.72047325096678 10.818290149129258 6.1613329199359645
S 7.748151603007311 13.470157043645948 8.639094443172286
S 7.852700401274391 10.523509627852798 13.495994072212437
S 8.655221076316513 7.441430348437188 10.086057468404654
S 5.547987390041911 10.928212304182418 8.350284460984238
S 13.727704819854965 10.762668355572655 12.253546580925882
S 11.576544369715073 12.706267912343787 6.9042137932679095
S 8.234141961438842 9.232668671872595 15.31101223429459
S 14.956620465067179 10.590519022861823 6.682068685944781
S 8.32246861657306 8.068641662947455 8.289061891401671
S 10.515474489216539 4.577830643391006 6.509223723179446
S 11.144792349396873 12.187046370088837 10.562616358955164
S 9.249908601158086 10.268916919614066 16.72986287849102
S 13.856448845291975 14.074653035370021 12.450246751591969
S 7.6082519187125195 11.343510402509155 8.67926290693614
S 14.348811257775006 11.96015352119675 5.3098948629815235
S 13.024122134726397 13.583027965600564 15.680011318462462
S 12.99144189166434 9.769252908277034 7.347046368572828
S 11.174969994439774 9.467372486379968 16.91034517248015
S 10.217807553431665 6.339858478635407 10.35291725765121
S 10.044335941151111 11.424073491695262 13.653466267614686
S 7.082433471408059 14.284795965751034 10.264493962067055
