33
Energy = -129.45358664 eV
S 12.889220972240402 10.426439518625946 11.033594455988936
S 11.513593354871988 6.098763424305467 6.416909591446188
S 10.214120818208167 11.220810842135059 15.993081883267928
S 14.229453187287557 6.67235197040092 9.68195303112239
S 12.689122254028737 14.564129958513949 9.907609788329246
S 6.218261025087035 13.143167128300934 10.62938596712938
S 10.385780527733955 9.130060590981202 15.776358915654125
S 10.242179060516237 5.7045760714365175 7.973908716367033
S 9.561777911328331 14.076151785629307 7.702122204318536
S 7.418455524030222 10.234019773279847 6.895763684781576
S 12.466991187272939 7.911927640830599 7.047812051109953
S 7.370805271218259 15.597487390519616 12.419127731755742
S 14.221805930360928 13.350406030002455 10.008690067325118
S 14.314375547828659 7.462409151865401 7.586759383317357
S 9.722124287608512 10.429216476892341 9.889369264730652
S 13.59535254886646 11.408435097804386 9.386670133442998
S 12.912720830879366 15.070114159467312 7.518752383163814
S 11.220054236429686 13.60939302386996 6.859707804539733
S 8.317967503838648 8.810145080636147 15.372724440102974
S 12.78971469308839 9.282587907711928 14.589256115056537
S 12.124633589839112 11.750766744684702 16.425843258003184
S 11.374119218273513 4.9887236624603615 9.524973863161192
S 7.305531160600352 10.448827262331708 15.18966580614407
S 6.810931497399216 13.932158509332933 13.378362770854071
S 12.342927467478013 6.750534973408117 10.26709989113336
S 9.106965072341366 9.726889062921343 6.184569968734476
S 7.559391265304042 12.444333388866022 12.08498283279829
S 10.92473137127474 11.087367441994969 11.381500799327629
S 6.894923179613203 14.999388597642877 10.307761473220971
S 8.983521971943532 8.442761800935939 10.3790286607307
S 12.930898297157832 11.256807109752748 14.527208409237403
S 14.52893567654263 14.16358765076744 7.054268863095126
S 7.971824353908318 8.446296185902106 12.027438288267563
