33
Energy = -131.41003104 eV
S 14.847990010751316 11.23629172694135 14.648763588320687
S 15.728993059014554 13.082533413633554 14.020395798975859
S 14.328569416951888 14.112601209984726 12.888461457850035
S 13.539210267658854 10.31235849377931 8.480831591166735
S 14.239167061184 9.568456675999883 4.921151952911615
S 12.57055320281972 10.435309927070177 4.4964990668114995
S 12.647884276891055 11.857159212450359 9.727663902498403
S 13.421079677993543 8.578643602359925 9.496827103472055
S 10.983416517175797 9.483557223291832 5.513163848781316
S 11.8778095979586 13.337052012885662 16.609439340085604
S 13.343639500951152 15.414176079183015 14.03069262328329
S 14.002292377402508 10.30102009522062 13.18384321760947
S 12.724651472786208 13.423255230422097 8.462479970712195
S 11.628842838851481 11.464218119015769 16.13601966859696
S 11.784679668752242 7.420965731622051 8.87283273397398
S 11.321112948338408 14.371542534385698 14.430738839855346
S 10.24736476910583 7.553347729879509 10.251403675526877
S 10.945599647843713 13.546477557904959 7.336097766654024
S 11.641235321503055 7.574640016113099 13.184553272167387
S 10.722922709374425 6.282807474029774 11.784523464727718
S 11.18009961264916 12.837316102925328 13.313007908760486
S 10.797339305655518 7.236838056424982 15.006188473612493
S 9.834072600338798 15.052334134314684 8.142663418559147
S 8.591614478908554 11.084785265805051 9.130840060844962
S 9.308627618958749 10.36493259659615 5.1781164801576764
S 8.319929161221316 10.640709925915315 11.434345282856377
S 9.578413069271985 10.976598301597205 16.647746312802248
S 8.623791129574636 14.333730849632628 9.736609744491105
S 8.86290333232186 10.069799334277066 14.973304882816723
S 8.875824020122467 8.011154913524063 15.185642007478844
S 6.8218707292409535 11.689685271053868 8.655496647293756
S 6.472292238947376 11.00413651094791 11.748217388582159
S 6.794185468487868 13.933731470793319 9.09171663778224
