34
Energy = -135.27913299 eV
S 11.523327811614365 11.91981747363363 7.098660067826563
S 14.583490034595576 13.11436028281009 13.502702075411655
S 10.910054100291921 14.957837436734163 10.676024753333149
S 9.236573730487487 14.360929034742394 9.921695563390259
S 13.111180439554161 9.001637126496279 13.031497878584423
S 6.439791890459634 13.331824995531363 8.939910088868325
S 14.670621611236323 8.151535269891431 11.997455105413525
S 11.713122152661597 10.981759251602792 8.976577228763196
S 15.10428269365714 14.506942904539974 9.390710084197195
S 9.101625794070937 10.992689370499198 14.139171314269456
S 11.436375590151977 9.804739909810536 16.93100144769856
S 8.831641975382833 7.099863912888947 10.234272097084412
S 13.490687427447696 14.598089332307444 8.289485471755421
S 10.180244135407156 7.478412615536126 13.225364069126917
S 12.027534575777022 13.89649805429648 15.397004014253799
S 14.005978430683905 7.195328303723062 10.284710751802432
S 13.853627424848469 12.326026779025183 11.69198529137717
S 15.28554780006382 12.566987445513153 10.27688545582162
S 9.089057117088112 11.879359496643275 18.284084476377714
S 11.853268915619411 8.986733216307567 8.527462065030189
S 10.215844111794611 6.362346872813369 11.358821851166843
S 7.1293431788740955 14.40521430876057 7.486588176088208
S 16.27869570058788 13.233109426683685 6.868606345020781
S 13.863678904834861 8.458378230497514 8.664520398986975
S 11.300564613651353 11.418004691478442 17.945270143733026
S 14.523384596392162 13.679140185538957 6.2544901974559055
S 10.106173450191413 14.241439001609947 14.783352128926381
S 9.37618791921921 12.88768341708917 13.386682891826768
S 13.428970059095173 14.702756833282496 14.055291684701988
S 9.016050483378118 15.164191783062783 8.002480766980561
S 12.058405644419611 7.4335691055432225 13.966111026829191
S 7.486615638026712 10.996479796354713 15.432436572397195
S 13.224797948132867 11.793867216753402 6.058811093604766
S 8.200390189792463 10.386834186291805 17.312073368560277
