34
Energy = -136.40269478 eV
S 11.59592879123971 13.302438283207543 11.126802347569914
S 12.843824766195853 11.243961457008538 14.97288342458983
S 12.107932435267339 10.686638182366764 16.66885502443977
S 13.894895131585429 9.466692180363413 14.011450007699477
S 14.848559809599708 16.347533830988194 10.75406813120939
S 10.012272911921954 5.154097896233049 10.991964791695256
S 14.467794799433076 12.437728437698963 8.980717599870959
S 11.971186557493468 17.94299741865645 12.444637854700114
S 10.999564206692733 9.451667068542493 9.340534598966755
S 15.685678422638274 18.58562874360964 13.01498088845349
S 12.03888257563278 5.954917639106848 11.268689614530304
S 14.18191870528567 15.95069991732836 16.02492056442876
S 11.713593983250709 6.926800756881445 14.49739126835749
S 9.239639560286829 8.69036709463926 10.402817905982909
S 10.524480524568169 17.464220112248654 11.249251846911992
S 9.531841354602975 5.577198890728644 9.124433226500718
S 8.487332023798249 13.15361505098871 12.449847241705127
S 15.875643697764419 15.763704969052894 14.856559892015678
S 12.914756928116878 13.423489140109352 8.079268395913827
S 9.768050545847737 12.3620203247797 10.970020304888827
S 13.453422332540871 7.903554964630048 15.151723743706377
S 8.369174856038793 7.461097097150229 9.108916284964845
S 12.370810621721615 5.434401258516267 13.180961136521123
S 9.837657035854878 10.249799539486679 16.226430722423935
S 11.502120681120196 17.32786806826099 14.459909626730528
S 16.094937251268963 13.694259943800825 9.262690058921462
S 9.430588871384213 12.912499892013551 14.212871261119352
S 9.649067613031967 10.728311337977964 14.347912644071604
S 12.460194168515377 9.510366711931455 10.606037377898378
S 15.807734398086069 14.537087014605012 11.124268117252306
S 11.967623143914198 14.581364745797474 9.571255420288475
S 12.510838543295225 15.588073511646629 14.846803279818447
S 16.208205616341996 17.85148881043545 11.158287339473658
S 16.72689421146112 17.61827660534201 14.515121789804718
