34
Energy = -135.48063858 eV
S 10.48650867179066 14.40863369356924 6.878096858158156
S 12.941023026497092 13.657481423208344 13.274532280309096
S 9.740784125171158 8.232096982826427 8.92183210566951
S 10.245012101506326 9.356894095577617 17.15120940766904
S 7.8373988899891405 10.832680418877393 8.501548665878984
S 8.169215038006119 14.85355444969906 9.244630768695256
S 8.799720797556166 16.95168654198213 11.856109966304492
S 12.464231440801269 8.250047223017122 14.179252655735214
S 9.782661710397104 10.395569319375443 8.32484802306174
S 8.961860632035132 15.487858681643713 7.4195150450884295
S 14.761363960072144 12.973862381055474 9.217624956149422
S 9.482159605890239 13.69097963010678 12.369522610403632
S 11.15222069084418 7.772908391198744 17.78157197762719
S 8.827532356158894 14.873819234713716 13.715576012542067
S 8.512755091006879 8.78942687494539 15.9634270723643
S 10.71156358563293 15.675678168047227 14.776165121157186
S 14.891287103673216 14.004259024974688 13.679864513316918
S 9.639936401153891 9.361209234221793 12.857233832118798
S 7.784407296396131 8.010616234142306 9.276973398498473
S 13.443147717707726 7.256262870267442 8.713244895467465
S 13.700598685289398 14.520003658153517 9.589770932771597
S 13.633746063539743 11.25720577936868 10.085541807846269
S 9.619240434023423 15.730079610620294 10.622575618274023
S 12.859980606355709 5.9563056605066445 11.783560611030252
S 15.860528011493024 14.657508303356416 11.87671728399738
S 11.596967616092229 9.886084180539731 13.146848104349244
S 8.544448423701327 10.149928412201586 14.453355208460989
S 13.985047370601936 5.780974344896151 10.118786797116924
S 16.547849698863455 13.117670282186007 10.870306466946337
S 13.873897226133625 7.379128938522799 13.041033308783312
S 15.019279429572007 8.558723601748527 8.568931221588642
S 15.01131368305752 9.794325592951855 10.254973264501459
S 12.011998037687434 15.580685003027845 13.290412351415723
S 6.952390426053214 9.10835168174757 7.6864164579784475
