34
Energy = -134.52932025 eV
S 13.45908264240444 14.242379587129925 14.934055979935973
S 13.98124501060646 14.018280616443539 12.974621021444086
S 14.237904477904781 13.241202427390334 8.910051813485046
S 11.684734501223332 9.088055338896366 15.969208641162254
S 13.045153971522296 10.21548675951822 17.19947744105523
S 6.977491056363637 8.348366824083634 13.502246484057368
S 18.4156825774303 9.40120147163701 12.623152981758778
S 12.28419766481845 15.373928740684018 10.56359303003132
S 19.231807537227816 12.37699967878718 11.594567850572648
S 17.386561238457784 13.32010648433582 11.851249781622707
S 9.501432239794758 11.931129461252077 10.093466093408233
S 15.686287001470815 17.787400870668552 15.251893933528567
S 11.341582936592664 9.168662612276254 9.942239359337792
S 17.757616134815954 7.665268053611746 12.101604565702548
S 11.973076693918125 8.338573783459882 11.71604744754028
S 9.78269997366978 12.66757845476325 12.03587293536997
S 10.030004772912271 16.814827857061662 13.956281773848039
S 16.241308491938064 13.635895203373064 8.63419204689496
S 9.399386223111714 9.878781464174123 10.135217930043233
S 12.805716812183025 9.822881593358002 12.901250260315184
S 17.07115226115634 14.597960911479593 10.267576844111868
S 13.25476014396815 15.07130948084732 8.763230657391405
S 5.62810943185516 15.350494995097167 12.02588222323193
S 7.998044745580136 13.069491128144762 12.878875354816921
S 14.8281234239481 9.466538896332995 17.157258016427747
S 7.540267271674994 15.134479676042785 12.064661766243177
S 13.686373126042147 15.852227353224302 11.984773944941143
S 6.180740168356374 9.78762737877785 12.549491249235501
S 11.380741025086081 10.285807846859013 14.33817110141602
S 8.042484618019076 16.586511018461877 13.719940121875988
S 11.405164225555989 13.94955350493083 15.183926534180063
S 16.763387888704003 16.818952754436033 14.017069993115097
S 18.885096190540086 10.540656415230169 10.81691905225106
S 10.623580104484272 15.779269931108967 15.67709478834332
