34
Energy = -134.6280706 eV
S 16.296624884666237 13.229558235200013 9.992597524424673
S 12.169807398935186 9.421479319492617 9.542195262398936
S 7.186882111880103 16.09559069072732 10.974794719615485
S 10.861757727023614 8.15335622003648 10.465861134340354
S 11.334584151498648 15.776796225248997 14.854371433936757
S 15.80859810362416 10.16100193192252 10.870305631862676
S 15.48105298621798 8.941165922321124 12.464286732637342
S 11.15652710759995 6.599877437228545 15.560568239115636
S 9.801403764610296 6.687153072054497 6.9643798742230025
S 15.152752789224987 16.616740091256208 12.889123909118084
S 10.074461278838708 7.218508875834828 14.081162730593704
S 8.530235214955939 10.436222022402772 10.765912187637783
S 11.342762506277865 11.377579522680074 6.292308804845498
S 8.989307352630902 8.601261834600974 9.751902081485403
S 15.36584595894158 16.29024197393505 10.858362832466709
S 12.42941527035517 13.930655529615668 14.98827479106288
S 14.619418289915382 14.419476539251757 10.397540843699414
S 13.673686247794166 9.309204780412013 13.36265993975155
S 16.81183932630583 11.957203779159025 11.487719032916543
S 12.841303491677737 10.487662829666668 16.384046362867224
S 9.044845012827794 15.762544513877433 10.59138073565559
S 11.781529138291926 16.54089024571799 13.011054651356591
S 12.720966652555338 8.731148741348726 17.604996135165266
S 10.096720525949676 9.908609619257662 6.296199358482816
S 11.854257528991528 11.27435486001568 10.628718906061426
S 6.630429549367039 15.166127463735599 12.794484846374482
S 14.384155137398134 10.33653722207698 15.130828734192558
S 8.736203709112504 11.907387713901954 9.45640651839265
S 11.096846599893897 8.086422568043583 6.665930299860539
S 13.450801507728158 17.765599082564275 13.132283082135048
S 10.888446147791928 12.495813202549957 9.420157360210853
S 10.901270075075244 7.926852720781232 17.249432796668877
S 14.265160078981088 14.25932209830675 15.500741197438604
S 4.776157940784789 15.487341471917425 13.193262954398893
