34
Energy = -133.97498754 eV
S 5.73129358394933 12.215480716898876 7.926833970894465
S 11.009674083259153 5.398312710432413 10.425991873059832
S 9.876618197311917 6.645999226219342 13.40178170125972
S 14.906573113561562 8.624985804236017 15.088979705010619
S 14.788140230703101 14.648993178219792 13.281024618831776
S 5.089551564562565 10.408829622787898 7.748277996785193
S 11.178979400709283 5.318065711086036 12.477087067255026
S 11.172491940406093 9.811140462286552 13.411720945549122
S 14.359832921860326 10.41995077941529 8.69600120328674
S 14.629199861739627 10.536900781837335 15.01270045409314
S 8.608397777428866 13.866351231135253 7.229556687745852
S 16.210880658364854 15.681571483003456 12.148174177222952
S 7.90962742328431 12.07146232658975 7.5409665405884
S 15.593946524708137 16.46428371777034 10.48703776845677
S 10.801711563208187 14.856187175532863 15.134392152042471
S 15.365204265484644 11.275520430699801 13.070863169312556
S 11.3779465981788 13.047978694621253 15.926606054509431
S 12.03818663136603 8.046672450789142 8.65641076414493
S 12.966600951231761 11.88919273549511 7.330829579177848
S 9.25565338745894 14.441670718558532 9.451251888439321
S 12.999378966372294 13.921596473874628 8.95054268213449
S 6.0200730506900495 8.760133228331586 11.458022589289783
S 13.0826264826287 15.88822358849645 12.924361527728669
S 11.384316793981444 14.81383600545473 13.12370310279187
S 8.275235487872335 13.21462425103677 10.545414375840824
S 12.919372951157948 9.65261936988339 9.775297035434914
S 10.993025420549824 8.030813231691353 14.446282501609094
S 12.64424395695331 6.277791829572317 9.484456943665409
S 7.737264743801119 9.349412924591036 10.895260779141733
S 13.97555894378246 12.486156020990904 12.37921577152399
S 9.571942982223282 11.03558540354637 13.884230381885034
S 9.786541012355729 11.732879920893598 15.816942062050956
S 11.238442742431676 11.276354398863651 7.814377849024175
S 11.38454093263679 13.377656158274872 9.830137670448936
