34
Energy = -133.78302297 eV
S 9.62709410249028 7.455393374397875 14.408981173202948
S 17.4449052690486 11.923924764666566 14.807268898033717
S 16.71187501853427 10.211628524557483 12.095963312074636
S 8.329218092352118 9.137329157244196 6.42034827396537
S 12.788577311715107 14.526680850217588 8.243092480254617
S 13.349506893168849 13.850630947808511 14.14203657342405
S 11.57223943210551 16.10875530906859 7.84763672798751
S 10.40158203628568 8.512040845060087 12.716374148022965
S 15.375668684103372 11.593593364276314 11.057344253352122
S 11.428163198023732 11.358609556069238 15.137767598181243
S 10.246690756186675 9.823219798550074 7.32129323550333
S 11.056510119336847 11.195404275705716 6.270247153449592
S 10.326382473349126 15.640397140236248 13.32218660319175
S 12.663126161585614 14.1033416267053 10.278082502710818
S 8.746422815948284 8.650360445325727 11.51645129567126
S 9.704073580563119 15.188259344396991 7.2376276148292025
S 15.332298489228524 14.54057725342158 14.499912235756357
S 16.2338187175811 13.23279865420018 15.816846155572247
S 9.197464862838276 13.86085262339048 12.931415447956866
S 7.548213426634507 10.116435559119182 12.311600298200707
S 10.052537737450486 6.206426203341905 7.402132741064583
S 8.21957805602394 16.093287224880292 8.081221698106598
S 10.36502847865802 5.828624140346343 9.263003988875095
S 16.29786308598311 10.29685570969351 14.060744155215493
S 6.690230784732823 9.177571240508836 14.031307518225915
S 7.9357027667477595 7.6140182810409085 7.559400953368777
S 11.433766398112953 15.32570889168722 14.922009587173445
S 9.486330042307697 8.726075438186912 15.917164802759917
S 16.143347178859973 11.78131050303799 9.295707721225291
S 7.605590263375756 9.912985165320066 15.621573110658435
S 9.44163801007698 13.584276111217465 10.927870654197232
S 11.26117802849153 12.623739513319004 10.579827344827951
S 11.144947371293284 7.700266465976579 6.5523104383444055
S 13.174756416879985 12.14915968041785 15.419506424701423
