34
Energy = -133.82324928 eV
S 13.163267610734566 7.156201753426749 4.831599917631306
S 7.106883768316116 10.076304437719799 8.887570570733436
S 11.523439429132994 8.558179561013448 14.487623596812076
S 9.897561465812396 15.620078952604345 11.183199019249999
S 9.60937988162223 15.916990215690554 13.315829269069532
S 8.106920014743416 9.00591267585725 10.241710513100168
S 14.360711748073781 7.357493343299774 7.933913626231081
S 5.437831811120627 8.209298274876698 6.57893453766787
S 12.784779256184496 10.324209721006465 15.423251416108311
S 12.990020625026167 8.784121276971522 8.702734982004435
S 13.361387763410946 6.0587281448641725 6.813561670149119
S 13.965351484701868 13.456229190998812 6.03386874644237
S 9.965079295533695 9.23354257064372 13.542628023498082
S 12.975952668694635 16.902438369396563 10.822219496898587
S 13.38073152913921 15.08277360714609 10.116307065503618
S 12.343455450088443 8.188442003961265 10.525792445557007
S 8.832355301562439 12.650821064647394 16.140807257383408
S 8.644286127318338 12.765485905842981 14.101357437522068
S 14.090894336422373 12.285736062308034 7.5233868045234376
S 10.840671067889025 17.21991328590543 10.493974123078964
S 11.176579642904889 13.312206292122731 6.213296781980699
S 10.682731153804253 6.870442712360911 10.200740904683311
S 5.362317900488617 8.825576405360714 8.407455038948369
S 9.371672841150728 7.740699930212186 8.984734689625974
S 13.804956288761073 8.938922310392364 5.093476816023683
S 8.021389123582127 14.72376827872312 13.666647499282487
S 10.85981046095338 12.864992480050997 16.647125877174652
S 13.066124178632464 13.85755132028797 11.917695458417594
S 8.255053686173966 8.810546294587228 15.061566385256379
S 9.098506006246872 7.9040889074211504 16.51298865589238
S 14.272745513510495 9.354869754528451 16.158894406332458
S 11.361146626024835 12.147339937729386 7.701866929800273
S 11.581505968456206 11.061340034309351 17.170363011458484
S 13.153599594010856 11.995913031224449 11.42654718548653
