35
Energy = -138.37336726 eV
S 7.876780247605227 13.25281005588633 15.839062444802524
S 15.61521815092146 10.884137017738365 15.403866069976852
S 15.316695093107946 11.19128436922188 7.074580503704269
S 10.159865427336829 11.067875909250924 15.154489986810908
S 8.18195495199209 16.7701177664464 12.165076810869992
S 14.375381488932456 14.897556046045212 12.713475463926441
S 13.500715779712138 12.167899186556657 7.2413010976496945
S 11.8079814244763 6.579496971572749 8.787578874817424
S 15.969959870603962 12.220363186260519 10.908670672645322
S 10.70159140917458 5.996119128605345 10.409209632996914
S 16.81847450715663 10.511749876626864 11.127833986084882
S 8.244310928253384 11.941019807052493 8.77780504293985
S 7.185823559003016 11.29667467293866 11.770653458958499
S 12.294354909961953 8.600056708001247 9.010165635650658
S 4.319265530452006 14.038655021888871 10.576196624255912
S 14.374725525372776 12.09691970621309 14.373633430294525
S 16.007237844215148 9.17013666397797 14.208159552599623
S 8.980810460553723 10.639358690927768 11.776336343459821
S 7.062377976217426 15.01354403511653 8.452236792589286
S 8.69710705796912 14.101265086754609 8.995709534750116
S 11.634602199674507 6.928043201837019 13.431206293919951
S 9.316787950384976 14.067528081589936 14.88398810010048
S 7.245959797255332 14.911078202457269 11.91501215310737
S 14.906722138042676 9.162338699497008 7.171454725202636
S 15.596569343300178 13.500184899900086 13.212532955923395
S 12.995861836673322 8.396658539665752 13.226855830259067
S 14.358339555087973 8.667531937298273 9.101743773644158
S 11.904624699880804 5.42422424725767 11.99739975522421
S 8.467957812253463 11.164762543328562 16.024077193606185
S 9.556373275585612 17.116944100493722 10.83517425722903
S 13.797894272212886 12.113445253257591 10.582490330865149
S 13.646537594431601 13.336275920590262 8.971928094214798
S 14.600682692618772 7.787670169410527 14.564672399284932
S 9.753616523600545 11.018307525112045 9.606621664035737
S 5.693208385511675 15.379222753622068 10.453088916187916
