35
Energy = -138.73790375 eV
S 8.466384768601912 15.703733051042597 10.487016852233905
S 12.777317882359034 9.899152104053199 5.336556127916746
S 8.819630819133806 9.070433632605504 14.969092647682919
S 11.014565037317405 8.044650122059572 12.519626617145189
S 14.983872127704663 16.883844226621385 10.52226244694587
S 15.65274294669457 13.577712292285806 11.07170784928765
S 8.641448985636947 8.201944053068097 7.678132096337325
S 11.612858526582018 12.220191775916067 15.838277633644093
S 13.577922942581482 11.657756268228294 7.979213424916421
S 12.060307803387863 13.667711003265643 12.946200654104338
S 8.401642060700498 6.252538812867344 13.025052186265702
S 13.664939858156155 13.62339127501481 8.410416291410053
S 11.513670005155767 14.059056323873369 15.013554852809095
S 14.961252505130057 15.674677311817474 12.003898426080024
S 13.464050046247628 11.960310579277563 16.825542534311772
S 9.98672459229648 11.79958950199639 10.362968794103775
S 7.627817953351112 14.942862469158868 12.276524594769429
S 17.20259440246095 13.767492075980252 19.05945318972774
S 14.805570734300405 11.05186003968692 15.634121019228228
S 13.784310546963722 11.48373061236339 5.811455779291723
S 9.785798094142676 7.126728261747132 9.02732296007888
S 7.792203070328108 9.790664884600051 8.677173872283117
S 9.564760353950312 17.246534050241166 10.846641661596829
S 15.631687102926195 14.053166148255935 9.163763795535086
S 17.754792126720186 13.468808211377212 17.23427377301947
S 11.777243758555333 10.693963062299767 10.56578746119918
S 12.664292080252768 15.3458438858272 12.110313390356172
S 7.418249106534243 6.169782044982564 11.265928585891267
S 6.581156463218688 13.373215996162182 11.922655239590181
S 16.137551489138957 14.10863742676581 15.908458708633535
S 8.88037327314028 8.46350789355365 13.15410229034359
S 8.691039562446422 5.5357399482633936 9.735676863365534
S 11.802068221360848 9.906120403308314 12.475650096218908
S 15.89937778169858 12.613771651576219 14.606597236711114
S 9.156351403444312 11.36355936603307 8.552786945734914
