35
Energy = -138.84379334 eV
S 13.159439104108976 10.225002381808677 13.836896826441096
S 12.713747521275902 17.257080409179117 10.26372517384025
S 14.960576162977308 11.239387198139957 16.30076911841435
S 16.797603160240868 13.867808155984195 15.360162913256232
S 19.015882186128408 14.616550187495005 13.129685418093475
S 11.111078154145266 14.476314786324286 13.909232807028541
S 7.811118150751988 9.725950151965865 12.224151709152226
S 12.314661539054946 13.211418303038306 8.10382519143394
S 9.757125136362916 7.4969090995749665 10.736528422461609
S 12.909815950624228 15.18968473783293 7.682867701739114
S 14.12252542143294 15.88633912656911 9.090142590465925
S 6.004469210710436 13.70308824594819 12.093717777454403
S 11.674384231765124 12.435223370682737 11.247271799560432
S 6.442767958259986 12.394097340278238 10.55282444048199
S 10.826072055635613 13.196701345600486 9.520075251320437
S 14.936044447304127 13.411506497428329 15.824163991821704
S 7.3136738254571725 8.105127271265475 11.276772480663945
S 12.709155064358448 7.264632749380414 15.36063034650704
S 12.42640735143438 13.967116087558349 12.42071572135335
S 13.805846017897654 7.941065603791346 13.957651617715056
S 13.233405262273243 10.88509758251082 17.118881183946282
S 6.935781886040241 15.538755472540299 11.823886769351745
S 10.557801461072728 9.085975277684973 11.453693729020426
S 10.690194689450976 4.26234294186684 11.45583618476117
S 8.174017460415214 11.353196129585791 10.853297746321855
S 8.040937888857291 15.935729192408537 13.54712434918625
S 15.45035709893256 11.624021421742396 11.389066725419504
S 16.024983942906452 12.375241112483932 9.264470975707455
S 11.00065595240288 17.200590747461725 9.421698287543665
S 11.885031964940993 10.318297809331616 15.272540330902329
S 17.848845823315564 12.91822659260514 9.417938468477614
S 17.192204355009842 14.01951577311996 13.091714237199042
S 17.136343261081322 11.79892579011472 12.348016126389378
S 10.055803012426278 16.180933739798355 13.286934473125008
S 10.154090007243044 5.885754352086875 12.33183374924449
