35
Energy = -138.2159585 eV
S 7.33091109114609 9.61886620217657 8.083857266486573
S 13.099484865963378 8.767398482055562 12.547020491370807
S 11.68295157874637 13.886478208617419 5.742715343213488
S 11.354377658796736 15.38339852159469 6.8759589438905095
S 15.10378922770192 9.526098589740604 16.969704735898322
S 9.23508737434613 14.1988360896715 14.5441552637909
S 12.295845409013651 7.427879776028354 17.081794225119097
S 14.891588943916421 13.771313299237018 14.350174770399631
S 14.243261478679512 7.6766807055516555 16.49520114709622
S 12.158628664284663 10.285989665768891 14.288446071417013
S 13.160678543024764 6.954033434114089 8.286893094892266
S 11.56914555063754 12.568350966716487 10.783861862671156
S 11.032789476215084 6.705324247888173 7.484891539504999
S 12.679756483709301 10.82944901585968 9.937889201556244
S 11.515966830245059 8.34877582905999 11.584742484540039
S 10.383303998660995 9.974015540075904 6.7210573156252655
S 8.528486530194805 10.284035876876764 6.1577303691366065
S 14.106800297795994 10.522999526250462 11.218535116878419
S 8.667295016004827 9.100809590303736 9.330660711049775
S 10.979545533024055 7.995459464133858 6.000197795258046
S 14.226274468679248 12.47757670533372 15.612499530428776
S 11.113628266792846 7.083336592371634 15.350417501072776
S 15.44109813631021 10.68057174185368 15.326363598186951
S 12.819984790377756 16.99256008733687 6.82851158198732
S 10.68384097380643 15.313597644873923 13.234540074686182
S 10.039105884628578 12.867924382360219 9.571026336543026
S 10.290387298686104 10.012471674072739 13.88138110785134
S 6.894369011127504 11.968388931467693 9.151131945925137
S 12.773319740008706 15.717555434689645 8.491799934589976
S 9.600563997857646 8.37714439512428 15.234729311111785
S 13.948314960523335 8.402813323829308 7.317697284421248
S 8.311747814825976 11.76157523008245 10.439406762942932
S 9.474793960065638 16.74915189386649 12.542410200492597
S 7.595801394091184 15.306454281549925 14.255834979239342
S 7.7089208086610155 15.664174194418415 12.184182914104781
