36
Energy = -143.86946987 eV
S 12.733104510559256 17.41333983466815 9.747307383458955
S 12.530874660114893 16.67446151996408 7.959186186779742
S 13.420082698297696 15.588555413467292 11.049896679189908
S 13.559433100995475 14.117023055163418 9.792508234559676
S 15.197252542776233 10.216818492473667 8.375261475132387
S 10.763458614147178 13.65734896757773 15.080592316155254
S 12.211265500583483 9.56438325189379 6.964791492622819
S 11.990737639635828 9.419232954980147 12.827211372013847
S 13.930736046349267 8.797207111716572 8.054747341323214
S 8.915685763691323 13.298590775489787 14.289392733225688
S 10.540483090283798 15.779326881487782 7.75645011773515
S 11.57831361471895 13.180530687453274 9.54192731017386
S 10.689258181116355 8.550148802124712 7.8544740085601665
S 5.129733484522934 10.108256371692086 6.112122790868697
S 10.338956350378453 14.783454037360324 9.519227930646286
S 11.503422921335451 11.808127235917222 15.797929172486443
S 7.225856191591751 10.18168122966536 5.017341391517812
S 13.619185584248251 6.5366454295153735 11.990923395964549
S 8.39443357115192 10.455367089368817 12.720046997953721
S 9.159375689129327 12.387501102527004 12.438400314464866
S 8.50655735798655 10.769497502851385 9.099588934719629
S 10.161475075084677 9.58055105474949 9.580295983443126
S 13.332102074391935 10.942203739704526 13.028964690587555
S 13.36697773521382 11.551707258388348 15.053805614731468
S 7.520965052350313 8.280150832180796 4.7938888816178595
S 6.587214457185494 10.505414505761621 11.794538537795068
S 12.247319484414941 6.037542760440912 10.546407915287222
S 12.689209755025814 7.590266862524254 13.513817054364022
S 4.88356267416082 8.186174153434063 6.16976337994456
S 6.918036814046409 9.738716533209043 9.833029199079668
S 6.987141892047918 7.384640919174687 6.933422867602535
S 9.253250837954136 5.8224633136437856 13.6315577448498
S 6.96959488168316 5.477064233780105 6.778835443549491
S 11.045250496942272 4.4426784977882665 11.201551175058007
S 9.199115137645473 5.191537524365406 11.549063824956491
S 7.764193116238032 7.011412479255874 13.934029740087027
