36
Energy = -142.53380664 eV
S 11.503029633809149 15.183951024916489 6.453911427777117
S 14.258011233742113 15.564234111536274 11.424042422240767
S 10.314492219848324 7.4804346762561735 9.688134321615804
S 11.5870386783441 5.495944502261665 13.733816975212331
S 7.757608003073169 13.44575321668812 12.976936145995337
S 12.79201433377655 15.218148677542212 14.541113217380857
S 9.066732640871317 11.937253362553907 5.9103324836181494
S 13.398842991484138 7.907033580163391 12.133219058792523
S 9.499169337852125 9.163771385837935 13.767402221501778
S 15.429947965110388 11.957092048315376 14.015204495492736
S 5.212599599304036 12.105980850650884 11.377068813431448
S 10.874414214110097 10.106731506173386 12.597348527828293
S 9.477504171991654 10.081742373832778 15.667352559940523
S 11.654214540242789 8.543128575839603 8.797403017436542
S 13.440107772858942 6.373203423877627 13.512887813118041
S 11.415410219315532 3.9905900591500947 12.320795997171704
S 10.704571960016104 5.381351391958345 9.309726661395553
S 14.850149449914102 12.39652604090181 10.641448003342186
S 7.6111910380015555 12.811740883067657 14.942722629149404
S 10.516452942937619 12.997498393494121 8.774920213821183
S 15.86917444908978 15.389601407461695 10.419953742058276
S 9.995308626258804 10.16602241009376 5.572247060359406
S 13.436777779713719 13.341267819147603 11.553616677872652
S 9.503491399042534 12.101664157068258 15.454296403301583
S 16.34717208465918 11.797185799781836 12.286356396598265
S 15.91997996998109 13.850666005305758 14.900763338940626
S 11.878799731956445 13.037280429477747 7.4049218134935115
S 6.635116682824183 9.611925083520088 5.71940708292511
S 8.29993946401974 8.728040312761024 5.359896808217733
S 12.821528028067243 9.623376040666441 13.124404298019162
S 9.92805889432279 4.477346882831172 10.962135470820241
S 14.15428902527256 14.581849083619336 15.77322349748457
S 8.63029844764404 12.134810938898385 7.8571379235262615
S 4.829218872109929 11.94205209667778 9.494266019747993
S 7.358697897871281 11.921018635361293 11.69053637410827
S 10.106082651368816 15.894243217483123 7.542719167847453
