36
Energy = -142.21636743 eV
S 8.133179437275691 8.520176659113522 12.322477915503168
S 11.631018769338635 8.080360860785317 8.068656113032207
S 12.675082726183634 6.368071292485284 12.575316781846041
S 13.549038263053788 12.097622618812892 13.945560646260137
S 6.140923278387728 12.900944579565849 7.812221958383428
S 14.737732092194769 16.097701455904193 14.3462568503776
S 15.137459321201309 9.544708377485758 10.637503352073644
S 7.275438157550406 11.272702406362635 7.382461480683968
S 14.433858762532306 15.991387095248912 12.445097953061758
S 8.075356065629729 15.6573607642434 8.51273064272452
S 8.50131726774915 11.344326218594249 14.258988452098023
S 9.59993671278794 8.438808939313073 16.336648022100213
S 8.199284163654326 11.866465498137181 5.502452121002347
S 10.327180461649112 12.720362552745284 13.83540921337882
S 15.499645378746841 8.073392774326939 12.06344666599367
S 7.019421202914845 14.065922996993741 9.297555626971464
S 11.827079152957584 11.047759758788258 13.988838661395594
S 9.852072537704629 6.626620560071541 16.941362657337333
S 11.431684687493394 5.688557710073288 16.349588020944555
S 13.981767832734596 7.881409490411934 13.393886656015393
S 10.240008630691847 6.814727168766779 7.132856227565878
S 15.736886006296928 11.341893459107705 11.471246311180929
S 9.100129008337355 10.328171847566146 4.767300329566122
S 12.653377364018137 16.31410704356317 11.788658757060304
S 7.975884393501275 10.663286617230064 12.466005177238829
S 12.734821902482157 12.10763155354936 7.905888726491145
S 10.398496842097908 9.791390373175329 8.438047653671429
S 11.592463073545812 11.100050149473093 9.37338019728629
S 8.514662346755326 6.7874353597712735 8.022943419224944
S 10.078321178039538 15.390373380518492 8.990564290347844
S 9.787231066006257 7.757662696400477 11.476472549469436
S 10.224717377808199 13.346113267537204 12.027093879073814
S 10.811862362083634 6.763217934256206 13.136197734160111
S 11.381468408631552 13.12398283210135 6.74891921274752
S 14.079196379483054 12.455267680053279 11.936947777328724
S 11.253286988477896 15.112205779169294 7.319655030104648
