36
Energy = -137.35364002 eV
S 13.927432603894927 11.878782639253021 15.400470397660989
S 14.512680284146466 9.42646666983505 10.479288388206252
S 14.504935679611428 10.163344071365175 14.713467450560096
S 13.43565313339397 7.007410234331084 12.518298446699507
S 12.702000592639417 12.902792178386113 13.936069268902655
S 10.91847474528703 10.440916625864617 12.309225847967275
S 11.459278241677598 7.119989335761659 13.159075270777418
S 13.415772773513048 7.925883174041547 9.333617573054568
S 10.792616682522528 12.804658491216115 14.599868362984676
S 13.718422289742398 6.326644255022442 10.593777609866551
S 9.876046731701864 10.96812663439924 14.071245276260596
S 14.604266628276024 11.088792001861949 9.437999450037257
S 12.765960196052113 12.28648347112194 9.720344457206153
S 10.377891272700644 8.485285521293322 12.048068400886386
S 10.236282608470605 9.238107159573783 7.989879595549903
S 13.377459608942782 13.787588580269674 8.494541112315183
S 9.605442605327973 10.926042559585696 6.920991651570508
S 12.973863761458638 13.22806021503534 6.553894800203264
S 9.872267878133588 7.761583377333317 6.669441375571513
S 10.050410418037657 15.86476910278309 10.504745253940126
S 7.847283275342187 9.96325762272322 16.373335571250628
S 7.38795048638713 11.36826968044406 12.30794656034118
S 14.352476186007829 15.48969314012481 5.963880726082065
S 7.956552624195231 11.845951884258417 15.863082763621124
S 7.431249213456838 8.823478969160462 14.570403025055564
S 8.885641950925208 14.874451772493117 9.087968610183141
S 11.637903377896592 16.35894856589848 6.556469715741196
S 9.60586674742833 13.841488239480968 10.734732910987942
S 8.34928563700802 5.60036615191207 11.69833874247206
S 6.208354013557639 9.948281003946324 13.431976893172905
S 11.4190005543855 14.62432845935165 5.726272970803871
S 8.110328522031844 10.595458038948793 10.673226482957666
S 7.702324535671151 5.858021369165942 8.464928561601072
S 7.648821095665553 10.17546368757207 6.84749063066591
S 7.961434593598206 8.523089012952056 5.7521961903105705
S 7.374924107187811 6.457369989351851 10.269773118988752
