36
Energy = -142.66933118 eV
S 14.649297615034449 6.48961222004108 9.329641273358435
S 14.794063243038472 8.976102373913976 12.684002527748696
S 13.581550924194499 5.745813197981089 11.143845137094457
S 13.309302548887993 6.942255237350516 7.970057720027183
S 12.929707752388994 5.058421079975589 6.909619401682143
S 14.185126938324505 10.795291223875601 12.422362301820993
S 11.675272802186091 6.2938521646624634 10.915795629765823
S 11.693647059347102 8.642193745316083 13.324919467670611
S 11.206490300043654 5.248380831473176 5.92837412523421
S 13.865674662996529 11.363252630182792 10.582000100638027
S 9.577748483001335 4.615241720830437 7.18289077272401
S 9.646181712404417 9.823571725484612 5.5006281488071975
S 11.434123393681753 8.33080090217707 11.22573353326607
S 10.591050287567368 10.314658808691565 7.142940604848227
S 11.541483784291197 12.34011610640063 4.615178096628493
S 11.617799302022027 10.562379697662278 13.507695202855723
S 7.790474680789549 11.01874707728863 5.387001550986435
S 8.167075428238723 6.03932489450817 6.9305478153181435
S 7.648997309937711 8.96297376961104 13.802276068990832
S 11.889634803525647 12.100728022994955 6.477330704789335
S 6.394140226915619 11.198742539365488 11.701749187725918
S 10.93498467633093 13.939951059957888 11.602933747538572
S 8.384790051403975 7.553434296750259 8.434388609299045
S 8.128454358776567 11.529148371747587 14.509010387040266
S 8.230374766109327 10.803113043212898 11.909650666055745
S 11.015128671241774 15.059955401707386 13.181273877235926
S 6.285727050731431 11.936617547574546 14.340394831549615
S 10.00658285510232 15.361290028090533 9.944032197083967
S 6.855461260135651 10.903134719662187 7.127091322461156
S 5.802308325193498 9.336991931388166 13.627160800309811
S 9.620450693966298 14.271494273945372 8.42125824167753
S 6.945713366806234 7.352606444435216 9.769300890375115
S 5.753368856649044 8.982937061132699 7.026779711209932
S 5.204816713103249 8.530283041274368 8.843947511850372
S 8.840174001609341 15.999214572387727 13.080162332381905
S 8.208812789645208 15.11116476834748 11.479334461478949
