36
Energy = -141.9286365 eV
S 13.524466317464215 12.961713317157951 14.054643399770221
S 11.631658676681703 16.00065480260317 5.394210572099758
S 11.054303996712042 7.987422587172212 7.216606977207918
S 11.08329595846185 10.565505716486483 11.994411392027066
S 13.662347607013693 16.27795434159019 11.787260109994008
S 8.064699042339003 14.35776323609296 12.32073321195389
S 16.304554307428447 14.658981841180308 13.00337893949645
S 9.658882411175986 9.181232833805153 5.978500566975071
S 12.735784200861508 6.664779899971144 12.430893406184108
S 14.141498777370064 6.173386618398047 13.677918775979336
S 6.604606992770157 9.689548604897047 12.974207279358453
S 10.8034898751996 13.5527901161889 10.458214531513919
S 9.68360761812704 8.154588929596539 14.915612327661544
S 6.671774626437914 7.100953593450571 11.059113024988825
S 12.636483044100071 13.564534009821955 7.474059843778497
S 14.856768819504797 14.583543821505337 11.63456925529074
S 10.858233422490914 11.51183701105443 10.165021628092882
S 8.793763808908126 14.05455579576809 10.39387388973428
S 8.132237808542884 9.553502382192788 7.091121870724388
S 13.320756925502547 10.483038674309986 7.479665652842277
S 13.993931988218694 16.183908077624768 15.040591627162158
S 6.163236526043586 11.595438146549833 12.630233315197039
S 8.424198660635577 9.240632638463072 15.900379405659447
S 12.665828174514004 15.900459440659242 13.630917562158444
S 14.95413820854031 13.907760573607641 14.864186433974035
S 7.744211151876257 5.5996623933616805 11.994051362555451
S 13.074126177055783 10.02428550463526 12.182940890341419
S 7.918502152457109 12.633682846447035 13.356918021081766
S 14.081275159564523 9.127656855926627 6.352516175050872
S 13.3570973336065 8.28118084926024 11.136960966962201
S 12.523338079941588 7.484367663814716 6.025972007482471
S 13.561748946225727 15.084579655844777 6.793429493060186
S 9.177865026635837 6.0490454304524235 14.954851330466676
S 10.39235203301273 14.62900907701192 5.822658742121709
S 7.391720691921606 5.738663706075416 14.048849272643617
S 7.629752888452734 8.86318259576085 11.253994974309743
