36
Energy = -142.83913276 eV
S 13.688811869820958 10.50739225315698 11.660665119321907
S 17.133694282873556 14.87288880434883 12.27161172044484
S 13.451984484221624 9.070006156507038 14.659998600703533
S 16.42012495040835 13.763912157050413 8.050869820615919
S 15.256067205402154 15.784767504300316 11.909176387657872
S 10.120883815180724 15.088047099483925 9.011537414673288
S 8.140966033293019 14.562240043781342 10.39644002567701
S 17.556269119156998 12.073225760801643 10.626812048819914
S 11.692738184766934 13.441740452985208 15.451727078809107
S 16.154587701551396 12.042996726033278 9.085651679784693
S 11.050227234419708 5.717367832130424 14.740826681100911
S 14.76174571745856 15.05715580213238 8.568974472290453
S 10.744456721202141 9.151915901225609 10.465960045908334
S 14.694510605888754 12.026522820327392 15.874877426036619
S 9.845715989962928 17.920061422951907 13.694388126125387
S 14.710490980986982 9.964251857255043 16.03013852956176
S 12.73598952704698 9.597024948850601 10.08131702532949
S 11.459679026753676 5.523711113953739 11.546804910853906
S 11.09203770558651 17.77299406749071 15.4843552605272
S 13.056022697954798 12.735978028950479 16.898223266427635
S 14.457866474996939 8.986879181836589 12.858707330210674
S 14.27462386286557 14.660698986238474 10.494979404182933
S 10.999085718226983 17.34181232744834 12.291601732288429
S 10.612468474238378 12.255530616456232 7.28503405627091
S 16.7958706889227 12.858009323965454 12.386349819088256
S 12.172615124030207 4.753756724033214 13.136163196918252
S 9.123563350051237 11.371097807531397 16.045493841411933
S 12.761192487138342 17.135229980742746 14.822915181379631
S 9.867008932403659 6.898507751714764 13.824732755192398
S 8.743347803435816 13.939905935285175 12.13876218249998
S 9.550996093870825 10.784439665389698 10.060555737716909
S 9.285969416610014 10.875752483213354 7.997609869445983
S 9.65992368243644 14.165515830756894 7.345492470805125
S 10.766565427264464 11.91794554694156 14.578454876071154
S 6.995383031032732 13.4782076164479 9.280934079229185
S 9.293337753292992 12.51832976411007 17.568665100780247
