36
Energy = -141.09380769 eV
S 9.965105862398133 15.200789811967233 10.615891487146099
S 14.967704475238639 12.834115996209169 9.370319988523438
S 7.5641838304340405 10.493491916437355 12.75980041894049
S 12.595631170267165 7.355812217501951 8.995285249335488
S 11.050611872599468 10.238811279860982 9.848941839136899
S 9.575017558893101 14.658693212873514 8.62916346704539
S 11.529773824959072 12.98766462973334 12.693900392496062
S 13.954625116678564 7.148084511414228 10.564751180865205
S 8.064838437056299 6.563468128465092 6.247188490420278
S 7.3944111936964605 6.191734227977905 8.290113680020914
S 13.204930548433236 13.070767074078146 13.702428910002617
S 4.523232276460243 14.85806475651471 14.310034847725499
S 16.469596657744212 9.327164984703646 10.021460357189968
S 12.824959695022958 9.226794169209919 13.763685889364712
S 12.4076512363885 9.360368905730223 8.560896849897645
S 11.794416598092363 14.590344321020385 11.210989448164625
S 8.106761783516715 13.21017251312145 8.439135057292571
S 12.751132542193952 14.538105846819484 15.437575552088093
S 10.899440670165248 14.984931841888098 15.275089029918856
S 10.75272678860562 9.020794414871181 13.961651368630386
S 10.039412038427148 7.6308928138289005 12.802417732046926
S 8.909074742541051 11.498612531519276 7.60377978191203
S 15.415032902716023 15.853991391538747 8.844966371171985
S 7.5981924533707295 13.667587761461933 13.933173996465445
S 13.635144107501466 7.649301605563184 14.99581175072666
S 9.156598290370608 10.038187020376467 9.041366416234649
S 9.003070017053167 5.8315869171062 9.244190001258229
S 14.18416839654761 15.336302318720364 7.485441525819265
S 13.86872769430344 13.201295330301638 7.8572461563657265
S 9.957526746160188 6.355949519123394 6.33364462359099
S 6.6441872470198255 15.302907693284887 13.44524954015943
S 15.083358592982359 6.7610635285289336 14.079978365578032
S 15.827105483731128 7.25680954788757 9.797511033643094
S 7.254421228299372 12.30991034863892 12.20034367516212
S 4.684009135788044 13.150061164890783 15.151591674653158
S 16.0259501134306 10.022398211122425 11.762813263558868
