36
Energy = -142.0609825 eV
S 8.831865921995252 9.34337794509246 12.38491273704933
S 16.361185977847754 9.639234608931698 15.089476443500097
S 10.775202214824441 12.453100893040558 9.333593820861191
S 16.75201467158691 10.861476595579916 16.49788100366112
S 13.035584162848544 7.481775548202095 9.335670080914001
S 9.591795213766973 10.651002271464156 8.407110959593496
S 13.188680610160121 9.463519948153648 9.833566261700591
S 9.234170325612189 15.825741802895596 13.52096726398943
S 10.105442866269822 10.65119337441294 6.5647798541605775
S 6.77039856178968 14.323804471734153 10.465520457937243
S 12.721867779014657 4.680881028027502 12.328432177883897
S 13.316846300787095 17.19464771570673 13.670529871588606
S 14.439958749649913 14.52624739938938 15.262877277647846
S 7.045627627988463 8.560100782702332 15.280695542532438
S 11.033269443345826 5.459696071382642 12.872512850473822
S 9.219267359295298 15.465660756943524 8.441199075667335
S 8.54009247014299 8.131285993119171 14.185882566237918
S 14.585030963723277 6.382836003228699 10.187601232414222
S 14.67684683666226 11.865900721857539 13.06467021645668
S 7.350533369299582 14.289670912980325 8.582570690993453
S 11.653416158875848 13.191541062780031 7.770939031133248
S 7.178470780173357 13.170477601858899 13.435237991897724
S 10.799034843648203 15.353195382918496 12.12869933315382
S 7.566559588185636 12.567520430115394 11.559130335073537
S 14.38659152238567 10.392018149383382 8.385521978005675
S 10.213731308288763 14.718876282491008 6.914065947313342
S 12.016131338520744 16.953663483465878 12.032053154810171
S 12.666590776107533 13.668093890801783 15.11749452211796
S 16.152892999547593 10.813371329280649 9.271805288329134
S 14.16639375221799 12.763831756283682 11.114878111197196
S 12.973665958012184 11.711261897046652 14.024499172781708
S 15.878102921399941 12.788768845340405 10.113204395066056
S 14.781317770046345 15.776799387362768 13.572229704599586
S 14.230416283869973 6.20465963050473 12.190338577934186
S 10.104817661664246 9.64162198952359 14.016916242957533
S 8.890448691474775 14.021128438286306 14.363832651021491
