37
Energy = -146.30648038 eV
S 4.111489539723487 12.117226036310138 6.450969696920641
S 6.926893174408747 13.704363303992888 6.864243898647316
S 4.513966748432109 10.297801454855898 10.014925552337878
S 4.847424423148332 8.469134567935948 9.257834025935697
S 7.269005172954719 12.77342083282154 4.811578042911057
S 8.641069063516907 12.222174782521762 10.793841244034256
S 5.656439191757029 10.67698775086424 11.754744207553658
S 5.095060530844811 11.171644477728124 5.084427566827902
S 8.749334079884582 13.65659038748021 7.686458163420199
S 7.081222814379561 10.099587523960455 7.417795724121965
S 3.879448518759756 6.702723850845154 5.2093767630642835
S 4.212526463639613 5.273760505713887 9.697040743282908
S 3.4429433614000886 7.085737746778098 10.154730443670555
S 7.664429164288485 10.487407196827975 11.380374884679158
S 9.023797376421232 12.014260367011762 4.760336359347146
S 9.233580894419683 11.946525345969212 8.820148778855039
S 5.9146772674233175 9.362692781705467 5.7983868721526735
S 9.62239287872875 7.952796840150656 13.18038317819353
S 12.665521097174125 8.20268957389583 11.161216895618438
S 5.3164329797993215 4.5311473553602655 11.320908487799706
S 8.45899069482293 7.478205109561403 8.946617645000762
S 9.883116402231039 6.964735226715485 4.165143033152424
S 4.809022011891426 5.418458859059999 4.149795581153125
S 10.588374325037387 7.230898329050118 11.702745339242007
S 12.444888109099267 8.31530606316665 5.990017672050295
S 13.67423014227853 6.66021496032618 10.340907923061076
S 8.58321021798537 8.693635543757251 7.306146154196559
S 7.33312168969581 4.8348687932039125 10.971417594897071
S 10.296208404587501 8.206724403024296 9.763002267483893
S 8.444448974085763 2.587595921714275 8.530720637117305
S 8.319157761526583 3.074206437475908 10.549169175976596
S 8.477518035686339 5.087025809131921 6.49522362427889
S 9.23154412815672 5.030304309997144 4.594829656537819
S 11.914205646659155 7.269783983776044 4.251658289686203
S 13.846508224023719 7.175997641635713 6.961949855916464
S 12.972713384839336 6.048179749530083 8.482230068690129
S 9.768864780567327 3.901389025449929 7.670278866601176
