37
Energy = -146.24224734 eV
S 3.0880058709110125 9.876073649985926 4.764689753812089
S 3.683257957901035 8.79003988205038 9.292912042489103
S 2.1942160145023446 8.428195179052189 5.663390967260677
S 3.3656277918942257 11.521450793730578 5.722693380137603
S 2.8605726629316166 10.761790932891932 11.840522444189741
S 7.116486120922975 6.952553008410426 3.5591986153568755
S 3.475252175168113 6.809933875686057 9.017338818669455
S 5.363555527842996 9.07158728542785 12.772454350652382
S 9.102049830619167 6.338579306444047 3.8932095409533587
S 8.218918852021474 12.330150934066369 6.293290741375818
S 7.225051174108261 10.311957071584475 3.8285046213287286
S 5.447529714714076 6.048917781575808 8.872741061037624
S 7.426492834176988 11.279923577497676 7.917625129209081
S 5.82437088670931 5.540909904380516 6.950887293083915
S 6.2690057575536855 7.274684459122163 13.067942914352377
S 6.619646856546225 8.546609533325917 4.7512717932387
S 9.304015352192907 5.414526987183851 5.6667099789932065
S 12.213527940996299 9.31280941862417 3.297384100344783
S 8.917342898548183 10.446718930388737 9.002554968990006
S 8.66842747687378 7.043419579834748 10.562897860908977
S 11.758985027412903 8.659764410914661 5.049334454518387
S 8.870189860323489 10.982390631986485 4.8791912954229675
S 5.515314245420621 3.4259497871885096 6.785222346094577
S 6.793908936865645 2.5392747600690195 7.998606609070913
S 8.811840020820766 5.079876045408299 10.262004702583477
S 8.61348824909858 3.375639774154657 5.2070452758841315
S 9.46550510533051 11.976019966854018 10.452350090258497
S 8.277619579097815 7.43504663230868 12.586850133285818
S 10.643419330297913 11.129066846950398 11.722827580541813
S 10.927453921604215 4.624231424982697 10.915292338719667
S 11.674997263728438 6.225530626554744 11.657999918507423
S 12.971785183368592 8.966408204700224 8.935416643838764
S 13.54769513216566 7.686976253935728 5.927818879603478
S 13.473180317392519 10.333122174105103 7.697655654517334
S 12.906869994376263 7.0247957204653835 7.657406274399351
S 8.756839031653614 2.3266909843474584 6.848673469092943
S 3.4579091028819295 8.95873766278413 11.528437956252194
