37
Energy = -100.25729914 eV
S 6.625599635548135 9.533679270800896 12.1671509099853
S 8.203725892477198 7.894963738581449 12.279546157692634
S 5.066200292401051 8.079359879275646 10.673691257777335
S 6.876947011401417 7.080734492910997 10.826257738109312
S 6.185000621532723 5.297397803043675 10.198577606055272
S 5.124805888736444 10.139018773605457 10.091344869091408
S 9.238475090115454 6.585384203375883 9.979198268488506
S 4.960115991399011 5.479634807495559 8.554246606063188
S 8.197562457589374 4.738230006381434 9.45670255918736
S 7.360553273045388 10.669496292818595 10.251466483369748
S 9.842311950512457 8.566445561657535 10.880468093864865
S 7.5109747240338605 7.702705860496961 8.542369062939883
S 10.256104405305628 5.800923551404332 8.2547993098499
S 10.883217013487096 9.46416836026414 7.3063905574948205
S 8.78914344468184 9.518963845867479 9.251664076637672
S 4.981784408923692 10.518598211091229 8.087020442669203
S 11.52614344613214 7.6920763308510365 8.225461139298531
S 7.782717640465857 4.476480192492982 7.409670871096065
S 7.30911197790302 11.885905120402793 6.979488879307589
S 7.046033386111807 9.551365931944114 8.029438738500914
S 8.783172416377958 8.647471323140818 7.263413411622243
S 8.728783476917345 6.5278601893585595 6.935867596371081
S 4.246495860782735 7.344893847594952 9.036431026222822
S 4.047695753255611 8.66088520689273 7.490708209424984
S 12.03172276650084 6.489807010379565 6.148473983256323
S 9.31558398300427 10.941176012271908 6.2277498240064295
S 9.194999309236527 4.531815049040882 5.693740182888853
S 5.938065350257487 5.481675364742369 6.696608891292588
S 11.640869349764516 8.893181126992852 5.114278643949448
S 8.325633728372877 9.033335154596061 4.821677925896648
S 9.74693016128135 7.524126445125741 5.478817817509789
S 6.955357406789002 7.412074206608664 7.0447930482536565
S 10.347475743367085 5.944469975296387 3.86043437543513
S 7.81169283492005 5.769493173253593 4.038755397483041
S 7.017663106401293 7.34927093142118 4.607200924468657
S 6.275182817493514 9.874109965208946 5.5498391905643425
S 5.076689639583933 8.14936503942276 5.796798179984797
