37
Energy = -145.83492774 eV
S 12.619200781023897 9.117579052142354 13.13869259491408
S 9.136261073977634 8.331445226571208 7.1453649778265165
S 9.167491050069325 13.303902454354148 9.599390828557333
S 8.271965305471193 13.124474632461531 13.563002342682115
S 16.03278247640912 12.505374785211892 11.789710801431353
S 8.111559048440517 6.678853459059476 8.090490661683933
S 10.130546099570994 16.66525295436714 11.284121979529651
S 14.762308087760692 10.046813767455545 9.065210301508737
S 9.690675304719464 9.088359148906846 14.742233296231944
S 13.950451954762604 8.463068171151757 8.181607660321914
S 10.767550447745542 13.70742350898728 5.4719352818148765
S 10.820172598182962 15.330370310663437 12.525577474424171
S 12.14436573096853 12.113136711344739 5.866977832440851
S 9.542323649907516 14.936428238060383 14.090462257621553
S 11.666514816617013 10.739743701058384 12.91751050088003
S 7.19013018664731 9.16950050553102 12.051319311595499
S 13.373930845607536 11.382205626470546 15.479605571621814
S 12.91003719631231 11.535542036089774 9.11347384480119
S 13.514250304667133 7.016594750908865 9.591757313836595
S 11.404184041461153 10.512753512030109 8.562338645677347
S 14.800752954253369 12.947174277303667 14.854170402554274
S 7.314669641672062 12.775171309255482 15.18607058425362
S 8.919182955579773 13.405649776921582 6.281693168566155
S 7.364038039805674 12.7156052616084 10.466175243355758
S 13.5433998761497 12.723556532411848 7.108860622417078
S 7.691036731513464 8.637836976011885 13.918770834226173
S 17.053929706705937 11.430993171601687 12.992088279880665
S 8.784918576489584 14.556103240275068 8.012006164781795
S 6.512410650437417 7.481526439858099 9.11149484403848
S 6.713116703509563 7.267738999291732 11.119346685372328
S 10.354548084684867 7.524941804702015 5.88475355838888
S 11.412912397751867 7.207649892851647 10.06738175173691
S 11.070914257894437 5.861071026295465 11.408312768281855
S 6.936743356764172 14.00269784358569 11.95833084040803
S 14.02451278090471 9.586461679253555 15.090518236280007
S 14.44935196886657 13.596703730795676 13.02876418676827
S 11.093732858278788 7.757165603566055 14.487348294620853
