37
Energy = -142.548004 eV
S 16.721558509598257 17.439540082760953 14.02270926391533
S 18.06080299884289 14.847088561122282 9.962605955478596
S 12.232715310096719 14.57465815013452 9.482613258725761
S 14.621654626144576 6.589196252854473 17.70275111808723
S 14.162016548705797 17.4238516931637 10.88471388694551
S 16.40523014132675 19.09445215315726 12.915077785616715
S 10.89655037138806 18.833017340952285 11.091761475570973
S 14.293157450822846 5.505501586064106 16.118797374150034
S 8.185758728634964 14.114278229780261 16.274267676947755
S 20.768537291102014 19.12269918922408 17.760951155351812
S 8.96280151862603 15.95481994934115 11.4374588803329
S 14.40994848205222 12.395825391543944 18.325573078608638
S 16.596034478551342 9.28993282706942 18.8064364187164
S 18.88291031991744 19.247013950871267 17.40324896767609
S 9.445032300369533 17.666761268342015 10.221802987922956
S 13.601197279824644 13.983652565424586 7.860412874292876
S 13.03382732738489 11.455001034291664 17.23219044918588
S 9.690588174331282 11.19320856592234 16.848689211827708
S 12.865513253141769 7.2329904632860424 13.99265341911398
S 19.62947506192299 16.2212600626841 12.44103259448963
S 16.384939365511535 11.117167346212353 19.354768281445057
S 16.414529154407745 15.30417560853976 9.041105730217767
S 18.79853198988904 16.723643003806163 14.096711825682265
S 12.227365658449054 9.046845589731463 14.125125051868489
S 21.677080698463286 17.4213666989158 17.52282358507973
S 9.435710985325567 12.34659814345743 9.64013205045652
S 12.658813829386107 18.569787487758724 9.924946162657749
S 12.515262553767812 9.711481606467757 18.110197131705107
S 10.338631973572161 14.201530189244165 8.982846332229181
S 9.760513869284868 12.09001024907063 11.628054269862506
S 15.257757828105179 13.44024846741153 8.80772615955229
S 8.107270850201772 16.445033469822025 13.077935735327657
S 15.88190739591069 18.54036287737896 10.918176564274283
S 10.732328447365806 10.150439423528237 11.435385665758028
S 9.208208988979854 12.601714474117935 15.621788112539944
S 14.381116430516302 8.703518591988193 17.38475128065301
S 10.272320666998317 9.152723953488074 13.101885438421837
