37
Energy = -146.47672849 eV
S 3.3456520554223683 10.437965498199288 6.355810197795578
S 10.701370767418991 11.948209941257584 6.772599384767755
S 7.181940493220344 11.402685296130784 10.409555874086701
S 4.884725012629984 10.66385602830217 12.60673591693866
S 6.564770485326916 10.78485046813572 6.369086351160074
S 5.502495599569244 12.247266657330313 11.504971384795939
S 8.487532681233555 8.057661205285338 12.978247820980933
S 4.9107408628633555 9.363137609647953 6.053205702279147
S 4.409621064368038 6.613324836725926 10.947486622236518
S 7.134023483733883 6.697362382473133 12.94260265817984
S 3.2917978808961923 9.729071666065558 11.62972049077362
S 6.402073208689989 6.270724919846196 10.903112204165256
S 12.25455531015924 10.716528520703559 7.477269803095319
S 11.397925613483261 8.874986640793034 7.8148540277529985
S 3.998653993815697 8.50628891662357 10.147248035603143
S 10.4973602306283 8.894222148384875 9.67903158034509
S 10.465388693872761 11.754833115580396 4.792228978264241
S 8.27588531601748 9.664963229197859 6.217099158045917
S 5.050003435721764 8.880078913264434 3.7766317059614853
S 6.0630834537757945 5.878378422972251 7.540286039253714
S 9.217208552819319 9.977289036801377 4.464137282478898
S 8.741343977680586 4.686796865763364 12.802272080414324
S 5.080256332720657 2.7024329031000622 6.972543144486664
S 8.897638504616353 5.088386156442256 5.7995780966642005
S 13.402262723123853 8.7094084198201 4.393048858455628
S 11.853656126322825 7.969854819657362 10.973935452335432
S 4.3450283548598705 4.463917267335837 6.915210951662781
S 11.371873243013773 6.006131993156177 11.107174776541896
S 11.594417901148582 6.037373457698655 3.6235826140168266
S 13.225019785304314 7.052025227358584 3.4207034630319155
S 5.088870347505527 6.902548767031654 3.628474543035084
S 10.32352482962968 5.782039199328606 13.012685205196576
S 7.587194249411672 4.674802699385823 7.686171633759302
S 7.107388836591972 6.28678224670632 3.1404542304737624
S 7.478158669377558 4.5810209160214 4.095863203302061
S 10.29317784058812 3.765954189398999 5.8365753580301165
S 8.459534081899859 12.812993417536093 10.095959169094629
