37
Energy = -145.84038325 eV
S 12.694132543030785 10.201545696355277 8.791615817948177
S 12.522502015377922 4.838352576172724 10.550039372305262
S 13.172980410241193 7.38053620443281 7.139603901097628
S 9.91111030965404 9.774384954074703 12.113469514485773
S 8.589805419096917 9.072190869837673 13.297599858323801
S 11.514456961661667 3.426701222581681 9.707807235068145
S 12.830679071578547 8.267296473615911 5.313195834915924
S 9.519497455770232 3.4322976312582045 10.559774542580794
S 11.203932310882726 12.080064241138862 6.277379767333268
S 11.22110598966688 11.543581787003815 8.287427379320814
S 9.339139697513247 3.2710232140429674 6.279405088551638
S 11.960679592066302 8.273013662596714 8.56533270462322
S 7.884364849780221 12.006030203864814 11.941367490790002
S 7.660653858693843 8.031085566445409 10.019495249770241
S 6.878103705521106 10.840279785446215 13.09257232036374
S 8.493515704513024 2.2219057693673627 9.273174550168845
S 7.7487470735424955 3.3635728691556674 7.755254020984319
S 7.762778442746293 6.992735711078497 12.112657261676679
S 9.484332666952797 8.175190750791712 4.8602992842349115
S 11.297430207403846 7.35491682726751 4.285683772328443
S 9.443347075704423 10.092681985056421 4.0604235030781615
S 7.999290277311863 13.484446463355086 8.9217190651347
S 5.991359673452429 6.3759232896850175 12.467654501308095
S 8.856033559986763 4.458105261476919 4.839277946384547
S 9.338333976737967 11.464342051110503 5.586006864324043
S 5.095587252109898 11.987229037808584 10.000012868057762
S 5.835975951753835 7.486865263625213 9.480728827633314
S 7.282177800845241 11.842901849289143 9.616125541302207
S 4.357971286194755 8.774616701973251 10.25286531581094
S 4.30500369155017 5.397711929322946 5.960480790799278
S 5.869415612141116 6.710988501149501 3.112386877649691
S 5.486962940190247 9.47536536987297 5.104583684266242
S 5.245163384893257 11.386441134531506 5.248271676768822
S 2.7656950146727053 5.777944607818276 7.032367952227259
S 4.310144584941541 10.418734299830003 8.99423290327415
S 4.123885426725366 6.703169935429953 3.910655960861044
S 3.573425113118702 8.619967609556177 4.8067096221757355
