37
Energy = -145.06071827 eV
S 8.941091785340658 8.384509987863222 13.621173511484884
S 5.727650481293218 6.812757668562091 13.332690132066896
S 6.800258635786688 8.4169117061356 13.33402220189956
S 9.8466325620004 6.718840419420667 13.882294726148551
S 5.164411887312694 4.915083819667977 10.68580559858854
S 11.340698082925309 10.279896000575313 11.062108015912147
S 3.553486229575089 8.093420093794661 10.144044704834348
S 4.021696159962003 4.77168179593786 9.165123130611379
S 10.698232273034352 12.85138075872705 7.976221646819263
S 10.343486800764753 5.064705716370686 9.775300169455337
S 11.940815607944337 6.321918546662591 10.066163865211013
S 5.280170857756062 9.085427119524903 9.528884188939083
S 8.61601601207272 5.898988374950949 10.41554045598089
S 8.396190800880634 11.325762414167807 9.824409860628997
S 3.0162601218339313 6.821565612369697 8.706486187555427
S 9.434026535617665 9.753168796791394 10.74215223575835
S 9.495271128846001 11.343628466236419 7.965243255455551
S 12.546909305196301 9.45211540903564 9.44668612204821
S 8.26808427544468 5.610498160782885 7.081039906404513
S 5.053328218471697 4.844695964568351 6.9679783112655995
S 11.670711132827098 7.868454400023361 8.656208400986323
S 11.980737843952221 6.539968465448154 5.090627766047485
S 4.985716922370816 12.198199462832642 7.450472601882529
S 4.575585187412201 10.229124172536013 7.750608962796757
S 6.557055181301014 8.40162162713028 4.935604887440913
S 6.862009675976352 12.475130793038396 6.602954830032215
S 9.761010108726495 4.8807076933912565 3.4599871068301082
S 6.837209320610314 4.011413394142176 7.089042856521456
S 8.171806814970775 3.923210834080979 3.949533080191125
S 4.9438637531833205 9.25735250404012 4.37730290854791
S 7.178642554875421 7.046962556326058 3.0538172866655935
S 9.091749543022345 6.924645892053371 2.7158663553274565
S 11.142342196394795 9.709497610908253 5.691020565337491
S 11.818644440451834 8.366330071287026 4.4849531239317235
S 8.196752347590358 10.051666428046422 4.844993737942938
S 7.078539706447619 11.667459814140567 4.667794661628417
S 7.8013438204466325 6.819735761048696 8.594280953439482
