37
Energy = -143.28614605 eV
S 4.068425147683045 11.5358482445818 10.571915889400906
S 3.7870558833647565 8.066171372227458 9.206852868259887
S 3.7724324709567854 10.612456813415042 7.017314929622534
S 5.732877989249866 11.676333322011361 9.604025760611458
S 5.402695602177616 11.821457602484235 7.475076321966807
S 5.6028765974401935 8.26377355979645 13.221686755149472
S 4.237321516043975 7.281248740532404 7.525113424005636
S 6.842079411127983 10.054783691266248 13.425227304378026
S 9.820550050646812 13.339007557191698 9.204830174577301
S 4.386049127201236 9.010183389358755 6.002040493538829
S 7.194687739081487 8.548564431964559 9.783167919275094
S 9.156080756935202 12.723031738854953 7.4537119162722565
S 6.665882537825104 5.54175222389367 9.421612337539875
S 8.637474436614141 10.185109532352552 4.261220759533564
S 5.815403147176752 4.491574824767895 6.227539142823959
S 9.80068323302696 11.866841158596232 10.667002431614172
S 8.347321558385774 9.202045569636176 7.623417592985242
S 6.8697062433393805 6.83822226060607 13.154836243065695
S 8.969469195363612 7.904578881747189 10.306973576098622
S 11.353643327722343 10.737212145535208 6.222396248407829
S 7.368998416234049 8.799749676547247 3.7718383882436006
S 6.55815687132969 5.981055848734885 7.1850116333944625
S 8.544670566700223 5.409723198367032 9.888378290344903
S 9.839826089970382 9.303899420742047 5.863521089211564
S 11.929290324683471 11.349186359604895 10.646041595542373
S 10.7026955848857 6.0946689657909365 12.857976001793189
S 10.082053211399192 8.621262361834585 8.602731424402547
S 8.62474473894529 9.379300231365288 13.480113507556307
S 10.38066206532194 5.44718332399256 5.574872393183434
S 12.319627585748561 9.773416483011989 11.753722340112445
S 12.395003631361973 6.437806759132465 11.956319876874334
S 11.878732307468525 5.5850180315718365 7.264351998422672
S 13.013600155524637 9.714759917955481 5.520136807995702
S 11.147628069796625 6.228038219053775 4.008260873664124
S 12.301301268516989 7.934541290260693 10.489063141589474
S 13.466463783464048 6.463628458721733 6.44361191453565
S 13.69189558767586 8.484630622882475 7.026152864396427
