38
Energy = -151.68376194 eV
S 12.995243857408273 15.838886764117323 11.131627224249227
S 11.836343103344158 11.723316690039907 9.834590514822048
S 7.0123388303721335 14.501303757405658 11.95059040148067
S 14.619763214337063 13.753913442387963 9.066836395252617
S 10.10598181994097 11.059209901532604 9.293412276494916
S 7.541330471568494 12.750704521154647 12.944957887954125
S 5.946285974039878 13.184386676076503 9.104391847336014
S 11.272090216178428 12.482139461018678 13.155223445391147
S 13.782853166753208 15.629692078321863 9.364052479864167
S 10.020569208898166 9.239110850258703 6.399337853390068
S 6.579578331536082 11.305374887889663 9.442784233951738
S 4.8358963392280705 9.987968017521338 9.112916964130921
S 4.082872135497965 9.302633573472304 11.758039464004801
S 5.301272013893777 14.040808412384617 10.914802576561957
S 9.78223021359448 11.803577059010738 16.1734301517609
S 8.493392966304704 13.416275948884785 16.092794647569065
S 15.984142734580125 13.333935044552545 12.632768939605022
S 6.916685826225453 12.786474116621612 14.903297248857998
S 16.576132288400117 13.922174966602325 10.072056630406879
S 17.47097250888091 12.251216703917441 9.795808806269218
S 10.281754428200427 9.0717108163714 8.398624824882685
S 11.771638371081872 9.750209142876882 5.3804364257995365
S 5.569701909798735 8.219915232837515 8.921079330668828
S 4.977712355978606 7.6316760149141 11.481792343993483
S 13.060451678073834 8.137574328505254 5.461054326831276
S 14.637158818153281 8.767376160768451 6.650551021415987
S 9.71750154103471 9.830533587349986 11.719258459578334
S 11.447862824437742 10.494640375857458 12.260436697905437
S 14.012514172810361 8.803145756235118 8.60889038231974
S 11.533275435480407 12.314739427131363 15.15451041688377
S 14.541505814006737 7.052546519984393 9.603258572919687
S 15.607558670339003 8.369463601313548 12.449457127064342
S 8.558602195223298 5.71494520598614 10.422153449890224
S 7.770991477625684 5.924158199068176 12.189796494536179
S 16.252573334611437 7.513042569131979 10.639045693712026
S 16.71794830515081 11.565882259868728 12.440932010269433
S 14.97426631284277 10.248475389500415 12.11106474044863
S 6.934081430041805 7.799936835002095 12.487012579147756
