38
Energy = -149.97807763 eV
S 10.99766525074684 13.446512740795566 17.774774853022727
S 12.563413431769948 11.85408815900488 14.189636555525489
S 12.64699373603402 15.296108315609697 21.169560823142152
S 12.3675366401519 19.3747641570682 10.91470543665869
S 11.107879212323324 13.067288459106676 8.335230113623181
S 11.2214177011604 18.763243419560492 14.956048274003937
S 10.802817164539633 10.284670582094558 10.161471991417855
S 13.185791690623525 11.148325670994584 18.76364647888336
S 14.645089827197557 12.189175532475678 10.112334347518534
S 14.774908830289068 10.990338812924737 11.864068346597431
S 18.250328539240453 15.99498851961646 15.40239363944054
S 14.215246283406472 18.219444038696977 13.471217419974678
S 15.635664415712618 16.04144634695889 17.198346903824667
S 9.747691964984945 17.5572925008197 11.822516256056616
S 11.256768130973509 11.424139647811971 17.834449291327434
S 14.197188489648344 9.88378072154064 17.703878344870926
S 12.349114283975368 14.248893730897326 16.413701725304563
S 10.353520804851636 19.46145893800494 11.302154756482247
S 9.911582859695873 11.949845680228048 9.743199314960032
S 11.454844710982725 16.20965602050467 22.333444769898342
S 13.414606960430202 19.869408860407766 12.683997797509281
S 18.213978372506418 14.192802707298108 16.4921074828895
S 11.787155681786224 13.728901140055324 14.484262701838421
S 17.41826787625272 16.944774460533782 17.083993627134866
S 16.246923372774173 13.927509372523604 16.73636725083319
S 16.849529287978864 14.721802758358944 10.224754337478771
S 16.502967677212173 12.608935923111126 9.53001963756668
S 16.774082174124977 8.175829613535017 14.595725024508683
S 12.735470813119049 17.59388885501954 15.0432517524968
S 17.774008330421246 9.57558205410922 15.81480056985284
S 9.009425342323931 16.66322531330693 10.095164136309162
S 14.577128546830531 12.028815211378841 13.59837515064074
S 18.069679539150926 6.654544799194496 14.605364703696015
S 15.22593351404555 15.398283624899486 10.982011756992682
S 19.283845398569465 9.656343643543764 14.341876206526425
S 10.577090976988787 16.354651158516813 8.795606329447134
S 19.995734888820973 7.792165598498598 14.416005861105878
S 11.731589383580303 14.72601985904765 9.355064311320932
