38
Energy = -150.50455035 eV
S 14.970843173663301 15.60269450081496 8.569502546748199
S 8.822837602796158 17.448274930444157 16.885027728987712
S 18.32733019734295 15.459451705681813 12.045086273925252
S 9.214532781806449 15.52955865724591 16.33059837807783
S 10.93208791509571 10.845652096359823 17.820724685804613
S 12.675645727353073 8.194324041148029 18.31787953054332
S 11.648764695716107 15.329124954501173 9.319182717050284
S 11.02371399411699 14.67979627347394 7.379950712240832
S 18.484392162019752 15.179681195666321 18.366272045160937
S 12.359446948941741 11.577171644265224 7.310700181516106
S 8.374194768847751 16.168804625519353 13.09542677569484
S 20.363952975886228 12.625835519001658 17.16058649169722
S 17.786288470800045 14.758082078225604 13.940987806162537
S 18.83732904845055 11.435088715547558 16.36153955048261
S 19.96997291780915 14.5868920058414 16.88314086234412
S 16.67461837680058 16.37034304788704 11.313853036312521
S 17.607250090261783 16.750621307841197 17.662336278812617
S 12.084244028718418 9.312873706325945 16.818966323156634
S 11.413963933725423 11.09282399898878 20.98597939346866
S 13.15969570768518 16.623137816361726 8.94030913585669
S 17.25641555263886 12.77573726992222 13.801431066056148
S 15.621806253421271 14.802821985341671 10.304910180319151
S 12.973822580819947 11.241360813957963 10.650488396757282
S 17.508038097816012 9.266665707523499 11.25498578525345
S 14.882858935104466 19.60686647024818 13.894664884174603
S 13.510570439156126 17.998238540872915 14.417180916026666
S 10.578324334054214 12.720541442480254 7.470071021017696
S 10.821437524009857 12.213918435950792 19.488050400725754
S 9.761697849672455 15.481513969495413 14.248871370918783
S 18.87535723302539 11.578845854720338 14.309319032616392
S 11.067285727696282 19.75584210047274 15.980086106229667
S 12.31144284438848 10.300938983026818 8.896056329725111
S 16.67363702327608 18.92957409060052 14.126218732431223
S 12.56718183082555 9.564670838719461 19.986353730216564
S 15.589901158208427 9.38045068140235 11.42765447952397
S 11.671782618054523 18.81404072230789 14.212396009773
S 10.642573515620457 18.33095766109637 17.39305814691128
S 14.994602255615067 11.326943784066676 10.666801762097963
