38
Energy = -149.8200776 eV
S 5.891830447695554 6.203561314468854 1.7694820642997133
S 7.4999206305950175 9.854832128024652 2.490947218917654
S 2.445754746855237 6.919158540952563 3.537250977721853
S 9.067196842645664 8.740740754876333 3.3278808226115215
S 7.0014556860036 3.0165123898843307 1.3989145609068732
S 5.306197112172731 2.874923405460906 2.4358946434715376
S 3.993995133501261 7.961078482851943 4.426337148573214
S 3.3065160750314435 9.894145346703725 4.709896063895991
S 7.4298155381826625 5.208837261123662 1.202108347115555
S 7.734533284752351 11.613423014727426 3.42497305680702
S 5.848400494442686 2.5143457389957975 4.45345504052571
S 1.3961455834533174 5.97222346490492 5.047961295439331
S 11.03926842842874 5.954183477796532 5.532666801416483
S 9.575716107449868 2.8825398040574233 5.615337779264246
S 8.202834827200045 10.88948110832422 5.489096266063436
S 5.373625103796266 4.182939376644967 5.541354411405036
S 9.8789531910752 2.0302405793775398 7.490418532931936
S 8.100453323269056 8.913699049046311 5.1936685974938355
S 3.56851974659344 3.8075460119458038 6.4982859197058
S 11.939199553039135 8.499287240270805 7.814332115532558
S 2.073735315124707 9.910911293865379 6.368507957217053
S 2.0421465469036395 4.012873145536532 5.128627971413097
S 6.816139429285666 0.7130412176990909 8.020655624464418
S 3.0861953028116975 10.564633578242487 8.04775861426061
S 7.346095406783998 11.408561083862914 10.152058581146745
S 10.465520140935201 5.703005048378186 9.029345368492379
S 6.117335540693722 5.055003340669054 10.198889435545798
S 6.508324161257337 12.090246413363582 8.570187848227471
S 11.695394459590508 6.57649328885556 7.811917784968651
S 5.888338301562942 8.791814540785301 8.604834599558117
S 9.360868678418424 4.9629148114851125 5.820220430883785
S 2.817291595994737 5.108051063400096 10.583989067725792
S 8.221757749951356 2.264679033596245 8.62066197493269
S 6.900846762019271 9.185864943508545 10.26357101168113
S 5.147950806600848 1.1549162953397192 8.890634316234735
S 3.811724104528066 8.939627929822633 9.062772190311504
S 4.487651415657768 5.375246954691529 11.498098009452875
S 7.783991131375136 5.42005623213879 11.098646255060974
