38
Energy = -148.48970723 eV
S 20.24910551618004 8.819439761600165 14.474175083381423
S 15.415424005593799 6.704120596982708 12.248774046147977
S 15.284653849295175 9.300041192530097 10.0618595225195
S 11.053853738599944 11.721392420354213 16.96868750310945
S 14.430928305094556 17.491329072551423 17.11458684060537
S 14.635276927304826 16.020531112561514 8.345851164857972
S 13.16369819807232 9.695797313391726 18.549152883916207
S 17.04256122721621 14.664859124385002 10.753815734473694
S 19.883669979284626 13.808348963119771 12.223188829685276
S 14.433292288783996 17.92152876035516 8.336478580777475
S 9.087426486588067 14.63736217350884 13.047000775318065
S 12.290942025439048 18.350466151866396 7.67520864597376
S 11.96205764206161 11.536470185902886 15.134264790243801
S 17.97536663703603 14.081511088831698 12.340617410942208
S 15.641549190651729 11.157181698330708 11.046769191061541
S 9.655412404463014 17.41431987489635 16.479990349438616
S 11.559277544370413 16.55079216783529 7.362598533815886
S 13.64688655878259 7.872758135173993 17.67213685705818
S 12.635487124669131 17.581412858910255 14.691231894712624
S 14.358495164249225 17.87047359973385 13.922654740270236
S 11.163663307004663 9.990729584315813 18.095628037822475
S 20.163335382649095 10.718183908427484 14.386706491586155
S 9.747486202425184 17.121255577138278 18.388735861097032
S 8.799564303210863 16.08959704332409 9.239477927744295
S 15.676437548353741 17.804030449526163 15.706787580366578
S 14.245646970807398 8.110744049920664 11.42179256685446
S 10.185404750979501 14.849359805709147 14.626860477197457
S 8.603864514847052 17.856098075778302 10.629621614215777
S 10.74134627320702 15.692079077201397 9.192588803276369
S 10.89337336186544 10.374397671500152 13.8057426084451
S 9.126917728035565 11.30100550411151 13.258222745497779
S 13.416885685183258 8.00448800746968 15.649898652390748
S 10.273892299349475 18.11318029128645 11.533039604197658
S 9.498241084643361 12.821022738916259 11.945414381428602
S 16.33964447374752 7.514262091425717 14.0316031822607
S 15.078536297487794 8.91795760788872 14.725268571019068
S 16.89677819832025 10.956934960249452 12.50955196586805
S 11.48432250382198 16.974818133182726 19.22131966532482
