39
Energy = -152.27879017 eV
S 14.179660692876604 19.81472589296726 14.243037978656238
S 11.562660611127239 13.558643794926525 11.953968489314585
S 15.874635080591286 20.84669632941273 14.327320567786188
S 14.206482293735116 16.415394622424497 13.886543876174994
S 16.037015204483193 15.6969019251169 13.149478986765592
S 9.867051583986193 18.571281206988946 15.292455904151314
S 9.992540626137743 9.713586382090078 8.329494695469663
S 14.254150205227788 8.662638931045837 8.092223177010471
S 11.417164439944914 9.16580361260328 9.724483795003023
S 14.500962654412184 17.939834352685317 15.200808621694224
S 11.850368112174056 11.667686009904429 16.138106942195687
S 13.038779994906006 6.832921088436926 16.41673968639387
S 14.88625083213139 16.39940679068508 8.39304737159035
S 7.715982793464417 8.95171710074246 11.957805917674735
S 8.956826878505069 10.237082010451184 12.707258671009434
S 18.013937779641534 11.994536240442562 10.872120168100725
S 8.319102506419423 8.537609099117986 8.679816651661291
S 17.664055804436877 18.89042321941112 17.94737187530326
S 15.300869077656417 10.063013585588154 10.96768294783766
S 15.060042021166057 15.454400514011045 10.066898436471854
S 12.57267151175223 6.980546986509722 18.277339398416043
S 16.858072995174595 20.549886751614398 12.32209423401239
S 9.733650179395763 14.048199793405159 17.027446292435542
S 10.028825387562684 17.297040668952995 16.732541777032637
S 11.127294167741386 14.161051172239443 10.201697934783988
S 10.817785638575574 15.438676116490457 15.951343844973565
S 18.521858053453073 10.306415439265454 11.6158316481586
S 10.701871828924826 13.569913994920466 18.706868038717204
S 16.396319924747498 16.56793180656739 11.349848130916051
S 15.580374143765743 19.733923546544048 11.147022595346886
S 12.605542852660525 7.692796177456109 8.887004723391588
S 17.669027649892445 15.909633348475472 19.16775831670568
S 17.724122768353322 18.04444352815714 19.652322273688313
S 13.457009750477939 8.31649562324971 19.346056036501796
S 15.811208632679646 11.867119198249272 10.314959113459704
S 7.1005009731594795 9.539457421796307 9.978093764279466
S 12.073333000345055 11.888845480803372 18.025749379263736
S 15.742060057054655 8.609906285214642 9.50586117749919
S 17.589035664340948 15.889309162892271 17.262652178967958
