39
Energy = -155.0681763 eV
S 7.059676940682041 6.437213306006187 1.3293263244631286
S 3.881801557889572 5.401042006263378 1.5451561310374267
S 6.817235273977199 8.427746546734692 0.894390744361811
S 2.5591791932431978 6.924575826190264 1.971072006033779
S 4.936011149907463 2.0442323177305473 3.51603546074796
S 7.676493890547967 9.546142916689606 2.466477774359055
S 10.627569767160871 6.97515215197921 4.518567666346734
S 5.610688055123078 5.759647224769081 2.6374855439062177
S 3.142725924711642 2.564164088254993 4.015609451190417
S 6.193252002421635 10.464066988127614 3.454059278105217
S 2.3882056607110105 9.958863401604026 5.179737332549854
S 2.1279356212088145 6.59588637784435 5.285131453412866
S 6.3003322699068605 2.008979780428797 7.3501103427358485
S 10.80265553808744 5.334156829938435 5.959141538861945
S 5.543155593210143 8.995969607893556 4.904409048261488
S 9.323937760044943 9.875309085763385 5.93771276752715
S 1.2759246012554328 6.223801672829884 3.438603304739434
S 10.33121738440017 3.7033660085192364 4.873002375428022
S 8.278816433665224 3.203405201171235 4.831441871045459
S 11.006989799778989 8.580221155516329 5.674318167708302
S 8.066426842914284 5.79916674454766 7.784275744054512
S 2.757748176317846 2.8022519720479298 5.888554702271712
S 7.970449935414787 9.416627040565096 7.359328331533457
S 7.909020715721519 1.6033827768084514 6.087218914846914
S 4.613629365504384 8.948676236264879 10.381609876843939
S 1.3963672579482649 8.375697392846309 6.04670106974448
S 11.193809935040289 6.467815652700624 9.163628686528854
S 4.283604314181907 10.083575548920422 6.053219575389902
S 11.097297924163755 4.397233744190468 8.964169527621788
S 4.6816378509199605 5.703265117772068 9.570008923747404
S 6.969912521176086 3.3740099025188117 10.522122103374283
S 6.72160242306302 1.6533373961261568 9.338205403132545
S 6.293734511408176 9.59977384772237 11.433564151182946
S 8.774534927565762 10.126286101095308 9.226851467107812
S 8.044531668258264 8.832709078533577 10.611650200984654
S 3.2061937838140566 5.165785300995005 8.470696641751786
S 3.950788980291936 7.203152983833938 11.136863363832301
S 9.212410924368504 5.557391466105955 9.27476745146171
S 5.185820847182803 4.079246525339644 11.118102604956896
