39
Energy = -152.74286489 eV
S 15.20603754220934 5.083364132414497 7.01135002420435
S 12.579582479621017 6.909125745616132 6.1933641799779995
S 12.068255758296514 14.7156116768274 6.989997682909802
S 13.321296833004752 5.297054049059953 7.331401037051992
S 16.709559125727075 11.64791168189844 7.524753767782046
S 15.609472950212362 8.529575087287457 7.399554275098445
S 6.6438111927865116 11.1682249523291 8.405485080348527
S 6.432741087820493 9.200513824630251 8.597637684046852
S 12.654143729808187 12.919017696494725 7.728739422575616
S 15.589673568855913 10.262591873560881 8.256595112445346
S 4.310598510697353 8.939192773149365 9.327495994090423
S 10.71731104228406 7.228239789089573 6.564490971212667
S 10.726559022011903 15.682005612491581 8.229510410359465
S 13.119925601766433 5.953906857001998 11.888205922744254
S 3.500042183827746 10.687625718479515 9.686668803092504
S 7.230155699633757 11.886799443679825 10.30107122302392
S 14.742904540851443 15.14155487570822 10.56461211003242
S 11.761086479712446 16.653845148004834 9.803478451781377
S 10.965965093635097 11.595589099569159 7.368954399334895
S 3.9733634892955827 13.251935275062475 11.898083342552663
S 11.135031241494634 10.162463242559909 8.718525992937508
S 10.484287964792973 10.997015032592659 10.65968923115112
S 11.494681503602584 6.384899910435656 10.771685708708516
S 3.6731836757253973 11.174417333120731 11.802351352784516
S 9.217400869872858 6.810342493327404 13.145077978244549
S 13.343419783763451 14.175825379697148 11.429694297676487
S 13.96420043510391 9.35883013586425 12.036896396399296
S 11.455063669475683 15.5998426881427 11.44830672274284
S 9.212741890838034 12.48745947267994 10.209592565838848
S 9.905710737204432 5.462094292356984 11.775557329300465
S 5.688021022877688 13.74273503751783 12.671858024307818
S 13.743684871379477 7.759213837224572 13.075853963708001
S 7.146322957077986 10.607314079847589 14.22579224444808
S 10.64194092096715 6.772273605867219 14.708976915291187
S 13.356382936372004 14.31224811145196 13.77173393880484
S 11.86741759407597 8.294868325742522 14.316736282197564
S 6.501335286688043 8.830165219465654 14.602232903972236
S 11.972922982294104 13.089754652085968 14.3102790648148
S 7.783616204219934 11.674404317548415 15.69756167189089
