39
Energy = -106.05993722 eV
S 8.082054251698645 18.911814057618358 17.107482583874255
S 10.935933007117404 8.499372159537495 10.814480510744946
S 10.95204046202215 18.795988788689407 14.93681605712957
S 17.330615918251308 17.281188578568567 19.042158110821166
S 8.986241527057743 13.508090159229711 11.095873138518039
S 16.08965236849146 21.324219619979697 10.054010137102185
S 15.612204103936323 14.939061689649401 13.178621712181851
S 15.74426466751386 14.268703574804183 15.046419684139169
S 17.43894148234677 18.26755291504383 9.184095358898466
S 17.482781484428312 20.275423710413598 8.744005876563843
S 15.600345270646109 16.146206774080447 18.1372783085617
S 8.111339962515752 16.388545475586252 16.650028701043514
S 16.319489376413838 12.32692557623958 15.438118621848437
S 15.672346236153793 16.09906367019853 11.510661259094212
S 16.180142334538623 15.19064182743366 16.263960409951185
S 17.127370557825234 10.605909483400144 15.814851458088576
S 18.992809633030127 7.776257494129556 14.409789079422932
S 16.285910343796456 17.255574477979103 10.647670067051308
S 17.861184776535328 10.223724084401905 11.905585594771962
S 16.931480275739297 11.80944611422299 11.507354961159542
S 9.597636081048682 17.37538054308084 15.700777875925894
S 12.695264852830674 14.177034124432085 10.651061226119948
S 10.490573393533108 8.011271977071381 12.69294252416674
S 18.95355759929445 8.56986583547611 12.434064395624409
S 15.739072580223747 19.230912051883 10.687277690415977
S 17.570756080802617 9.533383136915663 13.945317278030021
S 15.989901768272512 13.502678969354172 11.303486667034976
S 14.358122105532713 14.574178495172106 10.89016015319409
S 8.47696051731469 7.784375462467933 17.3491658214698
S 6.716453699575054 17.496188723817585 17.85115052747305
S 10.783428221424948 13.812022340755975 10.68397273552964
S 17.17179594936266 11.416085858583799 13.638877286402574
S 9.588551574989932 19.89495137216251 16.179646575910724
S 18.12509662826664 8.892324442929523 16.072119544110574
S 16.132251629840297 12.932584443030601 13.350905662512979
S 8.870881013860757 9.523840157357379 17.512392883984806
S 9.99471697878983 12.90225259934684 18.940539777152363
S 17.872252864477506 16.25810729083696 17.066061972974744
S 9.440782280750543 11.397630650950015 18.14312980005736
