39
Energy = -153.33082014 eV
S 10.906203239404471 13.262307890001416 6.14902817644191
S 6.347726604605452 11.58250242038057 6.886986679511855
S 12.009889322473859 7.470513750676169 6.161386835733187
S 8.251210381339797 11.519951226257103 7.245615711031905
S 9.181540271533052 12.52057463328868 5.499404652725063
S 12.326418222885819 11.620407834633099 5.7631020918338
S 13.391008960907977 7.53607813683212 7.508477342600388
S 5.879044587986196 13.747898759561446 8.042633821995581
S 12.38563064117107 16.58085042035113 10.525330836576194
S 7.600983652599468 14.132227452113462 8.740917358182754
S 4.094110494130176 7.149478754515343 9.859789117582979
S 10.988458057780546 16.231321023854957 11.786109558161892
S 14.082214106121432 12.201186675521104 6.30095847586324
S 9.290176563830892 6.3791170179455765 8.346864171898295
S 13.747168793052536 5.925958973864922 8.51893684790528
S 8.895552800768105 8.226674792147907 9.31149040050045
S 10.735494864018673 4.339559135152064 10.6257741195785
S 11.877315373462062 9.34471748890225 10.399696125613074
S 16.501021868761917 11.78216207310015 12.442019121993923
S 7.892448840046669 5.077338762178651 8.937806842528909
S 4.7056984627357 12.894989265708102 10.015734968738638
S 11.479687252011237 11.16277953821315 9.503889119603793
S 10.054395080718523 8.49756607929423 10.966053513032948
S 5.055900779915317 7.366256709549737 11.51511444551351
S 13.69856217037157 6.285154676949181 11.631518214280796
S 8.899707607036637 3.811445844351937 10.487479686362361
S 15.287557711853337 10.31837510546536 12.350923099691691
S 11.00841781472307 12.615334506487205 10.877215351715977
S 13.571141229642036 14.664058730145706 10.2575984495528
S 6.172284784372404 13.007582956784557 11.284980211231064
S 7.150758142290247 11.016950814626984 11.360076844965247
S 5.506929001037484 9.601362529216804 13.970959717721083
S 12.794121357615731 13.455815050620457 11.62615257488074
S 11.425121950296738 7.26564012014249 13.835438598300906
S 7.428073635124779 10.613895706665222 13.255605357887262
S 14.239936409937451 10.40873957800262 14.277698760668079
S 4.4471563382480985 9.33013601588103 12.345999494661362
S 12.31192580208016 5.817295480806562 12.911749790983292
S 15.047512613981173 11.904299860682379 15.141989302820175
