39
Energy = -152.56504391 eV
S 10.114371994902147 12.026980261297672 10.884473245285767
S 11.593496446510827 12.10986916977245 9.48561208439246
S 11.276792549787642 13.968570507833284 15.855493377622857
S 11.741220624821798 10.729561314784926 16.456478059123455
S 9.60144127571156 13.127141627186445 16.20556932472858
S 12.69463641402619 13.755765631454198 9.662221984542947
S 11.286241270012265 9.469683251216699 14.9019440347824
S 11.59220125872623 8.075397440433521 9.282090109626722
S 12.886781385858065 12.254614583886058 15.873576294862533
S 9.530537311277447 10.36746498015689 14.003661146701218
S 16.63542923155223 12.434119341074588 9.527406818047742
S 15.542186268633799 7.048903775272736 12.503788722735477
S 16.204833522127327 10.652014868384247 8.983083009147519
S 15.342899485804985 9.083358625089664 12.554784958945417
S 18.334617931525727 10.388172864410656 11.577030366901276
S 18.15287347932968 12.336046689213033 11.190038112888683
S 17.775763787926184 7.088794226195992 9.944932072236021
S 16.01185737524492 6.4966995078816945 10.47442138596955
S 17.099775051424906 9.918775297426778 13.22252801166454
S 13.315490275263038 8.705537705158223 8.683210877571678
S 7.997229005655505 11.660222241880305 9.754294003115714
S 7.8384939727748915 7.799186280628972 12.794975597359976
S 7.658215233819606 12.927951631524776 8.368707734288781
S 9.354920364497024 9.261133961923214 12.34956727793567
S 5.683872445844283 10.410536590800643 12.03518069949468
S 6.788293699231854 12.150527912545243 11.542775924884484
S 5.600633454070549 6.4723049023792765 10.826559732415694
S 6.98866379725779 7.814603511079297 10.904621336099929
S 6.140854585964849 9.778305812240436 13.8208431454235
S 10.01966586804791 8.74173962382191 8.383617805147622
S 10.901183714603485 16.53949361775246 13.271017358821403
S 11.749262048977405 17.121626566679115 9.284356120095692
S 9.774700486964372 17.162425019189268 9.300253706039765
S 9.11322951972081 15.634067202175387 10.587383547623238
S 9.017828330789747 16.31930211211579 12.542267021880601
S 11.856853556231828 14.569384253506843 13.471364722254284
S 13.715166242326454 15.009484427346608 13.726127500068912
S 10.354468706522663 14.731194093574143 7.264495402222642
S 12.084592631700309 15.230613561137664 7.870822485802488
