39
Energy = -154.07645976 eV
S 14.873459664397807 5.504585402675357 10.98977882783033
S 13.20126624887141 5.770755512048821 9.967911638722207
S 12.029458281332433 7.729336679266838 15.170432248477612
S 9.232614969816295 6.372930821823263 14.033089257152335
S 13.126150165427555 4.283152872871319 8.387972405274365
S 13.112319728796574 9.371837279325451 14.559465131429508
S 16.312904080612295 7.010939445777714 10.070932503154902
S 13.583883780381177 9.350177365492797 12.583435375492765
S 9.466448795679945 6.376394427552558 11.975352989476356
S 11.332378934272068 8.952089054875518 9.286206473703647
S 15.390589244861623 7.890946880060499 8.646188429034922
S 13.541769412131133 5.112901199869727 6.6473530118221085
S 9.972336708415394 8.070565153615973 14.909074905352313
S 11.062296062071836 14.831987066719257 14.623193933136665
S 10.313742748322118 5.694626786520308 7.468177794335244
S 7.858324568599205 7.363962448271789 11.1289935153166
S 12.415439034611708 10.603659194565553 9.663304776950191
S 12.324595686080666 11.10896934181065 11.852604439113097
S 10.52700275799753 12.839632762974484 14.854483392087628
S 5.456962361291779 12.389204973548757 6.176457989330969
S 6.755491366902055 10.984973181466938 6.491105792918309
S 6.627896314157985 13.854104467007893 8.84937874770724
S 4.459908737573823 12.260932928670192 10.92288580232247
S 8.184118995374012 10.96921932949452 4.876089513189545
S 7.705660112477432 15.288705761567636 9.888777739847008
S 10.626214497232716 15.362362417166906 8.216080180628808
S 9.684956982172402 14.735142203552027 9.97174015907934
S 3.2314880886613504 11.249289839639076 9.652011224756995
S 9.321155287391388 9.503897564261608 9.029977711086467
S 10.71196306898198 13.155369091840779 5.495625722101976
S 10.057416364113037 11.158759028041315 5.6417352699969054
S 8.429657280511632 9.330082709187543 10.874600518769519
S 9.324219260980248 14.11572188234608 13.738610138773183
S 3.903163409660849 8.1513536189239 8.532163275676794
S 3.6515284710231555 9.181991128820696 10.146751803337693
S 11.551506180448289 13.768930194769872 7.277027751570491
S 13.338001319595806 12.73959895813566 11.900003353278395
S 6.375457425167733 12.219208920210239 10.092033696497943
S 11.510847618821549 5.9262961204493285 5.99358657648611
