40
Energy = -156.35733351 eV
S 9.866671032218255 11.327346954585797 10.627543979473266
S 11.453865853338296 10.919880905967268 9.447018945364073
S 11.047030472469006 12.754439376012604 16.344923948789223
S 13.808752859024759 11.293368293672577 15.546467202380983
S 9.839654084004932 11.847183070480666 14.974951776668933
S 15.14170176235045 13.845510614841688 11.37458343474869
S 12.652005300121045 10.180716156439193 14.045209801697009
S 11.070188640828519 8.862745972177539 9.263043869100336
S 12.793430399975696 13.272504063914528 15.422763868071787
S 10.772517532652861 9.802869258605526 15.09838374906061
S 13.152431042557017 14.091750620770508 10.824904357608089
S 8.107763296742247 14.717998123484904 12.213649730235206
S 12.35412619789802 16.26161403223701 7.790863587784029
S 9.498192467452355 15.376984573851242 13.54324770515276
S 13.092794826099789 17.1411704932831 9.341487367820553
S 12.686641140407769 16.039523126143656 11.160502907325462
S 7.909104550422047 17.66848021084249 11.803429851617537
S 8.730687115228786 17.087450883515675 10.03681166803809
S 9.36097914090148 17.586544020306516 13.219492057242393
S 8.884404119076438 14.881415767227175 10.34354982639204
S 16.298968043976263 13.966959021092247 9.649769733240506
S 15.89703940722121 8.532831278264043 12.268112305117983
S 16.82099971429142 12.05673267102701 9.14725721883718
S 15.571218939933884 11.484741817641426 14.80682820992474
S 18.6599084939592 11.71533713371733 10.163411444929569
S 18.30593501270507 11.300207134135645 12.051567782454942
S 18.606934887628782 8.530375886345741 10.108630842410191
S 15.436484203222104 7.523506054602963 10.58077123171003
S 18.198862889062806 8.904767917053894 11.925780874146861
S 14.673845232773246 8.66517630853653 9.18002856515351
S 8.057711072917032 10.477311026928334 9.442700343594305
S 8.629912434295399 6.575865609957735 11.485189263311023
S 7.244455751001816 11.593759101822704 8.115988202827571
S 9.790044978783648 8.592551454158222 13.97747542395062
S 5.3868897169684224 9.525458602774737 12.241941534570364
S 6.62224064044001 10.88468239004716 12.819391170933502
S 5.256019085108343 6.2864096666555795 11.783431449443892
S 7.12922353641532 5.8545733616475415 10.541353915586226
S 5.873680067473103 7.552322802551307 13.156631623318763
S 9.38150012061805 9.081750561887139 8.19572516421176
