40
Energy = -158.13582436 eV
S 11.585131311449693 10.687456360183377 5.993094089625329
S 10.314602798802426 9.127913083171476 5.450184058862073
S 7.654642755028045 14.32759479709876 7.850976347243541
S 13.94491610459219 13.623816029189548 6.296386067262017
S 8.392492945602989 9.75541666375536 5.625237988845761
S 13.944752277236873 9.496137002463449 8.060751500507331
S 10.375812810948695 7.4783661362933715 9.411538126330841
S 12.185320634828892 10.438104577993336 7.984518546781185
S 9.524302384387902 13.34133224980025 7.930522794666071
S 7.690653133272161 8.95411625509396 7.527271943386713
S 12.414998900182114 5.678603145937764 9.307619156462868
S 15.678608537951712 11.069114472342822 7.901163649386568
S 14.40339553441699 13.036883027313413 8.064680189960734
S 6.715532907614204 13.633027131812918 9.616990444727948
S 9.819393664782327 4.822076666248377 9.49400920472523
S 5.99690725840714 9.790178021411956 7.918721381668398
S 14.706830679997408 15.079666113800885 11.396408988029227
S 8.721075631937358 11.386320761032906 10.157339878723224
S 10.502638082831906 7.523391489778876 11.297642097458095
S 16.73941851420525 10.943187839118766 9.492576760318535
S 5.553125314944876 9.94202469852838 13.179368898923993
S 12.675530184863259 10.591517903571317 12.35258082164052
S 7.643220058647392 14.448494083859362 11.14782811059222
S 6.736123146183944 8.440070357352774 12.3771143121957
S 14.428051803795022 11.068639916620493 12.881613614535361
S 10.573053886587614 14.131677458747443 9.398235120562363
S 9.479927796726518 12.795616204206823 11.171491019870329
S 9.95856999036521 4.8459484004612365 11.381590121712716
S 12.523812163402892 5.711683937798362 11.195877873788493
S 11.685271234673362 16.252066951894918 12.160976628273698
S 13.322389755517314 15.037854845045874 12.730990444202586
S 6.9366505451898615 11.197473417609265 14.080116540192513
S 10.2951929283084 16.181815154750538 13.494487763603612
S 12.50696446756676 8.862994996059685 14.448500434688784
S 7.32127022869912 7.365805544145789 14.051426837405945
S 8.70790193350019 8.616244097989936 14.956290942939432
S 13.437269523173875 11.927306013108979 15.29476965704575
S 14.248928002457323 9.364884286045807 14.993750649124447
S 11.688744108125617 11.460883255749472 14.73664469540309
S 7.530414423186553 10.128135017004512 15.752550662717526
