40
Energy = -159.0356084 eV
S 10.479190343280397 11.358720074472304 4.349783695752948
S 10.573741613150226 7.456682592412288 6.949686627950075
S 8.445880797754148 13.279635402468926 6.122970401546643
S 11.995757614478315 6.096509384776186 7.426462861191292
S 10.500181783762564 12.58853059288465 5.842753942940406
S 9.238283534775992 6.4308466333980485 5.575663827721397
S 14.349400324616646 11.792375686759506 7.270223432010932
S 13.579638083630723 10.11536728435361 8.114543532898907
S 11.643083719983286 10.559968787488195 8.74958270925777
S 8.02871110404418 13.253249504670103 8.095408969116933
S 8.209096726892474 15.234122190532675 8.841228300592807
S 11.2648318969361 4.811539025287853 8.912503088357845
S 7.4930256407336575 7.234802239548431 5.767903241203253
S 15.140642542925905 14.713947950571436 8.703173395947639
S 4.865731640699808 9.35108071982221 11.738689218294148
S 17.038090786338504 12.02421552088612 13.066155750432314
S 5.791422102142989 7.338343753464894 11.32697319652022
S 9.60535978711381 15.336652644720639 10.32256363515168
S 15.210604545998455 12.807722111879501 8.990598721541975
S 11.749024743910892 11.322563593250386 10.661024907008246
S 13.330900864074493 9.030361276069915 12.560352858695419
S 8.52376763411627 14.966679727681418 12.08585453454613
S 11.095518026933279 5.839347456721927 10.678810046853132
S 7.647914011144555 7.407122593943501 11.780412509738246
S 6.352941961681158 10.447646461243338 12.483992348700312
S 14.938795356446082 15.538219613501935 13.231060334261558
S 9.184962809667274 13.17202707467379 12.83159415083444
S 14.114191973739143 13.517042380768116 12.8532124384038
S 11.4856720575533 9.7759193839116 12.001314171035208
S 13.882633435248113 7.599111365773825 11.172280378095149
S 13.53186790030666 16.849811500654692 13.086506178237725
S 16.118475561453888 11.572833865748194 14.680557699235022
S 12.925141224986493 5.838175946190165 11.659217806399448
S 14.086783066709343 12.624935947177475 14.60988680855473
S 7.48762257709922 9.209561900621427 15.465917246534964
S 6.2028425040835975 10.543869538880209 14.582829013971429
S 10.428985695261378 13.646362129563121 14.447816737139949
S 9.420985007984127 9.945380253699021 15.27352434996636
S 9.298877368558326 13.210846281742004 16.098795379423706
S 9.886778033036041 11.30522601103798 16.735527957187614
