40
Energy = -156.77010657 eV
S 9.609817477781721 7.870181610822635 9.367525423140947
S 11.686418903034125 10.024839827147668 17.097457448766594
S 11.204272423460628 16.77253432183597 11.740054918223034
S 8.863105485986427 8.764358356221512 15.246991995110376
S 16.678738184900716 11.084536439742953 10.884218715307576
S 13.592616181887225 7.4412708268974415 15.009096196388658
S 13.801446654703145 11.006310230127639 7.006265031266204
S 12.365347484342724 9.752953782891366 6.730814156310838
S 6.0209414646073025 14.562999868420054 12.045037558634435
S 11.63739179287765 16.433200425793487 13.598717193754018
S 6.482375835423577 13.08345610588414 13.526611546304002
S 10.520401079762179 10.574094489286937 7.597060079205421
S 12.39107295934577 14.001189800571144 7.641875518306511
S 14.4907360544013 9.259704238355067 15.377888498489261
S 14.902329276559856 9.344314665376677 8.902815476361045
S 16.858027550952634 12.942180529644597 9.939395360551808
S 11.081269035151696 8.019444869981436 12.879072864158497
S 12.920343415801948 7.117161425434204 13.087770421019766
S 17.181001617880504 14.413660052544104 11.39573562417637
S 11.848583380465556 11.178111896529959 12.666965476028977
S 8.644267215573223 14.049573656832557 9.938643834301939
S 13.471981762525145 14.676404126853418 9.288390978679871
S 12.139529679864514 15.958374225045935 8.33333056507379
S 9.889287145392897 10.431268776410665 16.395351807994054
S 7.846481894933685 11.102738682724052 11.275555789469896
S 13.0598587000832 10.720470039880738 15.596635519176335
S 7.426574226358629 12.512155117799235 9.705574156481772
S 11.352845328948295 14.19863625188355 16.005682482271812
S 12.449518398656846 13.003726691912625 11.793521421040314
S 6.225445386854778 11.32463515126905 12.507428549495279
S 11.495057885339632 11.587333445904502 10.6341509379072
S 7.7239490086503135 15.393895999393289 11.480077708362822
S 15.49098812025984 15.357128754345291 11.889832293693702
S 10.794259002336776 14.602094112058985 14.200865725890946
S 14.854987350025993 14.332073745618626 13.818856602167662
S 10.047447978222964 7.3203917404899075 14.643951570495132
S 9.315060353290018 8.878604029691687 7.7254178203483646
S 16.21923725772248 13.084789257615 14.305831090615547
S 13.45000510268959 8.105705739843845 8.713464255750088
S 14.751857386233569 10.495049591810327 10.793672481327446
