40
Energy = -155.8567428 eV
S 11.702912219300938 5.84008255034121 5.695213041458974
S 11.224515151929952 11.220113627077152 3.936005132854633
S 9.142379709801794 11.021538808128419 4.175552319220961
S 5.467681036584814 6.331156259505164 8.209079070403085
S 9.892656459288458 6.460199003881297 5.773472791229153
S 12.617235048209075 9.977398391256685 6.651707526545686
S 8.838723173918002 10.338281036607553 6.1092089371722516
S 12.409646689783392 5.547666377674896 7.848133121476632
S 11.873351557423828 12.820063316869113 4.919061383521736
S 8.288975570505336 11.892669406022362 7.264490161350383
S 6.024926890739157 11.901220238940812 7.431428684954681
S 9.994386529710626 15.802762746216017 9.692838775708395
S 10.513826398585849 15.100213269725273 7.807161136285109
S 10.737505775801738 5.8716969605082525 8.86603158096314
S 12.706826562255438 11.874460662952474 6.843039545806096
S 6.628976344680032 6.215988300619998 9.731516844819886
S 5.786353607361551 13.048066090235826 8.950176484496215
S 10.488054955834462 7.944015278714925 9.125825717470441
S 7.022999736355655 9.509462362367296 9.548092899152676
S 11.908880851514585 16.134939340831536 8.95478192906675
S 5.777867523156916 9.686227185945233 7.95011932877195
S 8.64458028101464 13.808995584081746 11.836133031086291
S 5.686779052439242 7.114973922222996 11.70203916548286
S 10.59032126243649 13.177059973039455 12.412786929085655
S 14.234321764968536 7.445523084861085 11.495733432851615
S 12.907314439630149 9.146092216166084 11.161991551788978
S 13.20143125954254 6.085813850501785 12.50719051894994
S 5.973977519168514 9.38066523785846 11.260639360862074
S 7.404768561871416 12.643790341848243 13.119350883988067
S 15.093337472053753 12.441282239199305 12.662782073635542
S 10.940256195374833 13.823499740317866 14.2288468829027
S 11.035121596402291 8.407636664922752 11.076240793971781
S 15.82863380206011 9.402576847437155 13.753319930254257
S 14.740493513062107 10.994450431852968 13.890230222686148
S 6.903425655897617 6.557188690516443 13.074174824713234
S 13.176526872951078 6.743186206158827 14.618269380301422
S 7.647585805228002 13.268488318070558 14.965090899571933
S 9.713247016842898 11.959927343693234 15.339879688926619
S 9.61105326915993 10.71143031940723 13.9146722087237
S 11.478840060533194 6.2098949668010865 15.358389000866747
