40
Energy = -160.58719385 eV
S 6.542041925785621 10.470485914904527 5.512972852389692
S 6.60975106033986 8.86837645000087 6.532469509428366
S 10.516773934607338 10.546663094135205 5.295619320176777
S 12.372098613188033 9.96266280899512 5.753313314713672
S 14.955213601034622 6.352178035525486 7.5323585493515175
S 9.376854290635068 10.69453918798264 7.126646021858565
S 12.826272246373582 14.32594595860909 7.793338151218552
S 5.162148484036245 9.524197494836645 8.47514627339695
S 6.412960609754369 12.645014033456288 8.683871449389109
S 4.776824140807553 11.323447271255036 7.888451309622368
S 13.799744183518197 12.576698885493522 7.904981435798193
S 13.872755759104287 11.691666044821337 5.834595801969252
S 11.918997466867166 7.972442087799365 9.560330743403334
S 10.784180206785306 14.055239851197683 8.164343569938481
S 12.89631054894752 9.723524523667905 10.075794888393855
S 6.775986449035319 12.054349988373739 10.526911571502445
S 16.121409519021746 7.058249942644382 8.892199223304369
S 15.507486773424253 10.67364214846668 5.817651329881871
S 8.726277436129017 8.913200201865934 7.632606132044797
S 5.776651052856623 13.39748974865201 11.981026893331407
S 8.509024045236787 8.435627358150265 11.694597978189126
S 11.58055056471114 6.934507725047934 11.329416886325978
S 10.531006646054465 13.79271993183615 10.191315944552427
S 7.90326463491706 8.703102494773436 13.64761638426976
S 13.25209618226955 13.118223615125268 13.948177179039366
S 10.148357174989089 11.79355949657527 10.58078437626622
S 15.668274383409036 6.746187366788843 10.738273372062201
S 9.532873274285182 6.663087034673902 11.378503411440875
S 11.788830079764928 10.83304590074093 11.40531660798573
S 6.917026359872712 13.075419378508723 13.564395933582226
S 14.676938852361772 11.695499864457526 14.465549883607412
S 14.194730039205757 9.76175007437753 13.976313566382155
S 12.421216295598688 13.849613743086588 15.70036302713611
S 8.653352973684655 14.411067314540114 13.382880884376297
S 9.226771287746372 9.990752320943386 14.594558019529664
S 9.198600945476462 14.66261979459805 15.313996453474406
S 10.163124079628854 8.912538130504469 16.08255266454794
S 11.76157075621766 7.836568532586318 15.309161628926883
S 10.502865778944889 13.142548998657011 15.943321633084294
S 13.561262279937885 8.734022187909057 15.690750760671763
