41
Energy = -162.21620891 eV
S 7.530816230468318 9.18785898414763 4.026572312662487
S 7.766171884315126 14.703667841086956 6.595902771522216
S 12.0660858866331 12.52007484793853 7.079046028327509
S 8.206754375796296 10.476185241246592 5.292735564358454
S 11.182322839539248 7.2520189292309825 4.666841156282697
S 13.084469168091827 7.5456410951085235 4.7076491302901005
S 6.4881780812511 11.771508466637659 5.758274631189819
S 7.732858072058639 5.827722039497874 8.849950826531208
S 9.566869804210826 14.997729706196624 7.522778846743758
S 11.423900570677624 9.33525251367315 8.144042265438957
S 13.126839395455441 11.016473426628211 7.619282131941178
S 9.344749707550548 16.650070168972086 8.774892553233911
S 9.917413773222876 6.117460127452779 8.58158907182118
S 6.920134037649324 7.447764625077856 8.097201743547762
S 13.969395855470053 7.636414274590149 6.423108229334545
S 6.9000668247717005 12.9072974900748 7.359880525351695
S 9.85240639395922 10.469485594202204 8.276420588377212
S 13.883828449337129 11.667605018337813 9.585860840580642
S 14.815090985018413 10.034959368638724 10.385978759506282
S 15.802826381500715 7.28900617541696 13.290938120240906
S 10.94611209442532 16.13099695581009 11.618672738349307
S 10.811252915112727 4.64475930266341 9.440515231464511
S 13.506819002046734 9.096479128484686 11.588806809082715
S 9.046711223804289 16.18573089674434 10.754656099888528
S 6.616374196348285 8.841475258931727 9.905598380777734
S 7.663999496788214 8.11384345747635 11.366915004060278
S 11.287841703646576 14.167999532182433 12.09513977428943
S 15.487193240291914 8.74053809477931 14.486030294287493
S 9.467666178631635 10.838300032456724 10.448106109709798
S 13.810710162716557 10.28977031702783 13.5005078294336
S 9.716027696018386 9.103265829305554 11.32610875293143
S 7.64080497945405 12.926716315458593 13.963602829611073
S 7.458089662305154 11.590718320464541 15.544028634617863
S 10.754752507616914 6.900887167671978 16.804401209798915
S 10.488398905241663 6.727231771018412 14.917420675150648
S 10.912632069798136 13.979150913992106 14.138400331452994
S 8.36240739121882 9.846629885447305 14.982535526695035
S 14.803191984406194 11.875277033836742 13.074537625249885
S 10.628293311004176 9.120583896493171 17.312126954518263
S 8.943787052417127 14.430998249820682 14.516989237071229
S 10.406888672599047 9.935584868647794 15.517087017145908
