41
Energy = -159.65117581 eV
S 4.751382986924772 6.362003888406319 2.1618412491135564
S 5.297977849204967 9.58976437230079 2.2682371638213477
S 9.452475805699367 6.541555900557222 1.999227755549202
S 3.44864434087244 9.893670663116396 3.385618385989049
S 8.584986589257822 3.5726517018756274 3.248661821479387
S 5.219520605376619 4.76622045327027 3.2458547747547977
S 6.145675766465392 7.887384387459585 2.8688924988627527
S 9.862576649628416 5.260873366013044 3.383663912949908
S 8.817981680986396 9.525271343110331 4.24120609699517
S 4.331378326236644 11.612865819704847 6.152575260621387
S 12.144391516185545 6.127178107301993 5.552886436282119
S 5.900170662946016 5.445818622863246 6.52045547914247
S 9.058066334700326 11.364104131810569 3.3126150720371283
S 0.7748361083396321 6.15339764653956 6.845246519810914
S 5.959324399544427 2.506175214972111 6.68432859860139
S 8.942676180940166 2.3674196018591314 4.713591083834463
S 3.7013874506529154 9.67348971901818 5.33349191743086
S 4.373384108184456 2.5651973780970727 5.557138940197069
S 6.593372140923962 10.281729672172284 8.23408280357958
S 11.732847631519688 9.865170213872561 6.603992764221823
S 4.42553163140659 5.100922351273796 5.354393811385715
S 8.118791504786428 11.24721896086977 5.17186341361202
S 10.324238446308586 3.9877072506843967 7.283206497919979
S 10.67023494761852 9.301655599991298 8.110040248180999
S 12.246181718544916 4.460084393334664 6.53050498677343
S 11.120530748154877 7.214566020763295 8.502074323829248
S 1.2418011478263502 6.440167628778163 8.696045708507809
S 5.507283072525317 1.9924442950016503 8.733307875387029
S 4.598534766152382 11.133523856385672 8.058726797385374
S 10.632306639937289 7.019209940324737 10.491618067179946
S 4.904513615965109 3.5369668142658135 9.959327522476343
S 2.999871930482733 7.705697010243561 8.625829442451842
S 3.5089802686014333 8.165028383239195 10.543672438692079
S 6.70198984498828 6.705926215525631 10.574995187262859
S 7.337380137319971 11.075632148133447 9.935675537536477
S 9.008322537527597 5.852914621677915 10.685222829092666
S 10.396968116864688 2.47028177375414 8.46274692653752
S 4.596457403229383 6.639427495161876 11.361647070391246
S 6.391839451927316 4.17584552560184 11.12085380442503
S 6.5137338694536355 10.009852599314069 11.56715971830726
S 7.53659532394102 8.27812916950524 11.79262351554239
