41
Energy = -162.17284123 eV
S 9.098112328441196 13.061246490032657 6.147128995916768
S 9.752311393226353 9.826735711215365 3.8258432845297774
S 12.291743651204262 13.933837960677142 5.014499095416517
S 10.56659476098981 14.772714407410863 6.592534075195152
S 10.532545631961224 7.054284190516555 5.495890339899129
S 11.27491254920207 8.8892366359135 4.5422787914446445
S 7.860816909907906 13.077140709113637 7.697310760576769
S 13.687355398507156 13.715093202128665 6.366044750922895
S 6.450938765795274 7.475831703679632 7.102516194337432
S 13.997242199825003 11.636095086578285 6.826428559271259
S 12.188149853389044 6.204501746837324 6.20814632500536
S 8.916322822350791 9.503941074956026 8.435191918426485
S 11.460624050332788 14.529761359764908 8.258877265724024
S 6.363998437492565 14.633726700647633 7.310213374395572
S 5.750903080674051 6.240199412550811 8.419085988386433
S 13.797303295266438 6.129499826965109 9.122461768937914
S 14.237428966414237 13.220990161157605 11.034053283344708
S 7.232013438610278 4.795902333576269 8.852752426983038
S 13.171809831682973 11.143022401340106 8.6226916612669
S 8.401212529268744 7.905759401854971 9.607234988067827
S 9.7231084439043 10.848429414821299 9.950640247569076
S 12.351910121153237 7.044801685403787 8.236107521790126
S 13.428217086748342 6.723559257104262 13.391158445515567
S 9.85583352726002 7.955131408274613 11.084467916745718
S 5.446305171838199 14.92016079592488 8.982416821010279
S 5.3422570453208165 10.891247133534922 12.092594100123678
S 14.577209110939672 11.394058643241397 10.136099783945053
S 12.665795915528758 12.957425612058454 12.36490949519325
S 4.638291807072209 8.974870143671032 12.273502599945594
S 9.210117567689046 9.887377869296479 11.64166646023944
S 6.692494532014029 3.643021188516869 10.29595845078568
S 12.40853347828986 8.599117966088881 13.01454713461431
S 12.557073368974573 5.73353510920203 14.800361702416318
S 6.201990002509922 7.796282970633878 12.882720389750986
S 5.496033097199231 11.519163120103801 14.129701782438064
S 13.347739423939556 12.788464947918706 14.302403148261774
S 14.038861200772388 10.885682621246971 14.720065540686452
S 12.391497388808068 9.616779435200728 14.781991668310617
S 7.4148638216937215 11.551095007811586 14.606260825736637
S 8.013666440455154 9.449664144522002 15.123868615991045
S 6.405622731405398 8.310372186563695 14.94713467894038
