41
Energy = -162.49705391 eV
S 7.538958409933155 8.616469620784269 5.415793638506424
S 12.706979719890004 7.110610630583843 5.0558715435145825
S 9.874019729517412 14.789565287068768 6.020499834191126
S 13.012863748721164 11.381252432393872 6.965826582206747
S 8.83929271894423 13.062420388559644 5.3948628402878525
S 5.854064483809181 7.785913364195557 5.856873306374836
S 13.987642711013196 11.322472061714524 8.629111886670778
S 10.875577085682243 6.8470654464635246 5.815945764956894
S 10.984544938879546 8.027642223326579 7.554615964304947
S 10.915714406389199 14.422924207517827 7.7024097364151105
S 6.874783444588323 13.400707659611832 5.838108229834101
S 8.231497360985536 12.526704289965778 10.163565490385334
S 12.963701447503865 14.006502005834578 6.959760774932121
S 8.224708982716361 4.562608767190172 8.375626504617827
S 4.595022599928438 8.786758120144135 6.9267942431514955
S 12.467387470719046 6.7148509935556016 8.26954683203504
S 6.676960229528146 5.647776100836906 8.752818247506195
S 13.922703653849902 7.023129633319724 6.934093470145541
S 8.764120732026278 11.00127633914622 9.139291411052305
S 12.479629561322433 11.157019731124494 10.217108215834807
S 6.217133114185498 12.319492204757925 7.531992691687833
S 10.276631202380624 6.665147110588516 11.961152718485371
S 6.4078174750214645 13.434752479513117 9.170206367038192
S 11.124510584544366 5.0568520597744575 12.89137744771655
S 9.910550162419016 8.121299466830047 13.396748021375878
S 14.115001060106582 14.210829806169928 8.475904238792213
S 5.674428064071963 8.170856834058965 10.61484633358558
S 7.328915116058153 7.521914941399029 9.632724854350636
S 11.086378930017974 13.801882695453655 12.727017333583053
S 6.787850281084892 12.449209058975757 14.845266709938718
S 13.254161892271828 9.864747261617488 11.557662494774405
S 8.555998302758653 12.177670334944404 14.122943553133654
S 13.18603026120943 5.600289679163917 13.160674607422964
S 8.253664513047957 7.5499692715933 14.500864472931939
S 14.367651610248577 10.905505445631059 12.989037268902308
S 6.560971761289408 8.524023670001196 13.839695828965436
S 5.544748860786597 7.308939693857441 12.506752687052753
S 9.424406733522884 14.150744947208043 13.830197122362673
S 12.724068159077419 13.621098113607697 14.01277176643482
S 13.550852892824285 5.925050240213693 15.035077621707607
S 13.059982393717354 11.627982187896087 14.410488149426174
