41
Energy = -163.33704846 eV
S 12.255087550141674 10.390390494890129 4.945544757509435
S 11.138309504611614 11.143750367757892 6.459198395637889
S 10.736218442414547 5.21558507527504 7.334025887055253
S 9.633068321201948 14.721756561603208 6.396936151676684
S 13.305393345816311 8.704611454227868 5.764700468870103
S 7.717586288981005 14.212321760253198 5.846540930026778
S 8.885796822326697 6.0143746348556935 7.491260827608379
S 14.111300648083967 9.260821713371799 7.493205849474485
S 10.431783513199404 3.174900832920749 6.644074188856726
S 8.024258999836988 5.530077501757315 9.328163275832493
S 7.868176520199206 10.874352156049364 5.631792931416758
S 7.1003178180132505 12.45004607907524 6.7354043510201445
S 9.382697400842419 10.052582930290825 6.754757380759153
S 9.543994374144185 15.869310495031456 8.147744513893791
S 12.266774952428255 14.947500662883135 9.6973457603409
S 8.955889094284615 6.723158961577486 10.734463278899044
S 6.82874090133856 14.751147307836987 10.35661185209812
S 12.43047438884862 8.56875585421174 8.930174237318427
S 13.83472426362333 6.820792451714018 9.512312464404916
S 12.160428041599737 2.31921619309154 6.661398813865922
S 12.522740061651017 16.079132024222144 12.140016106113784
S 6.063949809569059 14.69485269476956 12.138686701080186
S 4.91468437690676 10.655984209420314 10.413782897102164
S 11.769849148729918 4.810235125135711 11.154320206139591
S 13.26290571921343 6.317016650168238 11.344649398016456
S 10.057635588242766 14.723467934787779 9.73057542868592
S 6.350543024443437 9.469318567783615 10.912437115212951
S 10.041434838525761 5.4829741289117155 11.997518053020814
S 8.959113398210885 10.040525001531243 14.348262826576635
S 12.129355336729848 9.633945480636381 10.484948150050801
S 13.318122086506612 14.45729203506258 12.79392577340555
S 13.084859402588666 13.312660605848825 10.273117202289779
S 5.962006930266785 12.701424214202598 12.919752859915203
S 4.303672694195929 11.897389881960638 12.066135790104186
S 11.7922758703841 13.16215039845312 13.703300528804046
S 13.829968790106227 11.223208789632983 15.468704723655447
S 12.952406506485765 9.590464005782758 16.307888275567837
S 7.0904288347067475 9.727629075420039 14.71776877866613
S 11.938613715129964 8.489212280047388 14.80740790142646
S 10.000349676882667 8.398768840777597 15.33681632104438
S 12.533832616605554 12.876664184787964 15.564098264574033
