41
Energy = -57.92893632 eV
S 8.006901013039512 8.122981272442782 2.0020629125658362
S 7.710553267013321 5.181341054167925 2.2460206180225106
S 5.3587387383834395 5.263700981856253 2.4782660335522335
S 3.2928252531254616 7.95985280983642 2.9655892170912552
S 6.283644490280971 8.408175326163356 2.586424376195261
S 10.615819077611892 5.749822263315286 3.49656741261307
S 7.410541932926963 3.1840863032413176 3.239261152618955
S 2.3910164247640524 4.847637851609185 4.173122372726605
S 7.024427170404421 10.218686700852642 4.25611860426981
S 10.099000338105238 8.995657546173804 5.158667206875194
S 8.623713511093014 7.240733484583219 4.44355273965502
S 6.900544867075452 4.290562609118178 3.829728812407935
S 4.292967172520839 9.690702674116514 4.470975674770478
S 3.693032097417033 6.098745813189086 3.5941282798184613
S 9.565071868964477 3.6741887115730454 5.0895714846005715
S 4.477743529508085 2.90344170878198 5.054337778497345
S 2.069230952301493 7.5688993298109875 5.90727178311429
S 6.734157017247935 9.308625804106743 4.7662534155273715
S 10.876947586619664 6.432458289315531 7.058731160397855
S 7.688673335566841 2.5564632389183477 6.568225793302287
S 6.191165375588027 10.546233082033034 6.3226166336868905
S 9.214604460956764 9.357334763416729 6.7949896085115835
S 2.737394625902899 4.817029879723247 7.342549555404616
S 3.5375333886524243 7.491099144718321 7.583546406690022
S 4.583771286118114 2.2095517591012745 6.761428979162001
S 5.528045491493282 4.028477055963092 8.562515230308406
S 9.231248744954742 5.456549900607697 7.415167233731072
S 9.705608464631686 3.7732869274746927 7.708292620418083
S 3.4335839179001773 9.576034830958905 7.039235188594522
S 2.1834046096514013 6.466407850508011 8.460380472064005
S 7.75691940205125 8.265340295930823 8.699592287022428
S 7.274884564033228 2.8266128335235554 8.89172978802632
S 8.021397415911396 10.084756648373112 8.564898442019318
S 4.671281513608876 9.256252386204093 9.257697006134206
S 5.1948041443934185 6.811394040857411 10.6606505591194
S 8.230635301714644 4.864312510303945 9.745410172642123
S 3.903149133650492 3.691426680858844 8.512647768820393
S 10.19730923089035 7.126712427555329 8.249252144703036
S 7.239086217231612 7.629372948683267 10.82860281958276
S 3.689089963098541 5.973213945257855 10.596147472837353
S 6.582795417581317 4.275098628758211 10.841035095882622
