42
Energy = -161.28403594 eV
S 10.171236327093398 13.263021252535914 5.797238327313193
S 13.690951528257804 8.909865293910876 6.024369771867817
S 10.183501769220184 11.672569286855573 6.931685519506972
S 7.8380748915681115 9.254799480603413 6.659044418570385
S 9.086427198871258 7.591957850831681 6.718475952175661
S 8.270541225257272 14.537510139404269 7.0243459077576365
S 6.0512427760645 11.476842997194067 7.990520442919234
S 12.563170141395876 7.673533102781307 7.041062598095905
S 14.10020818733422 10.815943147898102 8.009090174683134
S 13.202590227831774 14.147123480615319 7.77761449225014
S 10.744644758118353 12.046882166800328 9.076842981078102
S 11.475305829598847 10.062467531711246 8.875497507941999
S 7.649290155039803 12.944665822616225 8.349314961214674
S 14.781079033291881 12.647053206938256 8.314601313544859
S 13.575788724742917 15.729018782765621 8.863707842324047
S 8.027665703747022 8.774694004950538 8.599198844693785
S 9.349011150621262 15.63220411327278 8.173143834677719
S 13.841302092143872 6.775185714216164 8.551970985641919
S 7.104157197307573 6.457687052221446 9.27089638377757
S 6.334970690454882 10.253603415285422 9.4859783591743
S 14.119672458628877 9.431120411410948 11.299411076751223
S 11.70746088628396 8.957702277675963 10.452346943833295
S 8.004875276095532 14.4972149976931 11.77928580863233
S 13.027999162755012 15.527890746335963 10.974505224519676
S 8.426151669088073 5.520989291804318 10.304288395267065
S 12.59462497094746 5.767595944617564 9.648040571365382
S 7.5716469870285215 12.367474062179918 12.282016359019371
S 10.294070396455636 9.960801865708554 13.199493740013532
S 9.689421917577716 15.272619583905714 12.533934088948861
S 11.474002004073727 11.587053138484492 12.68824334862704
S 6.819155052869028 8.741498931111401 12.459437503382919
S 11.426718048119875 14.45862710086529 11.561440938161766
S 11.877619741522258 6.469386121481789 14.155520460545269
S 14.196199620194003 9.743000407685889 13.227364197391553
S 7.972211798186294 5.6412138774538265 12.471275536596243
S 7.418316112535964 11.963944856802788 14.186488308551656
S 13.155465297900617 11.567266552258321 13.883064935824551
S 13.095587795947246 5.936760533408601 12.72192662680185
S 9.291638901852684 10.565879072766203 15.057406724101995
S 6.325519023893797 6.838564813739806 12.598583644212452
S 8.334180601991894 8.997989841868744 15.689375951940987
S 10.732386453945121 5.114861513186031 14.888032782155715
