42
Energy = -122.51881359 eV
S 6.08155526583424 8.25832631106049 1.924450506701285
S 8.767660921568183 6.914056838955106 2.3354967538939047
S 6.130615409234385 5.706544363533534 2.8062168451928833
S 8.544851852748339 9.618754940314087 3.451205650844258
S 4.304098688152643 7.853460788865488 4.0067419750752675
S 10.212796670231278 5.424236234044347 3.8778347710647108
S 5.753643158265419 10.21341986595996 4.147132877994013
S 7.1181400134171 7.9812838552160486 4.729688341544061
S 8.188601269192365 5.520549347253172 4.745904622120584
S 9.950380183673516 8.005454571120378 5.046376913421415
S 4.00240944802147 5.06762220308921 4.094455177753121
S 6.299751121359779 3.575961540976605 4.360783341820561
S 6.0605618753930885 6.069995992749753 4.72378230748876
S 8.77577223680881 3.385416598100077 4.955709679007992
S 3.2003035558160935 6.858317498361355 5.850353007001489
S 3.5460392861514065 9.4567416093769 5.938738587961941
S 8.478919556115182 9.930152604718755 5.970438316162628
S 5.711999924235577 8.401345062628918 6.4365655692768176
S 6.102818778100083 10.951775909278807 6.179241947556729
S 7.731591115091113 7.239717006752633 6.974594666170952
S 10.153097891168176 5.971944561209883 6.50703392510939
S 6.6995819445771305 2.5048040358838173 6.927948105386021
S 3.0242938542468787 5.342562532813904 8.090994039355948
S 9.382658482418599 3.548799453633271 7.7624275891989445
S 4.531065215228183 3.8662431099377477 6.489618322454759
S 5.093058660080219 6.334453303766536 8.329603583235563
S 7.2913420036460925 4.887824768858867 6.994077194648863
S 5.24922681571296 3.7687767718318685 8.719386522270792
S 7.95925997163569 9.820225892740842 8.003384587144387
S 4.744568713793504 10.154473414386972 8.584814212944975
S 9.890859706778398 8.304728560121672 7.41551579844647
S 4.295653045724921 6.342960550044414 10.096708458812552
S 7.913247937879308 3.3975975380138617 9.423127460536724
S 3.2968481444024964 8.064850601884487 8.354964192267733
S 9.8562105498185 5.9546645453917115 8.592088611050706
S 6.75234476216036 9.748964203311411 10.404253614668942
S 7.199405848360573 5.910924978422397 8.983473819059196
S 5.955356619369778 8.316685938050105 8.929489136521637
S 5.911434947942693 4.5316076464366715 11.290665577477982
S 8.942064264556413 8.102367259412816 9.605255969861734
S 8.844869528805656 5.7407851074712175 10.8853437421324
S 6.568362413972294 7.467943735708967 11.571435331050003
