42
Energy = -167.18007311 eV
S 7.848529420727546 10.173571165012449 5.357721673462115
S 11.073681681833195 9.10194046084972 4.506830729266975
S 9.470149559564787 8.434506772375457 5.337715202155436
S 8.749046667242958 7.451796906270153 11.21841840403055
S 10.599167828899196 12.216727537570277 6.064077202618842
S 11.990854171702198 10.085782463498036 6.690579242145997
S 9.041265689692505 11.534943040911035 6.951404035450864
S 6.316166854921216 9.452513425664156 6.250747875904658
S 6.897964804046311 6.952239100041436 10.791721460630965
S 14.78398076218419 7.273937219494903 11.15289055327527
S 10.666453288339632 9.353080778450884 7.827789400980771
S 7.21305738127422 14.02360055551615 9.349753700668487
S 13.884477984529052 14.66179556689417 7.719950975108577
S 12.814454241470903 6.986143203482004 11.441724153794132
S 10.462901803388407 15.161853003541903 11.867160745328981
S 7.023707284151292 10.304364533668219 10.593828319352095
S 5.41556998395264 13.76224199253584 8.702560635003401
S 14.972196412098656 9.443698443431478 11.622368263727074
S 16.192005816883036 12.47263703965139 8.206936056880512
S 16.001625997434054 14.179943100078361 7.382595763269518
S 8.63583016237774 14.266979376557495 12.286020518155706
S 16.640010159657074 10.099699451550126 10.960165335675592
S 7.149869760132168 15.143920643938658 11.211668751931812
S 10.686672689761597 16.84494261214181 13.04424738904753
S 8.645249140874864 9.72904092335375 11.416877895426992
S 5.856073078483176 6.94586299331792 12.726174301322509
S 13.230701082347082 13.728152412904846 15.257237837548034
S 12.50781789928819 6.021532531294712 13.309298945400764
S 13.236956329670996 13.141503254975436 8.671695853106419
S 4.528799716923328 8.388386953346098 12.589012988696354
S 15.738880921214518 13.246566613947087 13.075545869114087
S 13.68062711719151 12.960680227896182 13.414560895315248
S 15.501411263957422 9.24410780258278 14.059074127180732
S 5.747691015182486 10.265463102387276 13.010928626666265
S 11.057805503431114 16.264574906627967 14.989979646829694
S 17.17851106685827 10.239500602506109 13.977125099027413
S 13.056200586231002 15.796693430622847 15.212400858488877
S 12.627681609805615 7.3395394854350995 14.825582526231388
S 16.792914391389807 12.2976599595966 14.519195776887354
S 7.3472336038856865 9.749759145374933 13.912428627374181
S 10.798352338534784 9.733172066723265 16.188332253615084
S 10.634209563869323 8.221701829384424 15.002428119306563
