42
Energy = -166.78220311 eV
S 5.108714266922417 5.149893548892573 2.029714657180542
S 6.640200103524014 8.7592130971683 1.024299192375154
S 4.635280415059435 8.632538718296704 1.0328459254052584
S 6.871040761250565 5.183164068587326 2.927973660242095
S 8.299100692810464 5.525029522359012 1.3083395063384355
S 10.864864572932262 7.685140359491647 1.9307403156383212
S 7.203023703996709 9.977369526847813 2.661278849398455
S 2.201125787158637 6.696965963159051 2.3302462909949906
S 2.09896302678976 3.05730571419221 4.3869387838428064
S 4.0668695524483125 7.0685642944675475 2.6165473945539572
S 4.1375856131538775 10.451780126279814 5.756618739421571
S 9.829067790478298 4.4616410707603045 1.9638469683143867
S 3.907879225771382 2.3900039057189533 4.337483835968781
S 7.51447995134544 8.784325791479336 4.269119910214622
S 8.812371343500063 3.3028193564637314 6.350249377033175
S 9.648317040833115 8.555161739894928 4.515020655867032
S 8.372609464363267 1.6301024079860296 5.523622063864622
S 4.048379119575862 8.564327258022312 6.34547329252568
S 5.99415730660465 5.1651746604290105 7.739042831211261
S 11.221276377714075 6.067477782228164 2.8902371614943836
S 4.231758707118615 11.76111840000578 7.500269102733542
S 10.564638276220382 2.905188566768046 7.663712199440934
S 4.265266603949827 2.407688147246147 7.876173650206909
S 6.150772840417314 1.790452749279923 8.105378607966685
S 2.692120686671734 5.921099877412456 7.265078897100385
S 1.3300788166460593 3.471518571458557 6.113128469645417
S 5.1313025619196955 10.777175410486715 9.021277352773453
S 7.220519191309376 3.8107676713018086 8.304495676315137
S 10.119001953807633 6.739187095472708 5.059215261687187
S 8.440000219187677 8.2370380991158 8.73198222925537
S 2.1214484630766384 8.364890677394039 9.545693054324438
S 3.284268602475677 6.884408097240644 9.87133235497115
S 2.0170886845591394 7.69133620910838 6.8927173607223375
S 8.591053530385006 10.2042163028984 8.436039859471109
S 11.157842551776573 4.691731735034237 8.419849654349735
S 3.716559480621287 3.8434367197087522 11.035253727400397
S 3.2959583993168784 2.2670516566676513 9.750033599594932
S 10.70834823639459 4.841693351926914 10.447071579556026
S 7.079552398890096 11.327291933898273 9.436066866385776
S 8.900959711802095 5.819329878756799 10.816914758481401
S 9.17744658106461 7.820111350467842 10.740253857253935
S 2.2800956082960284 5.266656807765282 10.979810690618123
