42
Energy = -114.33992653 eV
S 13.974767037596218 6.654438439650114 12.608728336695487
S 12.58699684000095 6.878157768967346 14.358043427868223
S 15.250428947258493 8.55860074405241 12.219751286496873
S 14.353189766228908 9.968569778009256 13.763308132365607
S 12.619667957610366 9.18621605965449 14.77466856660078
S 10.423126763725497 6.23010199164559 13.829646965030014
S 11.714357179248035 6.697652705919438 11.918541989156505
S 12.633668621912433 8.872680597131389 12.452987169137366
S 10.470442818625571 9.814715418362551 15.15529426805866
S 10.342202651015354 8.506079811561648 13.429384811558473
S 13.801371274730801 9.240608971717654 10.54270164396086
S 13.211071659183828 11.585405111001114 12.92506531557191
S 11.279857867637217 11.408144729431706 14.03031298057289
S 13.206448367468369 7.818114285642834 9.147327079010543
S 12.881508405127333 11.06227863276579 10.478587815437287
S 11.186508066921535 7.734839518440691 10.32778218086406
S 13.422052450216448 13.334912262515687 11.55220370621365
S 10.128226246872067 9.159372272199604 11.48376191247246
S 9.837219086532809 12.715043861335424 12.983538420560286
S 13.58545013715747 12.756966507088968 9.290606235384116
S 10.745853349174656 10.67222327028346 9.19931878494686
S 7.325412476191933 12.218269808999048 6.105942705164794
S 5.820727310738142 12.331475594759993 7.819958043042675
S 9.048607899406457 13.749782074963068 6.397320667820053
S 8.489943961253 14.64329973500752 8.519970267367507
S 6.942964887542848 13.465956427953126 9.468312293424963
S 5.3336454185781745 10.122804401205581 8.430998555954128
S 7.426132411421495 10.345340475256224 7.496922809708956
S 8.493856516616066 12.186050205662411 8.3037391446475
S 6.668323692350704 12.537209598193014 11.526918885339317
S 6.803541453847124 10.888829799455864 10.052893671970908
S 10.396686512371582 12.198115530237443 7.092550047073683
S 9.821363515685071 13.801465794656941 9.983963771358203
S 8.758280347729015 12.30940779591109 11.21919594882554
S 10.46541327250192 10.006495524891585 6.620070111254969
S 11.505138377426832 12.749149098874897 8.988490070306883
S 8.923105678603529 9.220281453627864 8.258127974898892
S 11.349098897433969 13.68793939409809 11.506176493415069
S 8.766839509194044 10.307016819767728 10.316114676061883
S 11.150532732352692 10.92170967769703 11.67954662397146
S 11.739420984035428 8.942233734107857 8.076084012502944
S 9.936954974455565 7.332450641277236 8.485548521906876
