42
Energy = -166.64638616 eV
S 13.67916406352208 11.082070947430429 5.910583897769938
S 12.043351622377715 10.582977519974579 4.466787145423462
S 8.195132969461744 12.781220487498961 5.448730348040296
S 9.979131891099854 13.317917391875959 6.125358569036231
S 7.9025639806308 10.630988506155868 5.953647940051509
S 10.939656573051968 9.173238630531428 5.301941234679159
S 9.588340677855124 10.021822477854393 6.792018777254615
S 13.47253619020969 9.817288122825493 7.429048108270902
S 14.468500145842087 7.992840588991139 7.013373481108951
S 10.863406316206412 17.821519072276637 8.346368571573922
S 16.37190624093153 8.105445827128076 7.736481594247002
S 13.406597908463796 15.693823795315755 8.228095362197518
S 9.837211027913638 14.104082922139176 8.077492468220907
S 5.81858749604518 14.20354326300648 14.064338651490875
S 10.995606426317899 4.274053635886933 11.647698531952752
S 9.319708927256514 11.325843018850334 9.916092477074018
S 8.095851004244896 5.8143136024514135 9.739923121187216
S 12.396350026307896 17.18842258866369 9.327112865152001
S 14.916785131899822 15.014840498926658 9.20567495840028
S 6.353082156197024 15.252231264822575 12.319614480307116
S 16.26909711305261 7.438542358533412 9.732149408254223
S 16.756852824694185 8.90712228127389 11.022484422848382
S 11.132391127432623 5.592698224278525 13.03447665381352
S 10.27016209965299 6.362676284749342 9.928427239480742
S 9.659064185892335 14.942560332471961 12.479274210745105
S 7.829922319373552 5.052511859711103 7.994224982022198
S 13.274935903974171 6.188488196570853 13.213277040315992
S 5.989857152878566 12.194548610198721 13.704386567592884
S 10.646906428127574 12.6372012946222 9.371350300243424
S 15.066134142345911 10.156798453285644 11.435657354463764
S 6.8231588838395245 7.382540617066647 16.001023576132887
S 10.361883750548358 7.604530447052576 11.400193803213364
S 7.095010419779657 7.496528003313286 13.84391264531511
S 7.947400755514215 11.536884779335038 13.78859491926494
S 13.385889105327987 9.060028115640364 11.546758125075808
S 8.003084561295653 16.32042631199374 12.77317872409219
S 13.25357932425617 8.171109897575821 13.498158659590715
S 8.336798587445935 8.451518955029643 16.796805559654473
S 5.644345653765267 6.4860550617100765 13.06798990618838
S 11.162865589261934 15.623994322461547 13.479741038106193
S 8.684408814502753 11.653694869433572 15.72628744778
S 7.65453356185216 10.432809641736254 17.00301791301728
