42
Energy = -163.06259565 eV
S 20.59816846070713 11.730676784429757 16.293490434480155
S 8.660851248073822 14.584370106348107 18.109376580887698
S 15.697474811614843 19.88703656525616 19.587303876244512
S 10.573851327222679 15.280571512179392 17.844053981903464
S 15.448532477575641 17.44694024614058 9.517083384683037
S 21.07337228133969 10.994599889076454 17.98266689627152
S 11.348841227822172 12.010761901043924 11.8969009889126
S 13.69673268702558 18.84389921830925 18.896436682372883
S 9.108239217582126 11.435377477351523 17.139786595329085
S 17.62857589078121 13.680003901406826 21.309894696348955
S 8.15152792546346 13.399645251881427 16.576785637390685
S 13.224789008221773 12.358613606676048 11.794651656258145
S 13.660392761068229 20.055118003526893 8.877215178751168
S 12.97035125830499 19.079490117677317 10.363291766067082
S 17.066173831609603 12.895658855167488 11.083463385564269
S 15.421058962456499 18.894422203164773 8.278529388839154
S 9.449360871684586 17.128823369909668 11.573761706077564
S 11.031357525210689 16.124165269233647 12.09746893648728
S 14.764678468909995 14.056523317704194 19.65186452207577
S 8.6664756244369 14.265316543460411 13.15818403635838
S 10.138871958700294 11.702235484813109 18.73092042350012
S 18.84719949824176 15.146872447641732 21.64488502421193
S 7.7387603799752105 15.715699297966273 12.330601724797363
S 13.398199537661121 14.349970946904138 10.581656775771593
S 22.723632392784094 16.167941794240637 14.458026469693436
S 19.5651994301843 13.717977736030864 12.938815685658229
S 14.808038614650549 6.70259512685556 12.14436583135933
S 16.802831997933634 13.85710565440156 19.344490875631713
S 8.746951055617927 18.021541000427863 17.00610934623601
S 15.205512593923062 9.380313283056042 13.887592633465909
S 21.216522701387788 17.09913259222983 11.917933635086289
S 14.360576836490212 17.083345002949546 18.38614589245836
S 22.6696565777489 18.323033762154147 12.05784049404498
S 18.21476217305417 12.372110054710593 12.87358892138244
S 14.3286376907266 15.931199340678353 20.25154923698682
S 10.375738086454499 17.068268500595597 16.625951301725273
S 17.04847072017957 18.59114838419244 19.221260951283497
S 11.526906706655891 14.824979409008469 10.331786900052217
S 14.33236428175778 8.830855744484202 12.284108232545224
S 15.872074620679056 6.37477546188525 13.688797166836906
S 17.938817161508595 14.455438902913233 10.42431218547487
S 23.73575336684345 17.66459530031789 13.85185179151935
