42
Energy = -164.130091 eV
S 9.460134116538102 11.10195614077913 5.062189874215296
S 7.522746579590445 10.477173750265042 4.411335945735709
S 10.59749374254718 9.506118677251745 5.389477217272503
S 12.278290584885424 13.67442930628522 5.7745349729586115
S 14.4271481260554 11.356103279288268 7.319922990618237
S 9.222396988686071 14.732288055730779 6.80059380377748
S 11.030524321069995 15.188441617167403 6.308479800286752
S 6.44139973232473 8.30066457857811 6.72545586482968
S 8.435329026441382 7.3400835509733895 6.5713260409458405
S 13.00482573732206 12.522624185634616 7.822279023359888
S 6.512230733197563 10.272422029629267 6.170562904959411
S 10.233679271419094 8.979532002936187 7.580886810352485
S 13.772595710111515 14.520035891401097 8.427419886319763
S 8.302516115013844 5.676459768549963 7.512072296552152
S 9.540978977422126 10.493256709992734 8.531487629273297
S 14.41080616463556 5.839249591665878 10.320009926574285
S 12.09758509527946 15.485324932974033 8.607249182444356
S 7.527211907721236 13.592261862815844 9.516653514503126
S 6.7675706646159055 9.154930797363436 10.626905532936998
S 7.375399502701547 5.917980089869761 11.085462120918104
S 12.343223165981092 5.757110300984023 9.83091837716061
S 11.893169818156275 8.170817725437137 12.485137869404692
S 8.765731390773068 12.556453906978339 12.472313819538014
S 6.351740452412257 14.25512791567039 10.877793600288852
S 11.456818137828487 4.757555954123662 11.293536901818419
S 5.20973929676169 8.45913692812367 11.613724737319977
S 12.54383430975463 11.729550820927226 11.254930003114337
S 14.692307649125992 7.77131919185747 10.889209988555386
S 14.378832246405237 12.254180189565401 11.594887775813516
S 8.454950729246043 8.898301663132012 12.009595061019917
S 10.386111066351802 13.943963186739339 12.61801263416447
S 5.95845445709825 6.480937698662009 12.242344280682108
S 13.856665734474488 8.024971149145209 12.815676808374906
S 11.141818685149762 6.119322690023084 13.20621715663083
S 7.083871684319102 13.5152764205855 12.889195096501885
S 15.160251021594583 11.69401505983067 13.271144275064788
S 6.28900468676072 9.793080535891358 14.36685147211904
S 7.578451740334907 8.456935726288732 13.813000709881166
S 12.373409435963028 12.529508540961523 14.962154430960643
S 11.55851508661784 10.914921210885995 15.633868855439596
S 10.898697199620752 14.094371734899742 14.566825928153628
S 12.403816621332588 5.432082343776305 14.468632592799779
