42
Energy = -164.98575159 eV
S 6.813780959953596 9.083972303607299 5.195084629585877
S 9.252514103567647 6.540485453267584 7.232299201590671
S 9.779062478359322 8.297010596825904 6.310243158918623
S 12.78408658954718 14.284280152659614 7.40442956929245
S 4.8798273279697275 6.693164979463451 9.537080677460851
S 5.532525230189895 7.862571777586679 7.999191616904607
S 14.345391363775942 11.60127407436702 6.068453817181283
S 15.727726775689195 10.8266424329914 7.799928489951799
S 7.142245784000258 10.359562322740896 6.574688893613713
S 12.551944837017318 11.028032695356561 6.5024646749371415
S 11.411310643452335 12.850139743531008 7.275359473584719
S 13.785635384486408 7.008103224213211 7.073387143463633
S 9.236496256131085 9.846533225145006 7.445929008304811
S 10.786268336760898 6.231237475904614 8.811159088851527
S 14.556711467325663 10.164869964857296 9.194918533573576
S 13.320648666054506 14.552998660105432 9.409708641590333
S 7.7966994614139455 14.267511669573352 8.86923253501682
S 6.5107005908009725 5.959593957925841 10.538689850625856
S 5.773812263127128 9.896668298062798 8.79621098190536
S 15.030253864885463 13.44319409340082 9.887534922977371
S 10.582750820762396 11.753463756098881 11.40858642058873
S 14.476712114241955 11.75406169519701 10.793343158356196
S 6.444422345324107 14.444326688247997 10.204550322954546
S 10.197258720383417 4.657242912720564 9.741316383060932
S 15.485055917003642 8.59038594826007 13.156958224166281
S 12.3423558971191 8.608149493416448 12.023482919380541
S 4.159228120333009 10.932355226509559 8.743364509508462
S 8.650557068887872 10.962602248698841 10.831770632797125
S 8.884728928044733 16.488129292129482 10.746936729657547
S 12.642418969200087 5.5231183347336685 7.484739170863938
S 8.734596546756983 9.035840563138981 11.196912428204786
S 10.362138739344896 13.311553996463468 12.647594115811925
S 7.2130131463755935 16.00430157042995 11.519586079072713
S 7.670416910364695 5.663015218003193 13.551295894332434
S 6.320582073233723 6.657661886483214 12.60432337974372
S 13.685373267492764 7.853374225167895 13.206850622751663
S 12.521933532380666 8.427022897814023 15.609224191308472
S 6.856096373203251 10.681091000985845 13.473438717000032
S 10.110750764018906 12.616616007563426 14.647572222656791
S 11.121107637473436 9.525626973906125 14.887355516835022
S 7.568211539571003 8.928238023779368 13.245764830376302
S 11.763147206878187 11.594473961569456 15.159537644143395
