42
Energy = -167.16839631 eV
S 7.040351004777356 9.219338148156845 4.919636967539208
S 10.001305441272743 8.907586149821956 5.391933050125417
S 12.176656101320303 11.43111456349427 5.738995187049198
S 9.066596077622583 14.428050975265785 6.408270086446653
S 10.240531889472367 10.895501082859758 6.170940921275782
S 6.96293560474712 7.959411669171995 6.3580390705814365
S 11.511023308522432 6.7135208464421 9.181848936458376
S 7.306684355708603 15.463800071651022 6.261212018111559
S 5.864276237077163 14.603020006302538 7.26077952853664
S 9.435609012055492 7.672912813617536 6.787451154768583
S 12.665991339441897 4.884308090415686 9.861749536173262
S 8.238987969856039 12.29521758243105 9.271636164900794
S 13.460927181983562 11.458722878710809 7.345859001753844
S 8.621109002859873 15.93937842408635 9.478415696107042
S 9.512513480534782 14.491991158636901 8.60800251150859
S 6.280288801356421 9.085227863817519 8.137867696625847
S 6.559137963577202 13.375382159929812 10.350506255887423
S 10.556296442207481 7.354166702732647 10.78825237581144
S 8.707889938638154 6.307242521828748 11.079447552283161
S 14.612055226523045 9.693883039266124 7.298484288037634
S 13.06012858872561 12.644346016048937 11.100683406130573
S 12.337151790848909 4.6041327512284695 11.776606534215112
S 9.35194848589074 11.506408181208212 10.607031657983427
S 5.90210211386114 7.652446896292443 9.513043498367399
S 14.584275313270233 8.84723675528842 9.164049425070486
S 6.918008177888577 12.861791461462701 12.255452949548292
S 13.896983760132528 5.635417641158962 12.882677044148775
S 9.809345743478913 14.311454013767639 13.504902858769285
S 15.351772112031405 12.690369910266973 10.952748156302537
S 7.247629084542867 7.731211158174301 11.124750497762223
S 16.287608967520548 9.55454150863895 10.10154476085129
S 12.601710314189106 10.96476127620052 11.891615315933246
S 7.751855707197116 14.520102494588885 13.2128582289472
S 13.058759919177845 6.384789200252635 14.559485516375055
S 10.109554186667111 14.22234028861941 15.489857970212903
S 10.440211282501862 8.385285749022662 13.983779660188363
S 15.803651590351583 10.892155277419167 11.657482293419351
S 9.622430023688539 9.107524825942274 15.776621796038626
S 9.079842078862217 11.019015125630009 15.510273333057013
S 12.480976932920612 11.56167509827152 15.566282613969392
S 10.845903061678914 12.204235549616984 16.320328934646177
S 12.485981871532745 8.367979558773047 14.197593034594076
