42
Energy = -163.97100284 eV
S 13.043680902127916 11.397915433520176 6.534894126847126
S 11.312761193855676 6.182320247586687 5.066493480715297
S 8.483239400527511 12.524198486665233 6.839984916225723
S 9.225907513544886 6.697628449582766 5.51176982655533
S 14.614489523263483 10.455447305301163 5.913246304797343
S 7.437302010356931 10.750884687894844 5.897843856359732
S 13.48624118838347 13.394373821758649 7.226517023308396
S 7.530483997524791 14.110152930908448 6.2767150816949755
S 11.766783412303777 4.979218627075843 6.473202412714317
S 11.631967889027784 8.458654953010594 8.419884241157442
S 8.85393581347617 5.690697037616226 7.089006232630067
S 6.578190573331808 9.754124202031445 7.307502556813479
S 9.716459284919017 16.07093130898283 8.73565488546586
S 13.414104610617525 8.777781138534575 9.440226462112305
S 15.344589680755316 13.455925891134807 10.021047612164297
S 8.569915076706897 16.134926657957365 10.282062590687428
S 13.404990467607258 13.389112896185393 9.272836920208134
S 12.954378478826666 15.136517933428879 12.48176195917062
S 11.080663641451114 5.913741045503001 11.20873984613779
S 13.921242406832333 6.8944586596361965 10.15777645185616
S 15.98623255393691 11.623209691499396 10.713878917537805
S 6.3000883748231695 13.114864179777944 9.980232995940119
S 8.65662691930465 14.133487409127742 11.276774304691246
S 8.089428002938593 7.670412181650821 10.793659766515871
S 10.13497312210385 4.953580911868321 12.651616918094991
S 7.4807901239981165 7.4670759071432675 12.659140163703325
S 13.050266476851089 6.528235090256045 11.940749160461047
S 10.17197599634185 9.787757288711735 9.114070888147097
S 5.462043136512263 13.329269012664597 11.691711548833755
S 12.849447088515078 14.940603906960654 14.418296437591584
S 9.182164191243096 6.484816239432062 14.048285144752468
S 15.627037419027594 11.523423039051321 12.750491621338146
S 5.567520022426554 11.325217146815122 12.757252634712863
S 9.460391681112185 9.357252469585747 10.949656226931735
S 11.255542865045824 13.781417277063737 15.02939672707569
S 14.043503612347608 10.20793676299513 13.0838481808864
S 7.631924751135697 14.285693772656108 12.899241662900858
S 12.276320001758403 11.182931908993881 13.099760862825823
S 4.885255208590851 11.566378152799267 14.538716292928878
S 8.258405324009257 5.449864755394746 15.375233305335703
S 10.534572846597293 10.744491665074122 16.068354680597086
S 12.027316686686902 11.67622298691123 15.305618241323499
