42
Energy = -165.56270654 eV
S 9.4110510655269 11.439774853243447 5.51033933566385
S 12.367674794067405 14.323492670457597 5.871341517988703
S 11.705165653780945 8.970199703486804 5.785255639073333
S 13.866089682871873 13.138984691410961 6.6551041538009255
S 10.762647625948096 14.357986434135304 7.171891919604196
S 7.838874026757569 10.664190837946093 6.356295362758345
S 13.474544607448356 9.68377588182073 5.496418302937352
S 6.95681265733423 11.954535027158048 7.731679437102603
S 10.876824685760823 16.051822607998 8.34961181058658
S 11.789978501950786 10.9912145289629 9.869142086233705
S 15.24892727684143 14.339156228178012 7.6121683246876355
S 11.28810195500671 8.266561062495155 7.540099173754752
S 13.624934117595167 9.854852944627154 9.810653743723133
S 7.524357618015956 11.399838524774676 9.808539816226594
S 11.414010706501182 11.391199192634584 11.813337276850023
S 9.189093796447954 4.419060641575378 9.072178100532382
S 6.405860311294939 6.359154539141868 11.328934716493164
S 14.84891104278274 14.360544758910775 9.636686141450975
S 7.688242619723964 7.9780420747576 8.838638246709158
S 11.07410948509731 4.407402241096469 9.417113075784247
S 7.7230316600584095 10.351675123670866 14.343140826769055
S 11.740561493526599 15.569142707922156 10.161960289123886
S 6.291569327090742 9.124724727146864 9.47252243485697
S 14.878366893429197 10.72679251389372 11.096724415421855
S 13.554463811579778 5.6190617643144725 11.354776448937235
S 7.333894825283012 5.983108040300208 13.183947693799244
S 13.749437598609129 16.044878721474994 10.106264056586229
S 11.677551014279452 5.949479948249516 11.122191991389775
S 5.398119507868248 8.079811240444807 11.343270460201397
S 10.638880162559278 9.691604781769156 12.758107121998478
S 10.57977343902212 5.050429852696617 12.864528148386173
S 10.854377521625235 16.396718515018737 14.474541432410087
S 6.572277628103086 12.69238748320553 10.861000434777225
S 8.580309106877596 9.830470363043101 12.56142511810606
S 14.493871034405455 9.565405848546524 12.929936110710166
S 8.030312498580074 12.410562496113235 14.594559312088991
S 9.320039553665671 6.529319100629928 13.42408060857987
S 11.904367209504333 13.259904015743189 14.82645802551938
S 11.968699226279217 15.274612113283666 15.588877763342415
S 15.209511645982944 10.527377697274884 14.436847395449545
S 11.008573455979924 12.153934249741244 16.273642485823384
S 8.97273586935946 12.653745965128266 16.382705958183855
