43
Energy = -170.5074185 eV
S 11.572589813461798 11.327815091109443 4.971730273496216
S 8.238081742247026 11.280886202796902 4.813933050039637
S 9.784049616111435 10.724659154776596 5.949607622860167
S 7.545251657125569 13.238113747479783 5.713198903738214
S 12.185903236021483 13.182007057722922 5.588687349084269
S 8.980556605120894 14.029026416841921 6.706315100358276
S 14.85420636535798 7.415536773141067 8.224303908366451
S 5.841502096204101 8.150149550812486 7.581504151844434
S 13.867423393506403 13.017792119573743 6.862239703127528
S 8.900958641926954 5.40494691850146 7.07865485280144
S 7.2753146181094674 4.681682691752329 7.813537793422749
S 5.543415643527014 6.152006796804823 7.821314330471368
S 15.672964130109785 6.9507595593522815 10.074539623371116
S 5.47093621848933 9.672412854395905 10.44054279363921
S 12.828467809876587 6.954314927214599 8.249297363977208
S 7.864863540223841 13.124938757549504 9.020114963689595
S 6.475616940150719 12.241451226388454 8.051925334634753
S 4.182183646682959 8.306943065829813 10.770465736219982
S 10.932305046512964 8.564795313891931 10.605782227723314
S 12.914418379198935 14.869409601873311 9.351279356748664
S 7.011849131602261 8.794513443255436 9.127439089991459
S 11.76464899985983 8.649705809402677 8.591591228951554
S 13.348522007902892 12.830758560700842 8.795844609227862
S 16.214965674430356 8.671654514999657 11.111669988743277
S 7.227978317378879 15.148514875261446 9.734749246093251
S 11.620003059046988 14.802532784406356 10.897151097889571
S 9.88956116979946 10.176210716861027 10.721331088221993
S 12.728604966507946 14.979416445270576 12.694237560650466
S 6.946023070636371 14.885957621332384 11.73330658300256
S 7.59807289680117 4.799047802363888 12.114480131520326
S 9.10024284823392 5.977220141714237 12.37691686077551
S 10.669379413563394 5.22478468878842 13.824664746134975
S 8.775406012802355 14.970177405537411 12.715328783896146
S 14.699915523699929 9.473766664800646 12.21166827965203
S 12.269294922901906 6.085826537286732 13.018610286284467
S 12.791218995215312 13.183379352540573 13.761951695697462
S 9.453700532608899 12.956149106992374 12.747143858744902
S 8.176287460945161 7.84820896915891 13.723517390916726
S 14.543861128953973 8.242376930121036 13.950038169811998
S 11.451839599395838 13.267078759777325 15.305265111297697
S 12.591966136699174 7.880294060387457 14.201836923931337
S 9.663756934864699 12.275428806557805 14.622999525321891
S 9.328535840689035 8.383991959180236 15.125927088133901
