43
Energy = -165.48085603 eV
S 18.765265587040613 12.594022625559967 14.397403599591774
S 10.218332646143217 14.05439437958255 11.457696855642514
S 16.913941371929486 14.815402852469072 8.464266792112351
S 10.82739814365515 12.107638682944405 11.58637269853558
S 10.548065818501016 13.105032110209455 19.731772198116925
S 11.697772876157353 12.125744455370107 18.55222285873704
S 18.65007350887986 19.77920384056125 16.384474842478777
S 8.707628340484048 19.465431155382117 12.412144922084137
S 17.051845430026866 15.28086435865722 14.781639185799808
S 16.320477773793744 16.780130499658526 9.052910196546197
S 7.029866035277806 19.71653698056795 11.549758847315104
S 10.824770879991288 12.049339230768842 21.580210541332107
S 18.173474842937317 17.872342552867742 8.740603931764486
S 13.107714127955258 17.619052572897072 14.449088059031407
S 19.436807022319787 13.351773709129061 16.044763843773854
S 13.311667490211107 15.091896355406348 12.286837188855397
S 11.043663310459955 9.692721184286219 19.493011294919196
S 13.45383226458857 12.710055438570016 15.379345210131195
S 18.361290997433024 15.199937184019843 16.51451289998018
S 10.961690352896081 12.33848462626734 8.19342622618099
S 13.91673276374233 14.01913019251018 7.842609871350549
S 13.09630402421705 7.776957813784647 14.756425054621303
S 10.440435374317028 11.10217508274688 9.740627806597704
S 13.765114953213716 12.980461051867568 12.280615230628595
S 19.239609604302657 10.129064679486378 20.478938754501687
S 17.691053577258913 11.257522580983455 19.62883020815225
S 11.410948060068245 17.797711848692813 15.324353656388578
S 7.3814058674060705 16.87639863493091 11.133430232017071
S 9.73000557042141 10.452498219524884 20.710395346958105
S 16.027374274522007 8.827009200777692 13.929797692758465
S 13.796172076733857 8.990972664836592 16.0855833924659
S 9.010993486907829 17.252960139728856 12.022882017433705
S 15.257386101753633 12.179748949723551 15.119022227635437
S 18.70204309480466 11.971669291072073 21.321095549257134
S 15.43252835996938 13.815755957964473 9.363391005899082
S 16.195295798531124 17.022256513905432 14.85937540810112
S 14.704143531589079 7.640059036165751 13.260896395517312
S 19.727979941453825 16.748011488754358 8.753046034123116
S 15.577545160612367 12.429486732768327 12.775744299047044
S 19.381227615781444 21.102300209023507 17.5266409429921
S 11.972543990203826 14.980188411063407 10.758650760147091
S 13.028451220256212 12.242120501334865 7.436935190531966
S 10.70547957915546 19.588737456876835 15.666967337757725
