43
Energy = -167.93913163 eV
S 8.638603283288806 9.194539618420634 4.23448455595168
S 14.281003441260752 10.173037025868243 6.822670242182973
S 12.374236167606995 10.091868624536577 6.079776542015179
S 11.557372751040488 13.29173350150506 5.312437024240203
S 11.158518980701743 6.57930092285351 7.231036094138274
S 8.038869316321701 8.20781166741661 5.779076264249028
S 13.376273874200265 6.571554382148373 7.077448421827778
S 6.397919081020295 9.272970695892997 6.752296103551217
S 10.316880746868984 14.654660864809218 5.8882122937886265
S 11.284475301429069 11.680689413166931 6.741171936248099
S 13.995902615282933 9.560695020607673 8.920796517254852
S 10.636059958192137 6.2941122407618435 9.125999196317073
S 11.322778850642443 16.37044620079389 9.519412066424206
S 6.523636823820607 8.495517076653098 8.618608471635232
S 11.901092182452075 14.375548752208235 9.513311455300888
S 14.126528543619559 7.173819403496878 8.77405494659311
S 15.529858115914681 10.097075887785774 9.955511523601533
S 7.660602720681322 14.197462447393018 9.939709355902343
S 13.77668637171266 14.419908151027787 10.410298528483313
S 9.68110814141049 9.57106171349722 9.146767827542423
S 7.7168365335519065 9.761153712331032 9.774661595489166
S 7.730311532404108 5.428676539571606 12.034400494474855
S 10.745341225873377 8.17235511036021 10.164845808874016
S 12.027867758638392 11.24300236047927 11.99952730839377
S 12.502691903802898 5.810208150253708 12.82514615733561
S 8.561088499670452 6.8544938947187415 13.023263998037
S 14.959162924173723 10.393337776342321 13.243560132977475
S 10.371637096388463 12.512874225127012 11.802074193402204
S 6.297604331416914 14.351015020536527 11.33119813331956
S 10.910727682536558 16.741434386309123 11.513785342012214
S 7.165510417808894 12.282619558035012 13.76153391877905
S 13.362340008449062 14.81601430242465 12.40294456965916
S 10.32349000168398 10.946114864542988 13.163595751334391
S 12.792049227544194 7.309059226361853 13.972838749956315
S 14.761199147211064 11.230271482001141 14.981363996750966
S 7.177662292280058 14.387811760651568 13.212884749834416
S 9.72639289648026 12.936905858605282 15.514114323877205
S 9.81771399462528 5.954973696287211 14.623036522876575
S 12.794703216111252 16.809434158052895 12.377009344439832
S 6.483019102242141 12.080848743007188 15.582677361066546
S 10.88432597365023 7.450117168190189 15.303748528753307
S 13.087458448563083 10.95841914638386 15.910051355886994
S 8.40689995955314 12.47948669070939 16.823099737349388
