43
Energy = -170.07016033 eV
S 7.34888331430494 8.652678962066393 14.333935022471444
S 5.636393236671481 9.022479339641453 12.967336131617195
S 4.244513305625645 11.552004934074713 13.017264957112618
S 7.945934613462896 5.87458835764121 8.541201971153448
S 11.514195778880929 7.379182863306673 14.245435219774928
S 8.836296344578477 11.661651536735748 15.06412612315015
S 6.1673599557063605 9.165918191247886 11.094426141973067
S 13.192335575973472 8.324852874383085 15.045729832133997
S 5.995853819403652 5.538360788891361 7.657934112122471
S 7.598640257587359 13.438331328756243 14.47361887086086
S 8.789629482030664 10.017050815240209 13.878666711454708
S 4.711754829324672 11.820167963358976 11.14813838631669
S 12.941616440281583 10.373934111827333 15.376656468924086
S 11.585619209443989 7.349611734316224 12.221008050794666
S 9.1854055167104 4.651767468329739 7.527895888471022
S 5.811956122223167 13.725344581881536 11.107078785492531
S 9.707341950893394 5.6033963831800015 5.669149343148521
S 4.96523965294948 7.19316682172325 7.774679794708216
S 13.102724107816591 5.862517980745051 11.80154794770593
S 9.851059453822089 14.719880006363654 10.265954046818555
S 12.495665805666082 12.34246494080421 12.67943295203978
S 13.948527767192587 15.440161786253267 9.394738223591004
S 12.473713865623846 14.678938218659559 8.12689412826581
S 10.720414400268904 15.635272012141591 8.623185413317003
S 13.94201636191299 8.193725436861603 5.715792913464452
S 14.391574814752982 9.41357408701931 7.340674208766857
S 14.590107584299606 14.010179192969847 10.69597169254698
S 10.78469203472366 11.308682159665327 5.838947344599443
S 15.831956177450618 8.308978724833821 8.418380883312375
S 9.151079445093476 10.55015612582548 4.820426638900377
S 13.386564112934966 14.14143460290935 12.439774880470976
S 11.219109253315748 10.933845700858074 9.865474752071304
S 8.715146598747907 13.126450966209973 9.60700827346608
S 15.15063131530702 7.979739265892713 10.266585694378795
S 10.29034611321375 9.76381600899968 8.612603015147842
S 12.8087373509865 6.619174949825211 6.269802804919048
S 6.764507425661251 13.873032546323735 9.337297484158169
S 10.74429728490963 7.274976877295152 6.069062188785925
S 8.97950293631948 12.278603995455887 5.977581019068527
S 13.73391467770308 6.32001168587932 9.98556890414447
S 8.378919304423516 9.921916913071456 8.495865679910564
S 8.79016674933746 14.967179026067656 14.660693103877188
S 13.949725979496174 11.364868059498717 13.920524321624761
