43
Energy = -167.18675722 eV
S 13.851638857084296 14.883590421085719 7.206309799075792
S 14.32447687261046 16.262632279855744 8.468493483014196
S 14.088565487422912 14.11710477974457 12.886555115022697
S 14.938062240579915 13.121559715571184 7.644331118741961
S 16.029902426370846 10.858629987654902 10.673957499417408
S 9.661685397187686 15.057424937841077 7.74914605927234
S 11.383558700970857 15.877160556430407 11.299696868687954
S 12.884352588244226 13.076034746821607 14.157573315924967
S 14.455886977009142 11.695156140126253 6.441069270612593
S 12.922670838652197 14.03191210602921 10.937116156767406
S 8.823289321191512 13.409467042627302 7.21250777477628
S 10.22430803773224 11.74759439608618 7.602358217043449
S 14.482577293212108 9.781517595793732 11.114131928533137
S 13.276826778475325 11.157410633664757 14.070191877460566
S 7.358812262842979 11.238248578200478 4.512355278219223
S 8.872167574745482 14.38049865700407 13.020751624567314
S 10.316417445260056 10.81095266944025 5.743107593817045
S 9.689738572552228 14.930535519488062 11.091308204002882
S 13.354476417787817 9.457731866148334 8.949474147350136
S 6.9296407758619125 12.835684422419977 8.527575816160986
S 11.730589609299246 12.539694705718786 10.881908317847863
S 7.1066124096918895 5.067858948131032 10.872427494913486
S 6.524287869316637 7.021914299451938 14.244598706726515
S 7.651227210646083 7.084062971450394 16.17573851399216
S 8.949435739290902 5.618769053505236 10.815291764463504
S 9.665376203214167 5.196354487337748 12.949904976458559
S 6.380524166378997 7.439206515884551 7.735962239921259
S 6.913852376919438 8.597103491405141 13.228713543316685
S 8.926210076363558 8.612250994501409 15.986163152735523
S 10.153901815308792 5.03621643608844 9.437063886395729
S 9.373083142719747 8.036552040780856 10.943005450195237
S 6.299719384318577 9.256181736179323 7.119491420787561
S 10.215100171343117 8.274063260757275 9.199646531169224
S 11.51242149162132 5.879765928520311 13.176731159564508
S 10.904089826320822 7.8958146015478645 15.777827200208376
S 7.356821714109498 9.398366161596517 5.0261585528617845
S 8.582467107187936 12.373793683500915 12.869050575680383
S 9.569900495744488 8.983443185739363 5.810366716460094
S 6.813820930470084 12.077811358817295 11.838508646402026
S 12.359727018940353 7.788348168349024 9.19805731994469
S 7.192916240145943 11.386499950778953 9.888025966363577
S 11.48852090235965 7.903410563498987 13.831307419011758
S 14.687664193161304 8.028995365091138 11.913364256777436
