44
Energy = -165.787042 eV
S 16.572485537618014 17.802764941070198 6.381225824243792
S 8.302272111714494 12.805931689023554 17.94101580043821
S 13.445091077006207 13.234889309878527 11.405895661559338
S 13.86818064102525 6.729092040478454 12.19133485466355
S 11.66115742299005 15.578852263148327 7.643460237462845
S 15.128762759907865 18.972928433088356 5.849224151946813
S 12.33673214414042 19.794384607053043 15.920470241395565
S 15.506810601417044 13.711396096046151 11.803244865138971
S 12.605777748911349 13.562135684612626 20.37119073072466
S 14.328376514543246 15.441326845938061 9.14243616844655
S 17.81949426140954 13.078959319145795 16.434999469583225
S 11.32637134064147 18.006564174544042 16.602389568602252
S 7.42242368714761 16.39582768601062 13.512407506587527
S 7.509399601152623 16.680057014112563 11.463708585817354
S 12.50986850422246 14.429412028189212 9.394438623522733
S 12.851393889313606 8.403437626646385 12.312056345049857
S 17.764115714598013 15.609707912609469 10.544963694831067
S 8.63684210046933 11.195602476831807 19.31224673422776
S 14.490526188952186 13.949848869116082 20.878971614087558
S 16.837100764524138 15.90218153286132 20.835584294359872
S 20.199445959814472 17.212756762425414 12.255756796346803
S 16.03854138504741 18.31009555256517 18.728180576007667
S 14.103535615864926 19.825591900478173 16.71720972968043
S 16.45203545693063 16.566290825744503 7.959997173960744
S 17.480382000649666 17.709134394239065 19.86284293100452
S 18.253299601169527 8.406797579404229 18.801443610339604
S 9.759025721516384 14.06202771549517 18.157973047503525
S 20.54131941158556 14.151139689709717 13.320770318956653
S 8.251071630219686 18.129852695238625 12.739540957450856
S 18.382781669597385 14.527418019027852 13.424053856167658
S 17.737927042045225 11.109542371355152 17.08843928981252
S 19.940787298815184 16.382855971010276 15.803069708723118
S 12.870086199191169 17.275750716744643 17.76157445966397
S 13.056302306585664 11.333493863836283 11.553659637877887
S 16.886185797861078 13.951188492915612 10.28629914819763
S 10.235466883690416 11.55072976933987 20.257227847379845
S 21.147753164301292 16.296131530160217 13.688963288523938
S 16.891818328202486 9.434781675483963 19.74296789726947
S 14.958881573885508 15.76948576461631 19.91180650446496
S 16.09331121210673 11.007958328354567 18.503554693681682
S 13.5219800538471 16.42162540782907 7.401618277096332
S 17.597046553135613 12.917745099287998 14.28803945044216
S 12.415032176854577 15.659341261898373 18.801582507539276
S 20.23063676381938 14.720283817833666 16.800138308211082
