44
Energy = -177.44099601 eV
S 7.247644860152534 13.274526426969285 10.362554540862691
S 6.438923973022388 11.694956932422404 9.170023215142693
S 9.355465574065645 10.356248188916318 8.039564634926583
S 9.113845504775576 12.055299642917605 7.057699963289434
S 10.678620590782408 16.648057103397477 10.24685876495115
S 13.584149571501955 13.955187797869446 9.427555970473136
S 13.139118105700211 10.770694482927968 8.5628456176081
S 7.241878414255251 10.643853019428253 13.512848623212944
S 7.587099029533771 13.803249853613316 14.461793731320974
S 9.827160692625995 13.630752107969716 8.321209918094384
S 13.334324400557957 12.67368639673097 7.796053709524468
S 7.6040160973005255 10.115559109988578 9.41297977708303
S 6.418932480766655 12.224110189757841 14.693778850811562
S 8.08146792126908 14.510253587962046 8.951089731488805
S 12.06958146164471 17.809697174655525 11.174038135137305
S 9.242929628865213 16.29450583640387 11.914460482084378
S 11.706551208749055 7.504549832741867 9.781164009059985
S 10.095681365614649 6.493377580141055 10.503106407768504
S 9.241334477875194 7.619510796457911 11.969193815436094
S 13.111315888334628 13.118459641111395 15.350081551645196
S 13.308824694267619 11.21670462293794 16.118451963723533
S 16.9326551317874 9.849676395341499 13.779526330601312
S 17.71991341957601 13.095235673583566 14.149776087681696
S 14.845418504909942 14.22452916646728 15.453886749918478
S 16.944841800255414 14.043522757746196 10.158982272868776
S 15.86572102088176 10.08841572838436 10.268057905724776
S 9.799747364238137 10.29200016014934 15.582250270131297
S 9.323415245686602 13.566467219238865 15.854111408099147
S 15.851875719981914 13.80272621561705 13.665988937297232
S 17.738464252479947 10.796460181234284 9.805081210422543
S 13.565691425677837 9.938981771916664 14.485086401996876
S 9.074033519704217 11.868542125789132 16.83684694296113
S 13.149214927448535 16.634748585917983 12.431705104033531
S 11.700969438920845 16.392869987991205 14.110701210873088
S 13.148134663592268 7.264061957290509 11.466154705178289
S 12.060186962639378 6.0949805132268695 12.722417401058777
S 15.360596338272156 8.969564518091476 14.769039144420464
S 10.669180549324299 7.261758214417824 13.642544813192888
S 14.876576014483131 9.669356914984911 8.469199493892054
S 15.382573617385459 14.919155022642727 9.149415841193841
S 10.096904933543263 17.413319284262307 13.386329233135244
S 8.061053938127081 9.4109798467665 14.935249253235861
S 17.63858282845678 11.301047585225797 15.127274202434274
S 17.666463041806768 12.589440449232736 8.824102266843427
