45
Energy = -167.9619648 eV
S 8.49143023142874 12.379774947625702 7.32803764757539
S 9.821247416997121 9.295391035113218 6.498627427972641
S 10.996750574344507 14.01284992557311 6.729805141204747
S 12.603622361091055 9.198437639045506 7.4451714272275025
S 14.091472778216023 8.273747388329864 6.679204805416076
S 11.470274233880705 15.418078364264366 7.9914125281311765
S 13.615937736312864 11.986772511596984 7.609251809694185
S 8.510024878088423 8.536518117636005 7.75956655250882
S 7.109526395564595 13.565380441667433 8.004530555800422
S 10.157419641731966 5.998269250919767 7.956692197118683
S 10.714318487519352 11.362874634201102 9.407207359671466
S 11.837234925896086 6.759549191854592 8.400459946826265
S 5.9737772779449605 8.316133886585884 9.328778637303268
S 15.132724569527335 12.287586335025233 8.785433606153683
S 13.250650459192668 15.181943940195437 9.04795961101986
S 10.046806664435666 8.564765760664887 10.579737398203248
S 7.1368782840564595 9.900474483265208 9.02205879550817
S 10.527636484374067 14.951755171929904 10.284501700168162
S 7.758534548947913 13.058241588108071 10.216863468010187
S 14.238897037383705 9.279072599231775 10.0526056177888
S 12.70246810109083 12.37062943108943 11.29383290062136
S 9.573741611749877 5.094862465562041 10.454256207731131
S 12.84457502997883 16.94634366583058 11.9637915598833
S 11.283044106114806 5.6772164045443745 11.126382409297046
S 15.027865602886914 11.039991006889235 10.51187147026228
S 13.511717371703837 13.33361750102299 12.774910068191717
S 9.375225682141375 10.408928170987563 10.50484067987439
S 11.604976182444286 10.660232308982886 11.702525868466507
S 14.299868454774948 8.135908571319428 12.465112417728337
S 6.2301577620994335 6.966074494965448 11.15760698372904
S 8.055270119650183 6.619082735718545 11.700407348778176
S 5.762661888821951 12.032073442984935 13.109333886548136
S 10.726411063587433 16.677288047832086 11.147303202935763
S 6.933996792726631 13.464163610533147 11.971746634108992
S 10.731954195314408 14.07565040236598 13.375576906871407
S 14.043206461024427 6.248649534700855 12.690173604308493
S 14.514089343782194 10.803438027042613 14.06030187793173
S 10.041746246028048 12.305672328111386 13.80698747276134
S 6.3898698437317245 10.019922021052114 13.037032701562243
S 13.03604711206796 16.354693862676793 13.773984479965446
S 10.997519671577217 7.376243204482299 13.493312553784722
S 12.720336708790205 10.078691808921095 13.856167821416513
S 8.156951925866114 9.476523756755821 13.72798001938157
S 9.639415426644833 7.045762466134109 14.783366717243991
S 11.147635659670103 11.296640867862465 15.219205324517274
