45
Energy = -172.65511399 eV
S 11.610930068703855 10.966469068935195 4.956358572960322
S 9.8862519196363 6.300967911136552 6.136626048154158
S 8.10757422901389 11.427361243051063 6.600754641225726
S 7.45241567516063 9.812953530511871 5.782618662835292
S 12.991903541913029 10.158257283977372 6.10935028228078
S 6.2580033567403905 12.697829358560076 7.449969248999308
S 12.137423381814228 13.973140135021385 6.681607682855277
S 11.486759867514863 6.56204754659671 7.2833469035638485
S 14.47380054770243 11.630142666975761 6.442036727650681
S 4.623242260353548 8.23301043706149 8.628256915465181
S 10.768264463937898 11.33292576244015 8.361181024077215
S 10.639581179572685 14.411045951846159 7.7889036607064925
S 8.727960008276366 4.924029127379906 7.647666786207223
S 9.06909948480219 7.200694622065678 9.711139622252837
S 6.79029590671701 13.586943174862284 9.178221656188157
S 14.202741481221995 6.643852489821822 9.791378641774962
S 13.463056344790754 12.722065874084747 7.845951295769638
S 8.784380848913006 10.99799253814217 8.780006926735657
S 14.031183560966975 8.296116326172967 8.804401556374085
S 5.647552689023136 6.44653521428087 8.778014203425116
S 5.747661362707249 9.717104002720557 9.414982617691951
S 5.7117411505854285 12.981216357016258 10.759983567440232
S 13.147609287300368 14.826435823747804 10.510011323862003
S 9.775282422677847 10.575503642554922 11.239759755284407
S 11.074473849461219 8.045232992873922 8.653149869220927
S 14.731274832000267 12.868539942405228 11.313705301899565
S 10.12615496400084 13.939709413972851 11.7541133710757
S 7.075429421876144 5.470927688411284 11.73270632886552
S 9.838288203073848 4.987698985504971 9.215210929676624
S 12.031939415204976 14.957642984750354 12.128103999007124
S 13.689240948431344 7.150339316661256 11.889335702129578
S 5.3754798130187185 5.894461990176964 10.921639438289638
S 11.424802684410873 11.146843623331819 10.354571928382763
S 13.477100722209247 9.059878330076906 11.968303407526134
S 5.101342953817377 9.740288033291082 11.448517293670108
S 8.995126221380604 7.999297836856574 11.483461696354338
S 6.382883953023556 11.089475060112337 12.201243449870079
S 13.543536174573632 12.451665189766569 12.974727326912685
S 10.130813428518518 5.353723420448185 13.289629712181366
S 15.161102733062123 11.142608973273887 12.720841706349917
S 9.18794412091478 13.645793741042826 13.531563458988364
S 9.977011003716932 12.11864193295525 14.686953366262868
S 11.047491872013367 6.453520164924895 14.541318228059009
S 7.143297730343985 10.11609131863631 14.393412399409902
S 9.137282821622895 10.12971187828353 14.301695668808826
