45
Energy = -171.03452828 eV
S 9.715259406314491 12.043268523641045 5.330041272481705
S 11.790000441387312 10.557641508633045 5.62719348381653
S 11.061804167196517 8.80432837749495 5.02070284853672
S 8.458100753348546 11.644042376226146 6.693873134635521
S 14.426007032055827 11.09653014627009 6.841948988832967
S 7.922853239963637 8.796366292966644 6.391928125006967
S 15.560621497907075 10.038829243765639 7.943666847676859
S 9.967571026736865 7.883588829957938 6.489955318770727
S 11.431645908795009 13.526130180526405 7.726609770145508
S 14.062202314874245 7.140927586359822 7.065912581191872
S 11.62109461360012 9.479236231541098 8.457932042227931
S 13.149689262987842 14.461174377249732 8.65212569575982
S 7.043863151693038 8.676278124940827 8.0639750368454
S 7.118062076138818 13.432732506141692 8.613975514348704
S 10.291581762727638 5.326145935602116 9.173963253991198
S 6.236462673773662 11.279533441032697 10.598662003704602
S 7.868072835843835 15.026392984989487 9.377379343303117
S 10.138688968250602 8.750224580506321 9.894486029287666
S 13.323141808998574 7.462975310164101 8.771398218498685
S 14.506512781188293 9.289123435817988 9.789883572239747
S 10.818219933856591 12.075044044064535 9.058312105813258
S 12.718526305012642 10.878198447987844 9.570613978617654
S 6.004266402512044 8.268192393610223 11.113450537565635
S 9.626296606842264 14.931302412419523 10.160942658126082
S 13.561651627668882 13.822163854926567 10.460157822392818
S 8.984323527105165 5.9741851984677625 10.395818567081376
S 15.282237827478571 11.310381110046396 11.94278089410802
S 12.673220733991409 7.364345585704727 11.802685426780554
S 9.566575297343018 11.637801076770181 12.458533413773157
S 10.940874334011134 8.837345417388455 11.722407489940794
S 4.7960557010253595 11.160431757012377 11.936941363596322
S 8.896371646230508 5.161665302824327 12.14355802876864
S 4.805778490251291 8.984798418179416 12.36925156607538
S 8.063829144639124 10.534297484660517 11.902741807803112
S 10.697477741969909 14.97500181564831 12.484583985561695
S 13.94127028200227 10.501624265007996 13.117526683103666
S 12.060496091581564 13.600843964162147 12.242154203284999
S 8.590307033883185 8.500138691852117 14.166096640652388
S 13.703967184786917 8.119189853554182 13.288499866290428
S 8.488788466086412 12.872259217389676 14.2287952813747
S 10.42785806048637 8.72654419315792 14.946961589460408
S 6.972634192387812 11.775240688332334 14.290415264098694
S 7.200298716905693 9.395453219343317 15.223972561142045
S 10.597730054956118 11.270777538641784 14.944552067602515
S 12.360000051733483 12.079595233550389 14.974924294213563
