46
Energy = 17.26637129 eV
S 12.25999052373833 11.263156289061522 12.336926086885054
S 14.063925974405436 12.332984149714855 12.481158448583283
S 14.696366847590667 9.152132569038466 10.780154362008608
S 13.006575573828384 8.46385590510233 11.821002439348769
S 14.063952988021095 10.193330830694778 12.48119257075103
S 12.88675526029099 10.260490148850401 10.713298694395572
S 14.77678785867776 11.263132912877378 10.81027574725682
S 12.973114771333282 8.48471887431519 9.663082282761554
S 14.080579599393605 10.231086354826532 9.018973550645637
S 14.696362267077989 13.374097617288138 10.780124795743864
S 13.006623275167017 14.062481842232499 11.820892880240235
S 12.886764171902314 12.265808996362773 10.713304873850179
S 14.080666044818711 12.295156047435754 9.018953978330119
S 11.263204390847152 14.685827771345537 10.645140331517336
S 11.263153397563306 12.99454054874314 9.437616525601996
S 10.180987845528358 11.263148204727361 8.799526258374593
S 9.553209866895518 8.484838317666052 9.66294582316961
S 11.263176426670494 11.263163839351835 10.595693715206696
S 11.263195935145735 9.531785721707875 9.43768975474785
S 12.345364303686303 11.263162574942573 8.799548086293084
S 11.263130155207453 7.840540042562847 10.645176241963776
S 12.973113413136762 14.041475982635992 9.66298384599519
S 11.263098198970019 7.861142528606578 12.820112443330627
S 9.639555587498016 10.2605292442369 10.713297128459958
S 11.263163780220859 9.636935665140841 11.684544037422317
S 9.519668319177253 8.463829641564082 11.820942873214628
S 8.445698778671254 10.231194867439376 9.018920884389297
S 8.462383927225215 10.19331536393275 12.48118731776567
S 7.829913132359191 9.152204712865093 10.780069873884717
S 8.445761987925055 12.295225128970046 9.018972142392984
S 11.263125025443292 11.263156093961614 14.188308117790521
S 9.519750522709517 14.062506275794808 11.820982723809575
S 10.218121766386307 12.992208045461622 13.517953228982362
S 13.352993857555976 11.263188464579008 14.135588230429189
S 12.308233325207565 12.99225390715195 13.517959163760317
S 9.173351250394793 11.263200473121541 14.135545278718691
S 12.308237424092573 9.534120337368531 13.517956045487985
S 10.266373595625149 11.263143224586086 12.33694087353965
S 9.553236673755219 14.041580639332578 9.663036514545595
S 9.63956449910918 12.26584809174943 10.71332897183077
S 10.21804137010297 9.534101232481294 13.517974654541238
S 7.8299529118095 13.374129625909726 10.780150841376656
S 7.749537533733813 11.263180683298339 10.81027293075104
S 8.462409018963246 12.332993327377103 12.481212990416712
S 11.263201844890958 14.665206978015583 12.82011807634203
S 11.263191185499585 12.88945749731814 11.684530659020691
