46
Energy = 40.14918927 eV
S 11.960103176159373 12.451713734733389 14.412273609866741
S 11.696736996614842 7.741655290789551 10.351086135112684
S 10.85926997324011 14.826404741460802 10.38224097556811
S 12.47143712296244 10.594348965644528 14.403649156426825
S 10.49278328562798 12.40944548458744 8.157400499991535
S 14.022387286082955 12.962057170927501 11.678896932436972
S 12.96437129099624 8.537306804936419 11.663482111089479
S 13.530023705862051 10.86685872165901 9.202336235632135
S 10.6548913855614 13.477268877259569 13.361836363496055
S 14.82070601855562 11.702756442081464 10.360469880570452
S 11.276949202739859 11.286207200211459 9.847748622222205
S 9.98449321969401 9.045699800436916 12.823478184484127
S 9.859494211864185 8.396979496264134 10.874136151675717
S 12.777542194365395 9.1885951272007 9.718890501524214
S 13.512264626349701 9.974923311070501 12.819942777642703
S 9.054805780145808 12.573559965196498 12.840223631528815
S 8.394185923073548 12.701613296025185 10.894628831625491
S 12.054095025085628 10.176672719610728 8.144749859604637
S 9.079335835039096 10.642004608958306 13.354056976712414
S 8.539579902351903 9.595466752242759 11.67747904036846
S 13.375108741704484 12.787394647375692 9.73165227600791
S 11.369338930590843 14.842105975514654 12.20862170761227
S 12.583336478819028 13.503110911189538 12.836507725013504
S 9.59797778104688 14.01990012500431 11.692836430001522
S 10.853916889927843 9.034176910080102 9.200278390173157
S 11.212780076838781 12.691539624126818 11.287257391469183
S 7.736023695862282 10.865165604880673 10.372849771446202
S 10.613984341635975 10.083085130285479 14.405597359521742
S 11.19549835183644 7.7111844098434785 12.17980590425706
S 12.699024836100566 14.1667440686074 10.891061352528164
S 10.103187418657171 11.940431998579793 14.414086065272782
S 9.775943001116278 13.38471953399391 9.742400957018113
S 11.697359795077368 13.542713434742423 9.21782638948845
S 7.716875067205412 11.363549072994932 12.202530962408453
S 9.868787707484849 11.212869138382544 11.283815217930806
S 11.914826846732783 9.06648038482562 13.34097298793439
S 12.389280682423694 12.073462496044051 8.152012360957583
S 9.178982843178382 9.785866311436555 9.72897983661715
S 14.847684752913027 11.190071731187958 12.186121901120254
S 13.490032585903048 11.902005706374549 13.349220032964718
S 11.284020016422064 11.273370093219105 12.712617074687126
S 9.021673647805505 11.710263587620902 9.215866252530873
S 11.347701345683044 9.868771601863227 11.273875801988586
S 10.157355221702757 10.512685542811003 8.150200651417988
S 14.164305527833816 9.862245270668781 10.870867765013532
S 12.691714599296668 11.347827700547835 11.277099436665443
