47
Energy = -176.31819739 eV
S 11.203373217026257 10.745468538972643 5.275787209111264
S 5.939193467736207 10.84593647751975 5.907120414839417
S 11.666445961569291 8.861425678715884 5.521807072303078
S 7.745203851845625 12.074877690091594 5.385885079215884
S 8.710283588932278 7.108280135466442 5.35364157310478
S 7.384601611669299 8.47103932799603 6.397998631311382
S 11.163194163952337 13.180431789104606 7.074636417061672
S 13.412180949308004 8.751134933525494 6.67910038001007
S 9.365271870098775 10.295887623937022 8.115869034521989
S 4.816457203915036 11.903972837577868 7.622980805724138
S 10.901761332436692 15.058420848305202 7.452541345766408
S 8.647786864862795 13.166615745925517 6.7868527668112355
S 11.80682280488883 10.53427439751312 9.192080737664016
S 5.696682972649772 12.974848854716235 9.024492529008313
S 8.828712503734197 7.003560111680064 7.4742491943302385
S 5.2727839261376666 8.620838250672156 8.734228097688984
S 13.281860912461743 7.138480195924392 7.657958768807196
S 10.752776743311783 5.716596286223401 9.041013318408947
S 8.377780052924368 11.240306626008717 9.453276235053625
S 10.28906221068391 7.828439156607517 8.49387122016393
S 4.892806830117342 8.283480203423704 10.640132589847516
S 10.422689379242893 14.331772554858192 9.558887806597939
S 14.71306669075557 12.19263309592035 9.664485810728673
S 14.601236466940184 7.19798452560389 10.962946369047076
S 11.435931080483037 11.741338919413366 10.63706978568037
S 13.491529594486908 13.201443011700574 10.84918437087669
S 6.001401473168808 9.72669334687529 11.801012782029892
S 11.34385359102292 15.21195133655906 11.002487750682047
S 5.891945133373216 13.03340190972303 11.316026444771001
S 7.877811624921645 6.775912370995132 10.281801861988853
S 7.700101964993317 13.635673078202274 11.794844172212718
S 15.751127223670258 8.645639012633854 11.339316385043153
S 9.450165030598177 5.60540763198504 10.649186016592852
S 7.823380856480646 9.513923081918726 10.991478441647192
S 14.495453096985047 10.481526980394493 10.876487680282182
S 7.203472222636706 10.06469609326023 14.396980537771348
S 12.181367254268253 12.015008857647722 14.02299266916555
S 11.904041912574026 5.4542993479459305 12.843889876353211
S 9.933157071615359 14.47567319422697 13.753402739935478
S 15.189231108478143 9.628306570766476 13.865872049255383
S 13.649868321758923 5.9144184858224245 13.641327781214535
S 11.843504428128297 10.09485166697006 13.472134932302547
S 9.751351223377066 7.915858705610364 13.556721060850377
S 10.47035504883051 6.183412850725586 14.147428617264636
S 13.406428365171505 8.984052628334485 14.456688854288991
S 8.759850903395082 10.998123443754693 13.65717899594133
S 10.238668924325642 12.857714620187823 14.86067581866479
