47
Energy = -173.80270976 eV
S 17.672922258042274 22.698124259557144 12.109738824799292
S 16.394016561468284 15.013717380215683 16.66001253994436
S 15.277591460969658 22.494638449320345 12.124734496906209
S 15.380747906819046 20.515754146071437 11.864294520381055
S 11.307946705760454 20.33808320768572 10.776656337208204
S 21.52086071322491 10.24144221344196 11.635435781758835
S 13.407846792176112 11.766661118126489 9.237120465183523
S 9.315007919349485 17.95809684088388 13.43669377157754
S 18.11412403992014 20.820101478186135 11.882484955166724
S 18.584240718539668 10.848377088789224 19.539363711180243
S 18.602432904008996 12.77423009915456 11.223878913380329
S 21.1148767279641 14.457630743657067 11.971417024300544
S 21.354662783502746 10.310841029560397 20.950151150541174
S 21.83119832520854 12.21009066657486 12.067057472672914
S 8.575339313574453 20.103739547609337 20.756964842612838
S 17.08483293852914 18.133326277064274 10.998812530113447
S 17.122868626296114 16.268271908295947 10.939741441721663
S 19.13715230171959 15.926043250367153 17.27648024189141
S 9.315272604920873 19.057482540869014 11.843211783075189
S 10.217583591967104 11.94748462364202 9.070949479591855
S 12.93598454203165 14.666068943692942 16.60412834162098
S 12.217489782114518 18.010094320851195 16.861195836972474
S 16.061031095333195 11.102072971986688 18.098643081441416
S 9.540679965746778 14.219373036494925 20.313561833476736
S 21.006016748722924 11.897855821993693 20.026085010976868
S 10.381560715027424 18.33537752848915 16.464952767709725
S 9.038445017259296 18.748248324935915 22.043589870685587
S 13.101718314573018 19.709673686003637 10.692573519417268
S 12.348131379644808 14.930326099149546 14.865174739191852
S 12.377872390598705 18.473899867200895 13.40957230871597
S 19.17916208266941 9.341078233499537 20.524053026051018
S 14.512786023951257 10.042844911394017 18.410500524305288
S 8.796432623160097 13.499557544544901 21.912610474318072
S 12.384147480214857 10.191733958130234 9.058921240562286
S 9.630344562957307 15.750855564475861 16.83011886593136
S 17.822825757526633 11.254228658751323 10.207843286566039
S 16.931161034551113 13.338473061008129 17.314187757659273
S 19.359173657286775 14.249530702700223 18.161751330709546
S 19.72227818141505 9.557331457199721 11.103354093251664
S 11.503670073560368 13.367582761631896 9.266769268350952
S 11.974238311426253 6.766835918528259 19.54654052231954
S 11.068168825393553 15.221920587852516 17.97815994512286
S 12.991954536466114 8.228076527805236 18.86819540051735
S 13.224919084391589 17.38145650865551 14.7622032551588
S 10.116583856663606 16.145030289448027 13.798895101240143
S 15.920558100892954 11.549103843634507 9.763886133141977
S 19.4439956342942 15.28396663685295 11.012748079221545
