47
Energy = -176.16577448 eV
S 10.856261852944568 10.213208877256596 4.981585072334549
S 9.973869778816276 12.315342049637568 5.144403815033219
S 8.180270996384596 8.863933710858838 6.483790607673681
S 7.121827044020525 10.661048343053245 6.471547626784611
S 12.977577709203844 11.24444969205366 6.993348098313489
S 11.203179686646303 13.590369777674116 6.00788763184567
S 10.19284197294958 9.230693259353043 6.550032729344478
S 9.248324810509299 11.850706678297062 8.39009325360464
S 7.245929818801046 11.658678455869063 8.241053042159065
S 10.43211773735872 14.474693428939434 8.385211987990516
S 14.069594368286378 10.996184324325498 8.48921130903149
S 8.052774720397785 15.157956401457334 9.387054511611385
S 15.404675728669734 12.914216824860027 9.188357772827363
S 11.494993636237632 6.219203853651577 10.446105459654813
S 11.474850769936316 11.97761354542306 10.15955987426217
S 6.514371778020238 10.124688869395504 10.514467856324497
S 12.959405054729306 8.848820102798442 10.111766140851973
S 11.754731100336027 15.482280184706845 9.215596943057866
S 14.193745091607772 14.182206914202991 10.03616323368104
S 15.4967729251107 8.436985290795612 10.9886169505549
S 9.68241773729374 11.424795151766695 10.926489040038616
S 15.850812065936978 11.073491824687846 11.080236738355119
S 9.324225483835644 8.519229668965927 10.653193629053572
S 12.422926535738677 9.07894774533875 11.878138721819218
S 10.740722139162113 15.60841271855474 12.210806727216474
S 7.784730607496437 14.073381263296692 10.990541525877624
S 14.147301060595028 15.028426488869394 13.136151304163096
S 16.263746602074733 11.73062369524632 12.804168489205535
S 13.275159520489174 11.138542088014827 13.166390290020395
S 6.366378280451545 11.228856518861486 12.106623534854753
S 12.376364018119325 12.595061114017309 12.084985160257963
S 14.839148891538244 8.256526761053857 12.782878201747986
S 9.184219695861124 14.588399543295276 12.655166995819407
S 9.461950475972497 7.894404791171055 12.438328239321999
S 11.162384860082051 6.419390744895329 12.301873837258375
S 10.46942440036794 11.534465976656666 12.886058323944418
S 13.983287952156006 14.104784721172017 14.897007619797137
S 7.823646761976439 11.29152290438398 14.001738819176795
S 15.422859287951352 12.878230070319743 15.236602697989616
S 12.33474047836384 8.154829239997992 15.06218511101611
S 8.117964408088666 9.650303350064048 15.011694394440335
S 9.156858432911893 13.54772039382673 15.803116710727219
S 14.105690773124069 8.43641478518596 15.947362196546866
S 10.99989689072313 12.957044386726384 15.703365055865865
S 14.309863441705826 10.367619499162554 16.32561838640775
S 10.95243963716992 9.353997191792374 15.59661299642699
S 11.336050604875705 11.364624403095084 16.870138960739176
