48
Energy = -187.57924978 eV
S 8.97148377868646 11.205256098340477 5.5139628323464365
S 10.491801843560692 14.06309333339283 5.171035618680903
S 8.660239234184864 13.204591167281983 5.7622242047266035
S 11.073588707882212 15.315363683035875 6.648676587274601
S 12.091122070439972 14.36633663727571 8.249735768802386
S 9.031018356230733 9.44189460829865 8.411105040339555
S 10.186622089171568 10.450873033438706 7.014298398863111
S 16.840673459751322 14.224416151503503 9.967653424227056
S 5.352540302327683 12.67302847447267 9.577800886696847
S 6.626156228438702 14.00271979576124 9.00305082169404
S 7.802729570597161 17.033400234844965 9.710175076372922
S 15.913482871346984 12.55213777137132 9.73709926197725
S 17.466515491592702 10.973818901907554 9.832244915290762
S 10.937066601947159 14.658827824160268 9.894267301284103
S 8.654431927347938 7.5891238681831865 7.657965453620757
S 13.1952857639241 10.605337269951661 9.3864695120678
S 16.563501287446716 9.263695919897087 9.371855250552231
S 12.130217460411531 9.055618324271244 9.867784238532662
S 11.713081505981954 17.827955455889835 10.432785700304722
S 6.595745081992244 15.666813085761515 10.302798185469237
S 6.587828082588887 12.127257606794599 12.672983756035036
S 10.135098382619502 12.78863324396235 10.627072147032692
S 14.507632894925832 15.275769682549146 13.726591228725052
S 10.324517027591618 6.20662027367794 7.825974118608167
S 11.074076166646211 5.983676102081804 9.595618069152893
S 15.908816214950132 8.403388786051906 11.296341134277723
S 9.756730574675169 9.145493183730984 12.329499615373498
S 8.89698875152854 7.287498292920134 12.223976322490232
S 7.666704160035082 13.077325821305333 14.295602914452218
S 15.013074303393598 6.737160655450743 10.896952491737554
S 11.769685846411132 9.054212110919382 12.027018718916969
S 13.727074306806383 15.704916628398754 12.010536905332781
S 12.499705099306352 17.413858524282546 12.154073334982417
S 6.09112821691274 10.365105445534805 13.298776372094208
S 10.487656262902446 13.124184017053476 12.582102152375082
S 8.90406666365104 14.32502756954568 13.300990459265767
S 10.554922391028068 4.859010924331699 13.701735892185079
S 14.433582834257166 11.256789004870562 13.12580004580075
S 15.76165429483636 9.891905190653917 15.38736737637371
S 16.190563984983154 11.576846536553173 14.16231260772308
S 9.233764232584232 6.303084397693586 14.051654939764571
S 10.881817343713672 12.185374887086894 16.59891157811619
S 12.546383178705694 5.772373566911719 14.236469034405578
S 9.666877011026704 10.721439789588086 16.207528192564915
S 13.015323268263266 11.451713389118488 14.585560760337591
S 12.233287651960467 7.588922927195181 14.770385381904573
S 14.109830535020157 10.591488711262016 16.29356466513709
S 10.086974051591016 8.969688457611209 16.864678671886477
