48
Energy = -190.19399689 eV
S 8.66597748436955 11.216593420716388 4.654025917240394
S 11.686707319266926 9.26898833819347 3.962693772797728
S 10.061082052560343 11.568026643113 6.069637993125075
S 12.802715871724672 7.427367759656702 4.429654826449756
S 14.335219595851518 5.1284169144809 6.880989073970268
S 7.580500886727938 9.575862112524163 5.420765126096803
S 11.940545778295569 10.863138282225039 5.1339590351796085
S 8.9458582916349 6.165836835330439 8.293715101653266
S 4.758028158420669 13.187102620311535 6.621180522740814
S 7.930770944302131 13.557098085663679 7.780043458587223
S 10.819024138868485 8.876138739675428 8.272104965958569
S 11.834595929787756 5.695632401258852 4.750779630071244
S 12.358632293828771 4.800079045046093 6.640148236881654
S 14.54845136636056 6.671962172505484 8.339817610227227
S 5.654892418645938 10.195289400542961 5.5088609841805845
S 12.957340385320045 13.888116221363017 8.762827350468301
S 6.605249336254239 14.438201075948289 6.708196689352155
S 15.20213438556804 5.773670675093451 10.027893362834815
S 11.320305712156573 14.268848468495252 9.81267905480178
S 5.2583991501686205 8.915608797037859 10.469929399463323
S 10.84760655460732 6.966257764010468 8.914890875077162
S 7.849136858097795 12.758505584710248 12.247854726783467
S 13.490620641641723 4.8304115803265875 11.05421571092136
S 8.129495251463315 10.305282269094743 9.592721016491314
S 5.242410172496049 11.357458047882366 7.2533193758603245
S 14.364613795784432 10.895692584364516 11.53520181724741
S 14.661880061150143 13.927569569732581 10.177596267184944
S 10.087921286475499 10.0059027806398 9.903557150733345
S 8.585898346689211 4.690957292345161 9.49167078060368
S 9.570410294583242 16.863739533000107 10.869691431367254
S 4.505685229547555 9.195574141305787 12.411842960919948
S 11.134015304598455 16.45620168259214 9.819335787298133
S 6.555795501999226 13.292684988748515 13.74617925647299
S 9.62593194757111 5.71221633140258 12.537773873102951
S 12.834319660676089 5.9089943129784475 12.515829508137221
S 7.24156042673811 8.522829909923669 10.447697336586225
S 14.036480456820748 13.047122317697795 11.83491988853846
S 12.72178356883536 9.422698006312928 14.081113945798581
S 14.62264742017785 10.16332494489209 13.372327841880173
S 9.359520500937 11.446611240865922 12.90778439008342
S 5.468345509651233 11.664002769384922 14.368462333474646
S 4.068758051044594 11.135561209976485 12.92666893941589
S 10.998350884590483 12.409446524630077 13.48584516131198
S 12.357109715879522 10.219103152631584 15.856902088064476
S 8.562896169213284 6.201570846383719 14.086926422289096
S 8.295278086882934 8.07777536026898 14.474211133546564
S 9.058353948956125 11.360731472548068 16.106188974524105
S 10.815744496514641 12.03879741590339 15.798370537940876
