48
Energy = -190.46511828 eV
S 7.920440206661961 5.173654429968539 3.8098319870222865
S 11.043050486467386 6.297875986735868 3.077498966535395
S 8.56658240426033 9.75989871836362 5.575220127549007
S 8.671358745810355 10.453753025630556 3.809248576067871
S 9.84917269154103 4.747717993788905 2.942982319117128
S 6.93713987050432 12.170926213594372 3.7802290272113614
S 8.258127555953983 4.625378224010591 7.079835234267966
S 12.445972223871028 5.633194349460182 4.906832423972015
S 2.8636910805682336 9.680969437676417 4.955007494262319
S 6.407897589970383 12.041428920952404 5.660018367664867
S 7.647631803879138 3.777721179171062 5.244793215345513
S 11.507654977115221 11.127684468015566 5.582288574247159
S 11.700424054536642 3.9916513537815272 5.51448109820343
S 10.817508402772411 11.611277467811052 3.824416506610972
S 10.928379015030504 -0.5041511168722193 6.975884002184361
S 11.524580980803567 12.903474979293259 6.843755335171811
S 7.580471262508548 13.478202602104508 6.71283921316018
S 6.216781817137386 14.839804699309713 7.419810499647565
S 2.458056074966776 5.224269802206423 5.921176032279842
S 2.1456998904145745 10.737420366859673 6.373264938414282
S 6.596651326403478 4.709246004387088 8.28188805840808
S 10.037813405140138 1.0613133800162746 7.659875610024738
S 11.162228051996168 6.331909451795961 7.967181203500358
S 11.784606830668952 7.344708015460174 6.371750181984025
S 3.587233691690892 8.028883380977241 7.639290225445506
S 9.546837971635002 12.367880912575156 9.473464442682758
S 4.477420854047538 13.333408306446298 9.923333481489736
S 2.0034919403360703 5.343689579238589 9.332408470419416
S 2.6285317747279975 9.588007536843833 8.325172596561986
S 10.257965236417148 1.0276095153612195 9.834249051823594
S 1.918192845908246 6.5169219909036755 7.2260016704589045
S 11.466700333869984 12.23023635043464 8.769016863152983
S 6.550184249380082 2.8685550099658386 9.245210214850934
S 3.2069056871661803 6.222028018013712 10.607907106905012
S 12.921954091294218 7.786173697451712 10.368762674024712
S 5.739738927744363 10.20610124931639 10.534977287779864
S 14.736207953610256 8.077437866351396 10.917455574827981
S 7.718668265380449 2.961016172280579 10.933069107039719
S 6.024936594457531 14.683502148297077 9.45643328975632
S 12.74851031524734 5.908380534472649 9.215300937155963
S 1.9976433550483115 7.6078380183095815 11.812332104096605
S 5.139343297863236 12.029202936428048 11.351146251757037
S 8.734595940733813 10.444883980241134 9.104004891854942
S 9.735654094726497 2.9084728298940976 10.366975771764723
S 3.2035456052149285 8.368735443245768 13.112837574190323
S 10.074073341975716 6.398332384920575 12.049808882500654
S 11.843023954512901 7.048491969108849 12.385174879475878
S 7.768676861037569 9.926838148409393 10.827515590140468
