48
Energy = -187.19681415 eV
S 9.654589772186798 9.911717300993768 4.846000074408612
S 9.530511661683272 13.565321311954943 5.960824807561445
S 13.377321449233458 9.588593951017943 6.442785669087423
S 8.64694069341367 8.61032527265275 5.838921557407306
S 15.20603297998304 10.597591000703815 6.409894590287494
S 5.311944226509404 9.787086145496994 8.48808371837359
S 13.805009366418199 7.620615040762375 6.4213677272732665
S 12.261499938263961 14.318672997646036 7.558193465863572
S 7.78220525263028 14.410201653870173 6.889843826300886
S 9.733627532776149 6.790779396129575 5.958467319146897
S 10.751986832055442 12.804955855791155 7.394352007901183
S 8.968471927882996 5.891166011191943 7.472030381129697
S 7.084860687883424 13.173944076860055 8.191299512722274
S 5.390523487590207 7.7391841874239935 8.572397916523313
S 12.595684762570587 10.218046163472858 9.897067722974436
S 16.079052787750786 10.580378144153324 8.22587090948725
S 13.7484411255538 6.938247400913452 8.496010605610296
S 9.861718362404648 14.2469806430282 11.348735422990679
S 11.834362809926933 15.706340822154125 8.85455461304213
S 9.942201859196167 6.147888818678533 11.656032022397197
S 9.671617846970234 7.929957714537184 10.7019974326758
S 15.495311180236833 6.939616108761777 9.290078589141569
S 5.984168500154912 10.46953363771135 10.614196913912089
S 15.529702867096491 12.502811921179235 9.138359904749247
S 12.130421168150894 6.1933833077233915 12.07728208026119
S 14.901723830514875 10.15180991175916 12.142973942585316
S 13.696282150113456 11.522700084226738 10.816271600971241
S 7.7250010741967525 13.45158197773957 11.358866477798601
S 17.00042026841005 13.266982168190847 10.151602506426277
S 4.664699474746986 7.097595866440208 10.292981471319743
S 10.129907876714805 15.564858266273578 12.763782855199977
S 13.181015835596632 14.04598315632221 13.236504323161883
S 10.096302592880619 9.430440602869469 12.026394684430317
S 4.972841813588296 10.102497335193503 12.34978251035643
S 6.706386315198323 14.196695224789796 12.887674502692487
S 6.934581970089483 6.633299992872477 13.555272719206913
S 16.425012626387222 10.908231958742363 12.995972685963839
S 8.425887237401694 9.63709476197425 13.451755331282447
S 14.638171281127267 14.059810874548084 14.516220511703334
S 13.30615571230026 10.912870697992515 14.31320072347153
S 12.360783884845324 6.614827492043622 13.969436628664292
S 10.099056947347478 12.576023847370742 14.278720442855324
S 6.072735355181705 12.659921700204238 14.161674226503985
S 11.092327161118343 14.209411957314579 14.427531064363242
S 8.959513964250057 8.786765612993308 15.154758330267681
S 14.85655784168879 11.740229317582067 15.051110464232611
S 4.344868215091585 11.920250642256846 13.183049376822531
S 8.00467703421717 6.799897207020343 15.142933370020392
