48
Energy = -187.01689813 eV
S 8.23827051214793 10.874812636948864 4.865608608282984
S 9.955789038793668 10.095303905542956 4.451987295327425
S 6.960820711707406 13.876966918670107 6.139597577883181
S 10.339619803822373 8.389017751796162 5.82375192967308
S 6.727898305798084 7.595360530412699 7.631999944882519
S 12.328645997871012 8.04229668275444 5.50523699392576
S 12.78623198799262 12.99141267945903 5.406409844027277
S 5.022704365100065 10.132825968208344 7.482631091509371
S 4.682064984815014 13.773180147623508 8.281625473298119
S 13.614945970124039 9.177634288203404 6.725751756081019
S 12.063893242516075 14.575795510483031 6.19445555489046
S 6.297735150345663 9.506013553068268 8.78039066044764
S 8.17952142694055 10.782522354115317 8.49199492637402
S 9.57021259747979 5.936865645238954 8.187196638824929
S 14.969158115737882 7.881124100637425 7.772281635829479
S 7.5555508436607735 6.056633592588604 8.631919952713604
S 10.972758212400437 8.834816301521224 9.302419621312168
S 14.906565855880919 12.888975587993766 9.386920123142858
S 7.697073546322799 14.787567215213087 7.6505271560965795
S 12.160092538749305 14.398681002622931 8.455572310263051
S 5.802436010266761 8.445318792085203 13.17712763713868
S 10.745563689866577 6.839289560701896 9.655345536291456
S 12.920020499794326 12.588143522240253 8.777813972028438
S 15.422235443123848 8.66250587356368 9.535035929723307
S 6.101659198094125 14.706545135112881 9.151122139881886
S 15.201473155230167 7.0170530262593696 11.252588026548418
S 14.952720396102778 12.903709311394518 11.483767062762446
S 6.009130853526041 10.267897611723608 12.566624156614102
S 14.184743602887753 5.535587080679779 10.597967824966576
S 16.159467589154175 11.396177453172093 12.122412768002084
S 8.718239918099018 11.386399625537468 10.275612664703594
S 9.98959957802049 14.912965294128615 12.331749085391287
S 6.952457283905965 7.150693135433196 11.832848173373467
S 7.706954962583737 5.589506145752034 12.896360090788017
S 11.249251179380117 13.428946589587357 12.372838189307078
S 11.588447651226094 10.347124999385919 12.195880665452883
S 6.707656822675099 13.463802290750532 13.386366550934895
S 14.180975885719288 8.35285890277256 12.918857486488982
S 8.301676024365586 14.394135985098053 13.92924334944392
S 10.119928631555533 9.627858577080655 11.194708334654404
S 9.712094395215875 5.892536084975365 13.393955544687051
S 15.572293136382578 9.63659779579581 13.418242951473104
S 9.512964409802649 12.92098301545685 14.926866469612893
S 9.838787428454493 6.221912551880287 15.419901333527616
S 11.602747343888522 13.567906919277462 14.784179717968225
S 12.61940861392388 12.228917983538015 15.708894142535337
S 10.25532082484317 8.319019784023125 15.759427411630119
S 8.693550604794293 9.449158920579269 15.617342030372358
