48
Energy = -186.62999923 eV
S 14.824076970748163 24.3117047782779 16.483184019329556
S 12.47367282960353 16.80993341950519 17.39304276959987
S 13.661074750488977 22.98627933032909 15.768444797699164
S 19.391310273654916 20.061539779289788 21.466806236287425
S 12.931502242055195 18.431685787799736 13.934040241651202
S 17.255032310911506 13.635735136456367 15.638136075979233
S 21.459953531777625 20.42886127634403 17.704927697546477
S 15.570309232160874 16.66883391250278 24.179913525437133
S 20.348787324576897 12.9416626188864 19.900641141258713
S 16.36831983485753 19.568433468094327 15.920606624931768
S 21.09304805200261 15.131243701058159 17.52297029624732
S 14.113318854282173 17.5412276455389 12.269036453119302
S 19.893771437793397 17.971212952720215 10.777769567283094
S 13.76849371881346 16.15874468597681 20.427058598302022
S 12.839058046908034 13.409710817102413 17.079608561828802
S 16.818260431123246 17.984870445406578 14.852598249527913
S 24.41897556734227 20.788879737803544 16.467426380650327
S 18.014612974839913 7.919931889921942 10.083975982320498
S 17.5273808546008 20.936236475328553 13.249184803351232
S 17.618625748945963 13.354718021103949 13.728960794421
S 11.690025195926733 19.66823395548917 12.893797868245075
S 17.494601609851195 19.085170436340476 12.783113962580643
S 16.554020273679335 7.417417334411893 11.230143505655057
S 11.279876541359464 12.90553801441493 18.388093358105596
S 19.82220901564282 13.93076739042353 18.338269573898934
S 20.796759050918872 19.558943244762123 10.109287479992185
S 18.009721339010607 18.59606110571844 18.657265225080874
S 22.96212790269089 21.860389869275046 17.0558682518996
S 17.506904665636235 19.863207605944044 21.768535799405022
S 15.222355541387714 13.534449354675015 23.519492590271373
S 16.59362027035082 14.857329373916704 23.502883894757918
S 13.337575273044756 18.53546702296435 10.674323160056144
S 12.307804160562833 15.086646774354147 16.09484231079954
S 10.307813505982486 18.526368333681734 11.946913075817605
S 15.271446168662486 10.021132861634882 15.796421313679614
S 16.541135771949474 18.86535104261429 19.988699871515802
S 17.974043201359287 20.104424433408468 17.207674326695113
S 11.527264075451926 17.713245774952455 10.259957719419408
S 16.532212789109945 11.698526510584317 16.26968353431464
S 12.022542639616486 13.328902964454977 20.25287452552789
S 11.924663733125557 15.429905518770854 20.49402519685854
S 16.559972704519968 5.66384949036183 12.025504272790988
S 16.348760116127497 11.668623026425143 13.255795116075316
S 19.479742800858702 18.070478954859716 12.813118806487214
S 15.658090973782192 9.73663664140625 13.888030743452498
S 14.228486849163753 16.762601883671728 18.304637018982394
S 13.77874370932702 16.090781872754825 24.47246137751086
S 22.26239601121961 18.728073325606797 17.392681578457957
