48
Energy = -189.17789232 eV
S 10.485329706757945 10.83226865149821 3.605908271771061
S 9.135212188008527 6.056678674375695 5.582553258259632
S 8.898991966577254 10.176733191587394 4.812756244104497
S 12.18709024518976 11.250634043695804 4.664661455710906
S 7.950896342595054 11.759533671375541 5.59044749409925
S 13.742654586985566 13.058402873508067 7.4957136804668085
S 5.749322885569085 9.697789760496011 6.961176991322048
S 13.325118677132576 9.526504688319655 4.88724065605314
S 7.687718724825906 6.945582181623388 6.497801793169701
S 10.041891314983161 10.352984101516801 7.835390142237284
S 10.7816541728896 5.744184329916385 6.543942697101823
S 10.256064701290898 15.860596879991927 9.608277652222602
S 8.710207488458265 11.720218408981943 7.715917878587986
S 15.509093464383835 14.054298447305657 7.716773156521005
S 13.121905490315276 8.850146236293089 6.825372317892789
S 6.520707331155799 10.468135922659751 8.540099958364987
S 14.547601606219644 9.827708275273054 7.971778525678985
S 13.66049388615392 11.46866648890726 8.84274824291487
S 7.215975520391105 4.651912986043962 11.00153752241838
S 11.94831925480952 6.332986630368787 10.326074008618091
S 8.550816722702104 5.944078163119135 10.338718668905628
S 11.438862408626786 14.798319205227523 10.697968199583908
S 7.3701027690672545 14.213045577208511 10.695003450226507
S 15.079354885265294 15.508316158071093 9.253643629780823
S 6.903536893489234 5.046683552710714 13.160801871999992
S 5.268317649622624 12.246236470310938 9.063112281202281
S 11.912676496990958 9.517558518100138 11.377328599593753
S 16.224769106078497 15.26150018991221 10.790417852636097
S 5.790058235527457 12.698571193277298 10.927954909500071
S 8.9323160703806 9.699077648936504 11.956464611836134
S 11.190481606547518 15.299462408236046 12.743936072112637
S 12.548414687082493 7.485150357620872 11.91639105028747
S 10.4776228255461 5.029504286915469 10.83502691257672
S 11.988363444467105 10.602459359055054 12.980473729969473
S 7.8624608627669215 14.77964481537368 12.474616818418136
S 7.087036297148183 11.566115880538112 16.166040367016752
S 7.010690751957772 7.01490005038524 13.351383898974865
S 15.550678160696274 11.620444121064464 14.462466420917927
S 15.446344750672147 9.753770748266417 15.173878794568745
S 9.190143609056632 7.311706176106935 13.619688776167138
S 12.379209232849618 14.240014449502498 13.825539877337865
S 9.557995741341152 10.579870873605978 13.518254120111736
S 7.793897691743268 13.35228439090905 16.020530249468912
S 9.527433972154281 8.551868853028806 15.05812027366554
S 15.44463968833236 12.735736833689614 16.24374592886613
S 9.707658935320115 13.593607516975009 16.13663464184399
S 13.50424836658902 11.977388055181361 16.530258055761088
S 13.866726132927951 10.01782525257213 16.736535538794268
