48
Energy = -191.19512068 eV
S 11.921887648102137 11.229813995426579 13.870245086124328
S 15.931333746075182 14.382174912177295 17.3821989210194
S 14.40399308260669 17.3318198362796 17.880649804443603
S 10.09799746277319 15.236517023928087 8.266719679301088
S 13.349894527552152 10.022983591431176 16.71086210097906
S 14.450589995091313 16.932349406809884 7.814096382226678
S 19.054577713328968 14.011887773136419 14.162065968248557
S 16.409104620777164 12.246245499888596 13.433270885973789
S 15.09478009036791 15.53712086268198 9.144802052223906
S 15.37101442027755 15.558765628098392 18.888817392703622
S 9.199140284331158 6.253756975256484 11.564574743372566
S 9.143550987244005 8.48573805706023 14.079825910222182
S 19.801503932467604 7.027661904445587 13.73766645966302
S 10.37807802568266 7.303707892382375 12.94660575337198
S 13.489027583237364 10.099523843267379 14.704995409109532
S 11.385772343102627 6.216672386558311 17.017534862311653
S 9.351673156465356 17.186713397607303 8.31183000539036
S 6.575179946072307 13.705696971914318 14.094685190128969
S 7.593900223046203 12.888723617131571 11.075068773080936
S 12.294288592937589 13.24347394372976 13.838660365292476
S 13.583447211367464 13.659512845822539 12.259059930542742
S 8.439166072478908 11.549845013190684 12.273288843714113
S 17.462424483554646 18.63235954921548 11.24689426471819
S 12.051640814283312 19.235144015271015 8.268878579857153
S 17.160583540431492 15.85937348427149 9.319590656462978
S 7.789736349101119 9.705491498114222 8.233012504411649
S 10.384546936502046 14.672110173845837 10.235247632213378
S 10.52612994369287 18.393027181957358 9.453204351324596
S 19.50194762633181 13.068762096859 12.559158444590501
S 7.607667740157281 8.616945210292098 9.813573626828935
S 12.742358829082974 6.532085378517141 18.34688501711738
S 14.45800401954673 16.93048472912828 15.943745592210183
S 16.389966753097536 17.37710288621252 15.172481990524409
S 19.346203685502157 8.863092578127803 13.935633333421297
S 13.876926165774375 18.648075084346182 8.92440497716359
S 9.88586302479531 7.785968839447228 17.251045648704103
S 16.349302273857433 19.241882396619857 14.323868157668564
S 15.011090510433158 11.224479847368599 17.743670617851134
S 8.633816206079558 14.713736061665472 11.28865843173053
S 15.401534783738086 14.077512354758777 13.097210647280443
S 14.579813420321127 11.057237454865565 19.604139045531905
S 17.647452881945455 11.890825889675499 11.925803882878634
S 14.370002338844486 13.14958780250331 16.811958246690885
S 8.562752574695637 7.398556176555908 15.773498698769377
S 9.289509927115228 7.229079381323033 9.797163367265703
S 7.604723406999424 12.106867998621942 14.312376842290103
S 15.764259810525893 19.050227299504982 12.339993919059769
S 17.632213826796907 16.555921197943903 11.186147106788242
