49
Energy = -194.48229534 eV
S 4.250505703138791 15.509203940434446 6.456076075273854
S 4.4918389005715085 11.151968184188247 8.488072977725492
S 5.359552329759371 12.057069441491851 11.572908631396118
S 5.725000184108833 10.711039543177504 10.159636338258743
S 2.984841326935671 9.779150899801063 8.337119242956383
S 3.508823891098383 8.579519345700596 5.275403785809226
S 7.457669138973533 10.710772441391615 6.272996812078956
S 4.470771817365012 15.029289170224052 4.446567978476182
S 4.482317161901078 13.51876870142335 5.877728488619833
S 9.863192892378025 14.454023472598106 7.568855466770849
S 3.5180873765972236 9.298691895554478 12.266451541101313
S 8.366658949892505 13.864881884556544 6.311901581530444
S 3.849005545382202 11.06276932325556 12.931242446306888
S 5.962995280188871 5.0879837046861125 11.345087481333234
S 11.678175216701867 12.516745274985176 2.60985986730926
S 6.302075428973169 6.598800341669634 9.580770436310422
S 7.850303636779955 5.040257979654495 5.697708514357121
S 7.10544077140052 6.257981577334903 13.17271452911338
S 9.54975300257909 11.226041782011693 12.59050750069642
S 11.313278163530303 8.875983599185192 14.467388624709594
S 5.9575969042220684 10.812019559338195 4.737097830925451
S 5.394991100089097 8.867781751500718 4.460910315510206
S 3.6656763573192817 8.121793342307955 7.287779787003602
S 12.904929297624111 13.24313643263487 5.34737410167295
S 9.810292680442087 5.646773987338644 5.076844070725984
S 9.547107139999676 13.756282663341716 9.491363852875814
S 7.169828586592286 3.6485466875082526 11.037036713657201
S 7.969187962393217 4.403450591583334 7.608769717653669
S 11.333971526408229 10.74717076451651 14.106762748044885
S 10.338294053978487 5.870492303904878 12.380546754346508
S 8.615274844150214 5.038485183168929 13.404161173946429
S 8.092672401624462 6.0544712635226645 8.961833222184334
S 12.083110265960201 10.823790196680148 3.3824259900597338
S 8.863964486135156 11.958384746176426 5.539983476576186
S 9.455734499756886 9.78060384971114 11.307724614606009
S 11.085213452616646 4.189509631158979 5.599940938894524
S 12.96124143949907 11.339106900043166 5.3237887388150575
S 10.532000750115706 10.498304706438233 9.43716951377979
S 12.325775410079315 2.136145380501176 8.66324717197063
S 11.082256197281334 12.356536637461412 9.850198749958055
S 13.210704038309668 11.163029263332653 12.766956895294443
S 10.817716954216943 4.615400720378907 10.87302625453054
S 12.277288715772874 3.1980740955606715 11.578934003511739
S 11.688267673872307 4.916212335709766 7.576592118113275
S 13.614079594271567 5.116841888151226 7.671439585275924
S 14.053887166385396 2.9140845610457244 8.780326966140786
S 13.41431734979648 8.007462916552253 11.757884251811001
S 14.159293864402665 9.38545860355339 12.94109126456077
S 14.060795783339476 3.799595260915985 11.047489133960472
