49
Energy = -195.73168036 eV
S 9.708039922744508 10.818022032684382 5.512791931780301
S 12.007548464344865 8.783222952896253 3.711394116216255
S 12.583545980307818 7.088473358430654 4.427416474508961
S 16.872360260515464 12.609380590211364 7.548752181699275
S 10.740127857896336 13.910342209303934 6.129705407681964
S 8.089658371911016 10.387736971538114 6.697219804616365
S 15.725316332504342 10.838803880629824 7.418150087391362
S 9.891949221700656 6.352003705917382 6.69254160910233
S 8.845509874686478 14.76104852021784 6.97404726016259
S 6.9143342121326095 12.06604278149785 6.754509404284952
S 10.83904885246428 5.34757312999775 8.04126026161949
S 10.905978078838105 12.054535839206638 6.785267281044316
S 16.99315034037881 9.354784793863564 8.001535241521434
S 14.235630220352181 7.028560937998449 5.421772832351149
S 16.83034618283639 13.496262242158586 9.358110355214253
S 7.996340449472655 13.358204554968653 8.075635676374844
S 13.181604666534689 10.858015120927208 10.766751191798287
S 15.321745044726475 15.034114733278141 9.180636705231828
S 9.854483071480258 10.792611866009953 10.780490093631306
S 11.663433537914987 6.745827346840692 9.492309275134975
S 7.2857299320043145 6.868972406871191 9.900700036316662
S 5.904738175104276 8.658330643129208 9.912624916415398
S 13.17771133723295 5.660160856630354 10.27246947034219
S 14.828243938712617 5.861557171724534 8.980722551997088
S 16.385386049609828 8.814834453800065 9.956253838081256
S 5.552462296929878 13.231215407928842 13.39835755496406
S 9.020017204149886 11.729826049913843 12.429523167380392
S 8.999628421663349 15.078022757286965 11.830927768220542
S 11.515128180940627 9.740716091083591 11.381580529719766
S 14.351232294394066 11.408189228427405 12.322776086758521
S 16.390516875558017 6.767583702027609 9.97326653500555
S 4.796209487458088 8.576547816468771 11.474481933484038
S 14.883200246188373 15.592568528021387 11.060284392699476
S 8.17365685712583 6.498965223280556 13.085687859505049
S 5.8217763663170805 15.209457898056872 12.90076583547322
S 6.857607292591583 5.919476807280294 11.609014144261554
S 5.011076994699384 13.04916103748185 15.39777830271649
S 7.099242535765447 7.9802196972535615 14.248335649543566
S 11.973141172551601 9.368789468033508 16.164869580948995
S 10.011701793821938 13.51846160941263 12.729704839550301
S 13.66196817175944 13.223804023839106 13.182924443208726
S 7.7511833796181735 15.837766734819713 13.290541173853892
S 13.169704357010813 14.520992796451795 11.710567435322611
S 6.475500274343534 12.012270185907903 16.414745596238387
S 10.64963288877284 10.706116039925838 15.747263982955738
S 7.817153226794954 7.893880175618239 16.038075196927622
S 9.445776531389354 13.64589985209726 16.610354197527435
S 10.786695180721255 12.270874844124053 17.25903181183461
S 7.623858208006381 13.289801539503856 17.56610459236026
