49
Energy = -193.77139668 eV
S 7.815302294779118 10.989329677766461 5.962250751649385
S 11.773294389386578 13.480817254748953 4.6916222484578185
S 7.012843512128708 12.265991151636808 4.334662462063883
S 9.64154983404679 10.574157263692936 5.35903203337383
S 13.299082646705946 12.430994756073048 5.231716752610177
S 4.791827129010836 9.445025260308407 8.417896299394252
S 13.514092896761687 12.682339863513423 7.385033512665804
S 12.921445629505296 6.132371657260378 6.26608914768692
S 9.452004765241359 8.504674608931955 4.406513912577382
S 6.357560688742628 13.908436464164094 5.099021832809882
S 7.639831258232844 7.9271577540589195 4.625977787480201
S 8.942655570307936 15.016678484390194 8.637730465574531
S 13.098214381508834 8.137630145693933 6.245317477554285
S 9.114706041375165 10.334231166924527 9.857252632441025
S 5.589535296775723 7.4538632771595905 9.300512887762281
S 3.803911734130651 10.28964893680719 9.880869571223018
S 15.2797752186261 11.780219082513243 7.779667544461601
S 12.184092507689805 5.270849673519921 8.126783047508066
S 10.763383545774316 11.568284706096128 10.126286737042657
S 9.685521494840296 8.79116275549134 8.664157286677415
S 15.078741141131855 8.594467680792055 6.841095886572577
S 10.2603384629688 5.518519532420325 8.29394280111348
S 11.090488399708654 17.40891936604551 9.490045200954903
S 10.839099272961501 15.482386821463066 9.348734728668559
S 7.712138355809408 15.049133826276748 10.433402461482908
S 14.957655917953364 9.823517983391678 8.463807897755554
S 12.393209040001414 7.387032045535138 10.16882872188354
S 7.29633612113263 4.748461826616833 11.943392985965426
S 16.26044650138073 12.527951403798703 11.51092572508801
S 4.957617159057547 7.450151656010518 11.153792025505375
S 4.681053335047525 11.390357894697681 12.888874251903452
S 11.705141001640039 10.842027388413722 11.832458581272327
S 8.223444395446872 16.450320173700266 11.64985715693148
S 10.482860114091562 7.298224774345173 10.071401552021213
S 9.672887943609421 12.044502150554985 14.357464928991241
S 13.173140512060073 8.407540387629876 14.607771332373455
S 5.316295492452472 11.417543915315902 11.038502256961271
S 14.968240043940423 8.44772666742174 15.622555328784708
S 16.711577582173813 11.024825658898482 14.440020747058306
S 7.941755634555188 5.589891382224298 13.555351894403989
S 11.507759305145767 12.163620601716481 13.385658725978951
S 6.4751699190329255 8.585178887615282 12.285057395688776
S 15.2922576728051 11.959114560573383 13.07828552259552
S 15.530264232669468 10.426020410054024 15.973444117968302
S 10.718040484129228 9.752821079514693 16.603008445931856
S 11.644742472676745 8.036790281202068 15.957314301880688
S 7.1139103542140445 5.108841049281124 15.228356197502407
S 5.49493744422005 9.407954968103875 13.769357030955527
S 9.317939183821736 10.17041001704385 15.107015736201548
