49
Energy = -194.95067936 eV
S 10.3478543209289 8.265647052869886 3.688678770485212
S 11.706272800378786 14.059059483300906 5.360998856029003
S 11.449621087748087 12.41482950849821 4.339569933360785
S 8.509062905612117 8.792951271629049 6.464053465292661
S 9.211431427487547 11.883258390533856 5.271312991950973
S 8.816708497462706 7.521076702710854 4.558975234191376
S 14.188842711618102 7.711442757588036 8.73677334858221
S 14.63943630430649 13.54795579603366 6.852055450489444
S 8.990973450935583 13.335318827880961 6.492606452713399
S 11.945134167325547 6.732717000138994 8.370815230281071
S 12.639047287797771 13.570186805192758 7.235352028321027
S 13.61440804035801 10.055825766415856 8.176017545051202
S 13.698317088408213 4.259818048709839 11.586956622119228
S 10.014080771559785 10.031864950833025 6.375706581978245
S 14.235464447959059 7.806289818396142 10.627930507780427
S 7.416426575114809 6.091500457119239 11.256967034289517
S 5.408685698838167 12.331302829318888 10.31372437398897
S 15.415660970213182 15.437034117907 7.342601831672205
S 10.344674732975408 13.761604516839533 10.631923928252842
S 5.6579692518431335 10.293784222998088 10.435925206810282
S 11.413969749310008 10.589423219876924 10.627829865897409
S 11.249236969684675 15.495137409090212 11.339494275227912
S 11.878610135578628 4.50952459921807 11.076030869596472
S 11.401655929456517 6.672595671212487 10.228249460583223
S 13.522865500371314 10.715388459481222 9.999984766464303
S 16.69716520444202 15.190487326208645 8.915995439825656
S 10.67043629364863 5.120035985521794 12.986930241724645
S 5.440538926321192 13.25062229068089 12.165070587336933
S 6.853872635480593 7.0896096495284775 12.81765720835511
S 3.8667044431600677 9.407573567694033 10.967229858926773
S 11.046627048223165 12.134774612190101 11.828227625278956
S 13.017170587712247 15.112107712950305 13.988392745412446
S 16.73544271376015 11.40180254222025 13.395827934128027
S 12.781372968580765 7.26473029768222 14.29347764869147
S 7.46579322563723 11.976538439824385 14.425743758660445
S 15.713342350044993 15.499827669376101 10.746485623246679
S 7.403282810451386 13.299571889988636 12.815740619580794
S 17.061717223172423 13.127979784057123 12.602850515484489
S 12.148807813154013 5.335496281075806 14.309416992271634
S 4.707384016960117 6.94696113860312 13.018620555506612
S 15.251045180228667 13.696053103716936 11.53610169790122
S 4.067647941596813 8.880876255307669 12.969772760157802
S 10.086944481770427 16.278849485308335 12.749185907296859
S 11.179202951105085 8.325773573066293 15.44483003569952
S 9.745274314160454 7.11637869012633 15.84060105098504
S 10.58829910959746 13.554754940607017 15.333564672547766
S 7.263248779318955 13.122257494517653 16.078205276743443
S 11.318535249965961 15.663627238517135 14.691434798596548
S 9.29854953354091 13.442588972743563 16.81291843953777
