49
Energy = -195.17731191 eV
S 8.658770392298885 13.295709408825525 3.680225939469002
S 6.8151812081863445 7.200234452775486 7.6012006928595195
S 10.294864195298588 12.42740448677805 4.83180629836833
S 8.576280749520528 15.156263919997409 4.477108481771736
S 10.785942349833322 10.752610856147292 4.012989823434107
S 7.032278760741408 15.2394629415685 5.894294696867021
S 8.565455128043801 8.173051789782921 7.274004707676687
S 8.166502525086887 10.24893276480801 7.4367482013615565
S 6.302980167341633 7.064801528572918 9.631571619764005
S 11.623059951887054 16.33642661747575 7.3688761003781105
S 10.367043011513887 4.085228711393488 6.467147886535372
S 10.35405993352736 17.54007374805876 6.592972276504117
S 7.601938947331188 14.348193313755681 7.631009465478562
S 14.188311459043488 10.47228896901289 7.308695719442388
S 14.172462438452003 12.018871361930266 8.458203090790612
S 8.637583723953181 3.6966615251845742 7.230191331256424
S 9.736025705885517 11.047398663422825 8.452533930628011
S 7.632580689550572 5.926225014471448 10.683745970393836
S 4.181105710248294 9.292982904011396 12.006599196649073
S 10.556097005320701 15.11939417118882 8.950678108204537
S 8.667171873771295 15.725964221419193 8.855483636627184
S 15.10049752123029 8.89221100221579 7.9211775678714
S 8.929252977063669 3.2093781121933174 9.329668793981318
S 13.887354721610922 4.798107617820389 13.784924136032554
S 13.977595781512663 15.433423306044242 10.719670973590322
S 12.180527524232776 4.552214417080759 14.95852181052218
S 13.941644263856753 6.649770635592142 12.922518050067929
S 15.645991133505289 16.314252562179036 11.083812475508346
S 7.276250452944453 3.893061330691648 10.270304016224117
S 15.409581672045023 13.388762794182915 12.746820726705812
S 9.399011856220202 11.073883532927983 10.510618728545591
S 10.531609133202362 4.800716998295314 13.740083733421072
S 10.382541188782504 9.43519291762635 11.290690043176186
S 16.700616064463613 14.806324204256812 12.603492531294224
S 12.391076793441657 9.901440360079455 11.476053492325164
S 5.350593548959923 10.77263910735377 12.327420996384308
S 14.592349238745411 8.106573217981152 14.280512662950821
S 12.576314733250602 16.234986058540105 12.482588984054237
S 7.895752377826479 11.771701784351718 14.381382178073382
S 9.92527034626685 6.738314324037868 14.132892650347834
S 13.77356680350317 17.3766505764179 13.464569432884849
S 7.268437284041875 10.120060817259873 13.625941904147897
S 13.989898711141 14.176535688588096 14.50513435395079
S 8.513726948881539 6.627337941810552 15.641121397292963
S 6.671299561202778 7.004033539916267 14.726864499833688
S 12.794931244047824 10.737084202117877 13.31711468031313
S 12.907331016159898 9.194101715093575 14.70822276879645
S 14.813249849307727 15.845518395214288 14.978442980475048
S 6.1974876516961155 8.916997795529143 15.162802582746782
