5
Energy = -19.02465332 eV
S 9.204772255055891 10.27654201741886 10.848473432741224
S 9.141591279336605 9.545723254565429 8.879483154573931
S 7.778227514167389 8.20596158998328 8.626633733554826
S 11.275962169183433 9.891661293056714 11.072113919859943
S 12.2421415845271 11.408911390077362 11.758648790842347
