5
Energy = -17.89989994 eV
S 9.63336248368648 10.817639594560411 9.592754605555385
S 8.374438307437686 9.955841362349673 8.188544660240199
S 7.623009681056937 10.535091914018315 10.033126178871623
S 8.10583771106662 6.42502201648205 8.187955069235395
S 9.648729485931964 5.651722303752065 7.382960514425004
