5
Energy = -17.92430783 eV
S 9.591773513606952 8.305121372036306 9.765705859618695
S 9.552412124327281 10.14509339935809 9.275897743825732
S 8.071939872892814 6.9448251458726045 6.706032979408459
S 6.616421407586431 8.065861471946963 7.668647331476276
S 6.065416942733122 6.458107834633771 6.474481714748825
