5
Energy = -17.40265024 eV
S 8.720443653871742 6.570560797825366 8.546093583266021
S 6.6248818792775515 6.150805506911181 8.379960494582207
S 7.476595023253285 7.794794191875885 7.300437309614144
S 7.043099059383168 9.512139707384225 8.016388747851908
S 7.721995542821723 7.524541463435424 5.427142893430369
