5
Energy = -18.34393343 eV
S 9.686147490618913 9.63345123090888 7.504973473155904
S 6.881965258782164 6.743227996254453 10.65819698018419
S 5.545326012786761 7.997221977790104 10.149142358794293
S 10.702406163844962 9.067030158221646 5.972066295389948
S 10.618988269914427 9.993901832772012 9.150454088423018
