50
Energy = -198.32069252 eV
S 7.305205442255934 10.403680617333745 4.0605697151698275
S 14.285935453600281 11.098602998766559 11.640625572933745
S 5.48766796849404 11.421396623465288 13.683452068534635
S 11.076233459438692 13.415276437745138 15.214006755320698
S 9.177568722005216 13.069066039358841 15.207387331694076
S 7.831545374130173 6.159539543714699 15.80003801694143
S 7.991565371285022 4.3621390687960355 14.738814325299419
S 8.422647767728753 9.930234180523902 5.914801640384685
S 9.350856501296214 8.057134227659052 9.94640416702023
S 11.269536226062485 9.668790631359192 4.310465984999171
S 8.501237908436048 14.482981881570574 9.235218654622313
S 6.607160988836059 12.977058635690879 13.140018803789287
S 7.072454060168886 14.541863806105845 7.763827652696603
S 8.471152581055659 3.7893228201824094 10.473996394817052
S 12.78476529759263 12.3593328228811 5.300743338273417
S 8.744074522346198 8.001691630403682 5.844601500550711
S 10.05697617178497 6.29882756120018 8.776557202696184
S 11.176401002589582 13.675123334455765 5.612642090363073
S 16.238878168669757 9.505020196251605 11.492219134983516
S 9.646665998623721 7.096090358751957 15.872766872413955
S 11.396083610259897 14.44094665349957 7.507611407480058
S 10.787499202432342 7.834881659064328 4.7461193895428435
S 4.9511617374300245 12.442209761829513 9.331831973336554
S 10.14555758308044 13.33201681690763 8.739475580069657
S 10.163602072416854 9.680765315699567 9.281102294746052
S 6.622626491978294 4.407247825164879 13.202207617364579
S 6.370120605425467 11.145999966831214 10.421586450110228
S 7.1305144254460675 12.321611205094644 3.9773492084161335
S 7.3953384460063765 5.276788417280844 11.506304734512574
S 4.328302508689531 8.6009086858723 5.4509403446047875
S 14.30043919600752 6.799180908755323 7.781624129732682
S 13.056691182661758 8.333465408387609 13.534324439458807
S 6.038106928212754 12.716966048461641 7.657507320749611
S 11.102235248924151 7.8543532631626745 12.921448466971698
S 11.417256019340634 5.333030617447237 9.826825736231887
S 12.374241276341605 10.521337702765251 6.010804901600523
S 14.99796859809495 14.676389463292134 10.581436551930864
S 4.902680863543953 7.852857713886304 7.425360495898201
S 13.298659909716637 10.329089242343587 13.489137073423306
S 9.812109798494411 8.531056331928855 14.36131752267722
S 5.0139635712494 5.968489393468505 7.176959472395617
S 13.389437631324022 15.741489977112808 10.673960172052087
S 5.394487769851765 10.153744584221725 11.78359901402693
S 8.620901217344814 12.506571174553875 13.195931131052134
S 15.897938297393939 8.992886615282558 9.65932455953767
S 4.200921967945973 7.0213512258322375 4.392610229070027
S 10.349439110229206 3.8348816696874306 11.12342066513816
S 14.693661028597464 7.122062707160514 9.640423196844987
S 13.448930130985358 10.705621356913099 9.960722122787478
S 15.297638556397661 13.605687257224833 9.006546894452255
