50
Energy = -196.90725487 eV
S 18.443869153431574 12.408040969015559 15.39588815678311
S 15.728427930349977 11.07302909497125 17.318324285134818
S 16.19364292062461 12.937691072061272 15.958172101127543
S 14.32379581235533 15.219561084008182 11.562806416530531
S 14.340949272410976 15.749594460517423 13.636387236095322
S 16.283397953751443 14.421740410841004 17.17060626563631
S 15.293509004926312 13.538232604585485 11.206655612781152
S 13.130123295670119 16.163928200134748 6.607439123616992
S 11.559217366986536 15.97007624469251 9.49592092690885
S 9.553632255493634 12.404941517839184 7.518192941857134
S 10.590533172414125 15.940764442084317 7.842242196286299
S 11.571886448028627 17.99423866087047 10.360991188435356
S 11.728937896920451 17.776746407691725 13.729995393210235
S 12.386636499966007 15.857279861180599 14.19502403689208
S 8.859366234241932 13.969536723129783 14.971517039478218
S 10.486424020438408 17.739817579149232 12.067410272552133
S 7.517888598822658 13.813505233559656 11.888684598268842
S 8.838804892459923 15.217334915451543 16.449494632698038
S 10.74092723557335 12.433348552280322 17.158323051314202
S 11.728078476268736 10.632279072050697 16.822116626000202
S 12.813000192090103 12.4172154843061 16.94593610112314
S 6.807005504606049 9.596859405314886 14.086729423219335
S 7.319299795519488 14.75313595954073 13.583004668310755
S 5.210516507836627 12.432335151668063 13.984048711060645
S 5.7363880905511895 12.157261393637228 12.180963887359479
S 14.550572652201287 8.761200798297303 11.373313782677842
S 12.156339136286705 12.613621742633132 12.295359310462283
S 15.639861382401593 6.681345290029494 7.852935499168149
S 13.848090470725007 7.30208177066359 6.752217290237049
S 6.921256500225557 10.058427241551831 12.193741535057264
S 8.7233896095064 9.329904430288906 8.35619306963382
S 13.908740464897942 16.409719958136137 8.358814401990134
S 14.146204299967213 9.158594759742453 6.4378009948005355
S 13.533276901039276 11.942326291858357 11.154418679905975
S 11.25576976608462 11.81892334496426 6.557162353271294
S 13.010220490130331 12.757816008441196 7.2652497215611875
S 9.691892888567788 6.585253378963402 9.86674369576246
S 9.411360399648375 7.1582952513669404 11.845086960207805
S 10.892378486083 6.446672801999046 13.08610126364039
S 9.215210709300822 11.158886151672723 9.157628039221345
S 15.117259306181836 10.609162453449878 12.008356433774123
S 16.65896100513998 8.284729323042523 7.984713724323834
S 13.574045631114247 14.131348869484528 5.899361712335073
S 18.536194766583513 11.434830142162598 13.747717971858263
S 8.794514465455531 10.052859759888383 14.943307521135399
S 8.863206214447464 9.120716634435265 16.63812087255914
S 10.396999060949398 8.120307613547947 8.699105011657304
S 12.130626368479808 7.988451368857935 13.72101619571831
S 14.047515938375854 7.647072763442521 13.05964345037606
S 15.46040485034123 9.479506758750658 16.279565320111097
