50
Energy = -199.05331697 eV
S 4.641242493355067 8.389547563726012 3.737884612056409
S 7.343408023569242 4.022098537313464 10.879508074505663
S 3.209829837067272 10.84255129787654 5.085631786000475
S 13.701963721679515 7.241927649934769 4.14908963167902
S 6.214590945469981 13.831963122056868 5.007103353069148
S 12.96817057872847 5.145537062518703 8.367884358017712
S 7.5237315263610975 10.02348289068719 6.172901250249824
S 11.941003996845007 3.0864665741796506 5.865175388630536
S 5.047300535123438 9.506217228584388 11.86661875762913
S 9.89814488230496 3.166061135128958 6.156229755367636
S 11.9590066310543 14.001198598659618 9.006277604745748
S 12.576689354897338 8.66187936936629 11.89652247457433
S 5.226573649886473 8.004407739531525 14.765328312202787
S 7.524266399850107 5.614680298948237 9.533312012016628
S 3.0943762171705695 7.551401435199965 4.873723160131528
S 12.446632423559679 5.868713113419627 3.29179207422799
S 10.330448813199006 9.770278681201114 8.109140404556486
S 5.663201802129116 6.9769122284848395 2.897417699452602
S 7.016697852718279 4.675566422284242 12.738690829739129
S 2.246553325932613 9.28068682153128 5.7043363713080035
S 12.95079238808618 3.2004686014923247 7.6633515998667425
S 12.831213161225948 12.050725653781036 9.034239246957794
S 3.851314974286396 3.3510026682822605 6.445791190395779
S 3.99618654633652 8.134397440036876 10.718820158916602
S 8.32672484058552 10.458818743497291 7.99116889617603
S 13.740579601679832 11.677660612776974 10.78652497220954
S 10.251874142390655 13.914906941847429 7.908857836789566
S 12.595605945040575 10.585794966400115 12.268934007510936
S 2.6055220374578703 3.7364039600654095 7.864004291313547
S 8.194281079051319 13.247789976781142 5.176931120395409
S 5.08397560592148 7.903014838414063 8.953462803047733
S 10.423879658206035 7.956766187891906 8.868066771515396
S 13.354254762335424 7.587790753362878 6.16102562292994
S 8.530500985269834 14.640680361673612 9.010305005115422
S 9.19353737336764 5.385918874099958 3.8295480991079915
S 5.616244279182546 12.921665428437995 8.17808560951605
S 6.127394752104378 6.567275802517452 15.690552353045224
S 8.337454253990082 11.26011445530563 4.696128740176871
S 6.416834936708467 8.584687662769872 13.050744247279868
S 10.546010782615664 6.794840143816043 3.271196503128417
S 9.255930703441571 5.10916332731611 5.908754247577711
S 5.449312708541131 2.3614880896316914 6.879347638857508
S 7.165059111927534 13.361143675995349 9.686909415721317
S 5.5898839847630954 14.477589875412324 6.902511069762507
S 4.785993864789243 4.340867997976604 12.984372677651637
S 4.110068352937897 3.5865087223845555 11.361813605672454
S 5.660433136428152 5.960634817248718 8.671823518248384
S 9.692804839081917 10.30264456731986 11.237020761134316
S 14.388416845729616 6.294080315499509 7.412597982936926
S 10.257523575405576 8.487019007122623 11.185984336671458
