50
Energy = -196.46852434 eV
S 13.660472911979822 6.580129182416044 5.984500619787879
S 12.846957534558435 11.38762563143551 3.2601402357431746
S 9.009665408936268 5.643832143361985 3.7648359429209592
S 14.751627821611946 7.403507796294304 8.812426399663007
S 12.919524799520653 5.209069425919381 7.096067125569713
S 11.232676716228317 10.420159819560919 2.8344848110251997
S 7.236088871192991 5.413315443793414 4.449502723377483
S 10.675580592519323 9.110640313530686 4.490572714616636
S 12.576382456579253 10.28856059109543 8.492170332835867
S 10.67321492250019 5.529931206505199 7.074500036605415
S 13.697803087520422 5.800849534604397 9.327617250586039
S 9.890417715042814 4.002970385106231 7.998360475857424
S 7.268227236293273 14.50199920845954 4.6789003890728464
S 7.427254618803145 8.675931562789446 3.6231454104220426
S 13.492364502977791 12.161435329282424 9.819999829257391
S 10.965679197308825 3.7454222145735314 11.394551092420285
S 3.553763996057499 4.2613492991198845 6.572531265758652
S 8.79357289840035 9.697790567981487 4.908568954843298
S 14.07679624978359 9.133871197461682 9.704281790039717
S 10.820169272820127 10.09549187434725 9.228092104728137
S 5.559703120187773 3.7651239510016037 7.099571736999539
S 5.7890907823586035 14.120816542683121 5.940107166470053
S 9.164721726655523 13.779044761275212 5.69257674577901
S 6.304765539978942 7.4505058868036365 4.713253548744073
S 12.05865428856641 12.31544019181552 11.150509844113232
S 11.037914235079857 6.946018564940035 13.621890119447642
S 4.862737086611381 12.266643344217314 5.4820192523906
S 8.55695730640421 12.917169596856665 7.346965654635593
S 11.288951473943667 9.31951498730077 13.589604891783246
S 5.520513925831858 10.838367270254743 6.825830855305332
S 10.969857668152688 14.131096360636816 10.95228632506471
S 10.057671489054748 6.723936040722694 10.135586236810262
S 8.351971134165609 14.4820729859645 8.836887767192218
S 9.586563538077948 4.604935882280585 10.36860538189073
S 3.3107656462040453 6.297501776386064 7.081329443267536
S 5.891442701888494 3.885795976656808 9.0040860102361
S 8.248477316744797 9.983859695111033 12.117024325749975
S 9.754874881755043 6.6767450731403235 15.006575405016504
S 5.175770073680083 12.113381315786173 9.86442511429264
S 8.180124925145352 7.542370956792972 9.933686741236015
S 8.06760379789373 10.365192248434015 14.018091570016285
S 8.967997692087659 13.705763701440038 10.598321312494067
S 10.094271127991558 9.815799705613557 15.019760635862257
S 4.259735112060959 10.768330748669271 8.412196697806907
S 7.423207374245782 7.974232529992426 11.760040364933598
S 6.12685908974971 4.636237945275108 13.17636633317182
S 2.8885087712161064 6.551230161894951 8.957331220985584
S 4.404627054667079 5.128576004309966 12.46515337665294
S 4.251426276620421 11.851301276731997 11.535655402758096
S 3.694416569566537 6.860859119802681 12.917380390600757
