51
Energy = -201.18011281 eV
S 5.518333842271153 5.6131803017340625 1.4577595021090661
S 9.939526749032085 6.224488433392716 2.53075860256132
S 9.371541159713667 8.277789439803556 3.210179433927847
S 3.920928478798183 6.130298406324249 2.350728698723924
S 11.854348508476203 6.162002069632112 2.4336681251130425
S 4.424228154856975 8.46797706383587 2.9544804748263434
S 3.3531370654860235 11.335669649905855 5.601344520651026
S 8.081200467089394 3.5851345086951127 4.357139263950486
S 7.528130025987223 8.09856658841106 3.920424834507245
S 6.2081806761761955 8.527082069161406 2.2020508426007317
S 11.273373720874867 4.252901308502886 5.079218716950715
S 8.7704466091118 11.928952325059498 3.243634566764621
S 12.133581283697414 5.525062925323839 6.456080193442775
S 4.062258395084774 5.371342511313219 4.727866972646999
S 4.759042465620358 11.252355652884718 6.907294258664276
S 11.605094488476404 11.25255882998286 4.818414504472203
S 13.257112913402132 10.394978341067514 7.652546205916832
S 9.277645809476283 5.014251702138567 4.848133691990016
S 2.05681496551082 6.382858824635135 4.944906025268502
S 2.238554543164137 7.191431628011437 6.784043757331506
S 9.321232214158274 11.350076385711006 4.993878620109789
S 4.024908734194746 3.461934699635167 4.788660433853213
S 12.299819317763049 9.700349490714164 5.856786529102008
S 5.8455260308291255 13.122685373899634 6.944344383930769
S 7.46550767312932 1.246340040209635 6.529426598940937
S 9.123131127135217 13.102703090214238 6.410545553250695
S 5.909738648236027 1.0493183659247876 7.621210832292565
S 7.6945067662016 12.612363435369838 7.745791297215611
S 3.696909240040442 3.8888796297762096 9.023902065855275
S 8.251923023865778 9.235950300244745 9.954569729883891
S 4.462858738477226 8.397606766580626 9.971060936033766
S 1.910815922377989 4.072966902271932 8.040907563008219
S 11.862921266462445 4.7290149440199745 8.302399812164913
S 3.778138495225544 11.803385721744434 9.273895481041189
S 1.1651474810530438 5.984751887581437 8.13050169517045
S 8.343571258538725 1.5947771995511855 9.701944776901364
S 10.009296624161749 5.667239992721789 8.927127736581276
S 12.349619172719336 9.640568579879583 9.264900389490435
S 10.870015919582022 11.1698718139274 9.832781676344142
S 5.295572549870461 12.381123797264873 10.295227064815387
S 9.217983748197728 1.7848841703421992 7.9291861219652775
S 9.699256858507866 10.313737262258593 11.175347228532065
S 3.030878633408386 9.768000561387234 9.900491515686541
S 3.1625578060765833 3.522460677933308 11.078807853753045
S 7.516630794255076 3.401838306965336 10.305707892347948
S 3.9981709967818477 4.844723612354794 12.217665266511238
S 10.072510479771061 5.802572051198661 10.880083157939278
S 8.927466480129857 3.9302760231516713 11.88502602161908
S 5.533658057052547 8.605931536673737 11.824078978585717
S 7.346778318998756 7.887472485531843 11.18064872376663
S 7.998288765486831 4.756133780139368 13.351242335883882
