52
Energy = -115.74683599 eV
S 3.6445830754364805 8.836227696737502 10.37650898669095
S 9.934253416028008 6.213268327892076 10.506293676944809
S 3.2650715363046117 10.341973363806671 5.53924052962348
S 8.090609090267309 11.907652591228118 4.491176544453406
S 6.399560534851062 8.053671878588284 5.474067392280952
S 4.190556115712028 4.147503003361083 6.041709787850158
S 7.144628336831836 2.5079514102444214 6.0640247351869165
S 9.344318017190872 10.461194127026964 10.632486092921475
S 11.72602695514957 8.537493122075826 6.946855440899276
S 6.904550867011444 9.238319909143415 4.347648500677313
S 11.308538700400153 6.404505008715051 6.536885227972988
S 10.02980732237985 4.2291662305798505 5.134724599540964
S 5.8207398523314415 10.435551471045454 9.166171245520717
S 10.542294472848946 10.283980852217457 3.8158943188350114
S 9.777745942447147 3.8897648270081535 7.4046507577461655
S 9.55671659159409 9.03070873059985 2.6290876091032964
S 3.90635548892207 8.34032204049073 3.6529576078312416
S 5.397929642986654 11.735265345008619 5.201436044507
S 6.711213906800124 11.899953668588054 7.075426912578193
S 4.990239729579577 3.7469842975932997 10.684013505039877
S 2.9610948316361445 8.67938393343111 8.589928601302248
S 6.519828868240892 9.607840764044548 2.2561402792783927
S 4.818516967378597 6.037113030884859 12.213023576799433
S 6.8752069398291145 3.0930836756734257 11.752500172512493
S 5.949954330231838 6.568622169106104 11.100099368458773
S 11.434512564495966 4.589094147417846 8.96715525982457
S 10.004952697473474 5.332622010985241 12.22044604670454
S 10.10692905090823 9.251278306389281 5.283963254711893
S 7.547584847040148 4.619462648490058 5.890209933653791
S 4.611209509311389 9.414614698594393 6.319335424538343
S 10.082456060059249 3.065591419725555 9.48760616556874
S 9.604059701012307 11.767002754742434 6.882247088967875
S 9.599450110173503 10.779083511184812 8.004711047139523
S 11.264512741924912 7.0530175162294615 4.7728340655168475
S 5.464723014003406 3.7637353704043846 7.9977381027414705
S 6.760534289573194 4.330554587600207 3.6663968942581517
S 6.152658579421826 6.887954077717566 2.298042998327215
S 5.031306636813817 6.2691877394072515 4.017947762399032
S 7.1469468707427435 11.866781562324393 9.04298820096342
S 10.490598419588895 11.206167489880357 8.716265783369664
S 5.060984723787566 11.41562795406883 8.466321445508202
S 5.689439308865346 8.563890776616251 12.8346029064326
S 3.280765244727675 5.441124903871958 8.928636373421565
S 6.7878255396759295 5.958798676032984 12.804968768776773
S 3.275938489063235 6.37891200401494 5.5591677942743924
S 6.858512167951247 2.2705796961455436 7.9101753431625905
S 8.8441031496351 6.208193727607042 4.3024263660922415
S 8.197309810707385 4.268297000867139 9.957104907775028
S 11.641102172623286 9.249053230717928 10.097604797367739
S 8.919018722764173 5.929896732799972 2.5559433677775796
S 10.022114727433056 7.398097136509262 11.4889672174931
S 3.7266987560812552 5.910468282812369 7.309830606926139
