52
Energy = -204.24977124 eV
S 8.12700999262673 9.242072990869309 2.00939500872584
S 10.593287486297633 6.63991419539229 4.953149270225371
S 8.902485540422056 13.611339306548 5.1046519969356545
S 6.791572759594642 8.743784916679607 5.07259671041955
S 11.928856478878952 11.050575077049439 4.9935615836975975
S 4.930799266768693 11.321854560394035 4.102742943482418
S 10.413762389322411 4.814514779616303 4.418185021940991
S 8.641806865020898 3.514873477830456 5.211257400118202
S 13.273383512886609 9.732990206252087 5.4440275945788335
S 12.515710525273805 12.887467944953316 4.8372633560270435
S 4.429456390322786 5.307123267669561 6.02688099589521
S 7.299549929818077 13.860781732804913 6.167286014496091
S 8.619535333685986 9.234493002602694 3.8580900409575314
S 5.2499906456045355 9.21013405610135 3.931057493930668
S 13.804422596030575 12.76724880920441 7.862353000856708
S 15.232905674059003 11.35703968119946 8.659039137961155
S 6.65877524695875 11.930697225071162 6.844886913836413
S 4.720504627355787 6.236308772995439 7.664608113004949
S 13.09426013454047 5.274378027634012 6.291560662286287
S 4.753186255477275 11.719234077408736 6.099885583203967
S 3.639085483498745 5.014828562894182 9.140567386812306
S 12.096858937075227 3.682784569674026 5.679077283331875
S 8.858659439263214 2.6273350849225334 6.973708112433372
S 13.052171702612302 13.632607519254583 9.561566296693421
S 12.232000545001117 6.092361162447393 7.98117651066988
S 2.9477193425277335 3.5915643281016503 8.084330076220262
S 13.006376143940704 4.771331995849324 9.583486901271293
S 14.471146472565113 9.552323184834886 8.445499631464731
S 13.056687500515187 9.223504187316719 10.156856239942117
S 2.731627883916435 9.578923072155373 8.99059283768155
S 7.564155476173074 3.6456245870547423 8.365335091626196
S 4.764038389307016 9.265155352010407 9.330930368329083
S 8.645972793440366 10.183092041572786 11.772507243676351
S 14.56400161841828 5.4198835816192705 10.498558035266546
S 9.518607693125453 5.691713154012578 10.130162708724393
S 8.488109978325285 3.7939922186304806 10.135524146654426
S 8.317652315263944 13.85191821703794 10.291797554766797
S 11.780765659390084 12.271857003688618 10.420811420893042
S 6.417256744389008 13.735607633644758 10.305724755571125
S 5.815344791516154 6.646609717780973 12.132555745321525
S 3.754247505390788 10.718025974020973 10.392727273997435
S 13.121480178461407 10.844991193995604 11.283910874243924
S 3.882146823274762 7.28982097498859 12.576562849359744
S 11.266447890613694 5.437090816922767 11.01333373241836
S 6.8617842343449515 10.332714774837031 12.40405447438614
S 8.85483020681787 8.843147835055309 14.62432361954895
S 8.77890707751107 13.05656507383108 12.576688709650963
S 8.615361549073615 6.604116436529544 13.988740788735832
S 6.980693766443183 12.810756022522146 13.144197318313024
S 6.69880485294472 6.257130511635634 14.079978442167981
S 3.730751605810982 9.141732240367086 13.213923873925308
S 7.046073179304117 9.475094293715278 14.709340284522355
