52
Energy = -202.9874008 eV
S 5.547304892061504 7.49162308794489 13.015995815172005
S 6.545976000165997 4.498829941513448 4.991248699072294
S 11.05809632957253 7.098174094389296 8.514597897326002
S 7.554738391535205 10.58244299507981 12.576059361541445
S 13.01340866223919 3.7190919155120317 8.931581458854442
S 11.448743381676252 8.17758235271334 12.511410820214346
S 13.15460747316321 9.36151927819177 6.1309688232502815
S 3.353329046220607 3.8118209286197935 8.861307918554896
S 6.688686534320601 9.714617018396977 7.063871269545759
S 5.848207754854732 11.97114716884907 12.154178521851858
S 4.2571264345599475 14.128904755843822 4.993129333358327
S 13.829740232346918 7.6950077804370745 6.8037025273342575
S 6.343803978483646 4.523351843504825 13.134888938470757
S 2.2280846575184294 9.24580284980952 8.317666619710435
S 5.332568453522308 14.114816274522791 3.426958342444504
S 5.240043936371309 4.857688895800461 6.4120021623483305
S 13.29882216564326 8.574317212044475 12.24705182093285
S 8.337988281139816 8.326766848031054 2.5122144229352394
S 4.458138649928106 6.877560971757077 11.492858111172048
S 7.666105285350522 6.902547277459287 8.598873104424637
S 2.6783348588673515 10.205028841227154 10.171308351021105
S 3.6128225495451876 10.696965251636177 5.925063399022062
S 8.974885127442619 10.835238964317606 11.309984837982508
S 6.84086929402203 8.821283991712175 8.840314749993961
S 12.227615995476528 4.565866914364122 10.963403536276436
S 8.129677512117835 6.185534704566289 5.128490334333302
S 14.656222949919995 10.20162317693602 9.010478013900254
S 14.847031978668326 4.2351382990110285 8.817859388966886
S 7.308458131113576 8.301819015711796 12.313553427505258
S 10.432192764643352 9.65280356238976 6.252256995092376
S 9.755377098061665 5.777051096916719 4.212486600239645
S 13.915545086631603 5.363905582882274 11.646554760848842
S 10.696436294404059 10.186277991539539 4.1122461747692975
S 3.4574672542776836 12.066029455356825 9.921139700893159
S 4.663319726800697 9.108188529674859 6.092147559796004
S 6.895317054542185 7.550935422431385 3.606606575778498
S 9.76865568072638 3.9968392774162766 8.117593379612284
S 8.847743176688832 10.256192720668201 3.32268430920801
S 13.400331530264728 11.002865801827443 7.593090478876405
S 11.300186294850128 4.99999380105588 7.548602089711205
S 13.936199159857322 10.449690832578039 10.868571875025253
S 14.263074116625237 7.206182871755391 10.799137727368747
S 7.5447389955091175 14.934073956610845 6.711574049397419
S 5.172054110933873 3.3753754275075574 8.382149978908174
S 8.67121551740982 14.318041892903837 8.147104963929557
S 5.536644486542783 12.154043183281008 10.148940382508478
S 5.179488704626962 4.457479272630778 11.611195174250817
S 3.5954568890948586 7.902935607365366 7.878781525872829
S 10.137585072995023 15.432550007756827 8.714669604913933
S 6.508071666000397 3.9560689610064275 9.967989899839381
S 9.462728502595306 6.809363577723291 9.66572244203509
S 10.256457394686707 11.198724033432205 7.385457260224378
