52
Energy = -205.13362116 eV
S 8.919481303620193 10.491073983549368 3.2394797342964448
S 14.889717866519245 8.749995014603233 4.31177873171364
S 12.93275207417694 9.67075538956353 3.6737023574003302
S 7.672986533056449 4.31492714547439 5.955448897464722
S 15.068203860879645 8.971745330337594 6.206151150246327
S 14.818311962007881 13.030792947813527 7.7380845876917626
S 6.592134961783399 12.876543009079613 3.762045729515161
S 12.083049832087198 10.275837886018843 5.3657206616221576
S 7.210072681556413 9.621808312111517 3.214778323051559
S 12.103882837850913 4.550909198825369 7.444768662758045
S 10.731079165925824 8.763015590464592 5.997974674247901
S 11.111499874446224 3.8207926376717385 5.741882775900139
S 16.17480179878217 10.169796268312155 10.718062157200288
S 9.292321321618696 3.1163677365188747 6.395756095394653
S 7.267440638243328 5.484752647669363 7.636181075462759
S 8.827555444077825 12.658013583955288 6.296554717970406
S 13.610360384630386 12.094681058129686 8.92986551237377
S 12.848568480337034 6.41558047191243 7.083873146147072
S 9.032179193854567 5.691797604182488 11.446999148636664
S 6.86813890407018 13.40024085393361 5.710825100827787
S 14.796407150429127 12.614925688615179 12.076829054310464
S 7.58483010603848 7.432906202894045 7.076461151937283
S 5.597765609066679 11.125260721624176 3.6188339676858647
S 5.705467860014727 8.13863176267123 6.471063016195492
S 12.2532999585067 7.580159610682091 12.536020610342975
S 4.191979862203147 3.361826984059903 8.495374902367764
S 7.960597944457279 11.528369115163565 9.32311371016592
S 11.508498743917663 7.913387576977557 7.68404831912292
S 9.334634797620486 10.90645547828409 10.62041559859915
S 4.0661245885122055 8.26057713106677 9.450931772342999
S 13.26521807075906 13.16305385759361 10.725733522881674
S 8.057090913115598 4.034673026644049 11.285225665679148
S 13.256117840452559 8.504959962083326 11.181755611503243
S 8.838104575725554 13.181938580944584 8.22244445107586
S 15.205271692603585 9.312324152885148 12.1235268059413
S 4.999775287038004 2.8458750666235737 11.73625615179787
S 14.170072333601677 11.201839790326162 13.2826593042774
S 5.028406912811588 9.402756110960455 7.911103264858013
S 3.886778650171192 4.026990712681948 10.283648206716371
S 4.6327251123282265 14.828859199223055 9.01602850395627
S 6.293795021638954 4.1460270787933835 12.557026421556637
S 8.822889327175728 12.11463593283875 12.51987605913208
S 8.827291749843477 9.00700099765904 13.837034572576748
S 7.618221195371884 9.000952666851463 15.526121749699419
S 5.715945274943316 14.734062789439967 10.575279398941504
S 5.407636822219725 7.84959401589267 10.81341904206879
S 9.728233474394187 13.80160576649865 12.604270725730165
S 5.254335953694175 10.022242973718292 12.001482646956747
S 4.650091990079992 9.144132034830175 13.964982649140932
S 9.984835096797966 10.666955307252612 13.79405351113146
S 5.922577697147233 10.157302234903451 15.166252030069696
S 3.8060372523208 10.855019459587869 11.073858911088308
