53
Energy = -209.61526418 eV
S 12.249579531010397 7.682492710168507 5.555910368592614
S 11.681074811225857 7.171656741040176 16.889080165324113
S 14.03071250524324 7.249186615149888 6.733756040435028
S 13.860615895491037 7.6322327688398985 16.378190480275737
S 13.897948760041439 13.06691537903815 6.526796115966102
S 13.689809354634821 13.759009873268681 16.578643351754966
S 10.4546928187444 12.362518388744459 6.566508134378137
S 10.473545879626744 12.257668990963532 17.19800259079067
S 10.876303337809592 7.913745590260803 6.861765153342972
S 10.758669089804888 7.1921038324458 15.150610084255913
S 9.847048788219018 5.163096332174395 11.22792819205026
S 15.111756917398012 11.073441895402599 8.856093118502573
S 15.626868926969937 11.83279136805595 14.748579426549705
S 14.584794374355731 13.102535519442712 8.515527171652103
S 14.40280063281388 13.618091367142656 14.611567721475629
S 12.051655985664024 13.845865316608364 6.411648150731549
S 11.69596680066973 14.043928337520212 16.677229930511803
S 8.86132554038286 13.595663645531658 6.913749901649516
S 8.573193223141045 12.715242623357646 16.82948395272093
S 8.669146842451388 14.07068345342455 8.900816931614083
S 7.819342601557756 11.744025789258172 15.019562709479334
S 13.412594134118782 7.297578851237877 8.538098615781083
S 13.949224817038738 7.864980054666768 14.479701846520143
S 8.99210107868947 6.959543693787758 10.859583450850034
S 7.465411492326677 7.068316386382286 12.433331107217615
S 11.530882611693581 5.379047307724326 12.46632623266601
S 10.925018827097041 5.170059823667228 14.386929658940415
S 16.923443062633712 11.15017379375226 9.815849699319179
S 17.07344842229246 11.939985755066543 13.358810477083905
S 16.726524284680853 15.53533029273764 10.177284271756141
S 16.277516670979086 16.189930395903016 13.392441986549231
S 12.478431704642409 18.268062939413177 9.104177856612543
S 12.631037428698344 17.390733652622792 15.07362180362626
S 11.46442540416472 16.68840907032355 8.713993424497467
S 10.780642167188585 17.262011441320073 14.592905250016177
S 6.083964176057735 13.7190303377292 10.943951537588264
S 6.933551532902223 14.281043503065094 12.770471921048518
S 7.321094031115296 12.628069730858952 9.756849163735565
S 6.353617234498965 12.945556717619745 14.308601920130608
S 16.787235292758982 10.499174443504215 11.77539811325326
S 6.3652182383686196 8.611198382520888 12.092158161997167
S 17.487298216761666 15.886774786074609 11.918448168698461
S 13.198664989542872 18.19303762113629 11.224845916917722
S 12.530633685634358 16.40359217606767 11.873449651172646
S 10.605167669410084 16.58425685002535 12.462344234723188
S 11.761301280926126 10.86597144874777 14.129076058743015
S 13.29040433904554 12.249353014666426 11.499286051391639
S 9.530221066631215 12.106170963997236 11.980427887749627
S 11.293800834150955 9.882732397401156 10.208245048187813
S 11.711656210816297 11.707998695362857 9.779505699152299
S 13.41833518672726 10.588823923470507 12.454785923474088
S 9.589969121410062 10.186114653766218 11.839320471357745
S 11.082696456839333 12.607227863030309 13.637730374770687
