53
Energy = -209.60954421 eV
S 3.4633006442123757 9.881835528490711 5.746843412051312
S 5.3585652922157205 10.675706832340573 5.488794746760712
S 9.777509863976467 2.780648593606911 10.72024660490777
S 9.960924096140715 9.90999376982073 9.58117374181076
S 8.245664595867206 5.728879849456428 5.932902392879746
S 8.618482008823255 16.32667909166556 8.657563569009318
S 8.591614164861424 15.035226992279096 7.033175221847637
S 6.761928564336868 3.7867338826842425 11.689012600052566
S 8.25935993676702 9.738758904310638 15.59098698708387
S 10.382271063343358 7.660057310761509 13.157414942989382
S 5.292645806347772 12.735535152945841 5.6060030232476965
S 4.0066329554947835 8.304668719134144 8.680230445629485
S 10.853491745282929 9.543675260278203 5.954345778830681
S 11.166758174880044 14.995418962722114 10.534519307752678
S 8.472722948819934 3.284976592233278 12.423467269724666
S 8.925918206904699 14.080656854828018 12.838922824793462
S 11.741361424906692 6.499227381686178 4.524200197608667
S 12.042073669994293 4.899029018689274 7.498111949746157
S 14.368066556941693 3.697973035410183 10.429008813984943
S 9.197498432200709 11.26738829522836 10.971224620610542
S 9.359758579647918 6.2123277324899835 8.955828190446333
S 7.863279332210306 13.222502659581219 7.706333356358339
S 12.371565064633023 10.310412878373207 12.929724481247229
S 10.635207708063753 11.879424105845379 9.590056021071565
S 5.697651578110008 9.124322179858247 9.427734478583112
S 5.8007110351879305 13.268491494892112 7.541941890375076
S 11.536369209704484 2.2532999250178984 11.500401077705368
S 14.41092884963751 10.129304466454178 9.147935909609583
S 2.9664615378833257 9.858781040357838 7.7441065454292115
S 11.4221256651275 6.366214158620633 8.860433310996214
S 8.532081832175885 7.287246512952585 7.42715768766039
S 11.63451571930986 9.036388734687979 14.313977731563465
S 10.699544647139826 5.814995100191535 13.624640664659154
S 14.32691959501548 9.61347226300013 12.433853188531444
S 14.267720855371426 8.531797855556622 10.780635202543499
S 8.685521969639353 9.636253056781113 4.866718982234024
S 6.745349578873222 7.794772620634816 13.25448250905761
S 12.865549235172724 4.035789834420132 11.592874470206091
S 8.269771528400389 8.021859367412208 14.724658998680349
S 8.072978587849263 6.982222636482456 2.7446790346763184
S 6.680615402311765 9.800124269117473 12.499491702147168
S 5.849497027531168 13.832518006514666 11.630770162386554
S 10.562075260214224 16.5477866116726 9.315798728163463
S 10.478843698660167 15.33261966094519 12.484627894375535
S 5.06057394811324 9.881096168523674 11.356121560013042
S 7.170531868857926 15.150372580674047 12.117338893584579
S 12.02898563058124 8.487419166020098 4.391915276464302
S 13.087236954546785 5.7935271360511855 5.996312491689595
S 14.35018940904838 11.829191313961509 10.02598443934409
S 11.539810638249428 11.342293020158799 5.968476319522827
S 8.766641539074465 9.033338852958755 3.0040650132829
S 6.22488011120432 6.896051169763372 3.453319712475028
S 6.371209329689656 5.682606471012325 5.351348703146867
