54
Energy = -191.01549208 eV
S 10.905727404714083 8.957325803900607 9.725061826056121
S 9.97981948986337 9.13692476715663 7.138196278755356
S 9.383484142936352 13.224832404422596 8.287840230174966
S 13.411571707130092 9.145898392502149 6.492076208369036
S 8.750855171211994 14.575380793416143 10.10370599737195
S 7.048854555548936 6.980454112968195 14.471068159965752
S 14.886958505796542 14.130910924171426 13.929893379886082
S 9.725907143567492 8.932163707748167 15.547099922566062
S 14.872104731445217 10.278022682056077 14.899428257413867
S 7.529284481234307 5.860535657250712 8.934465076020375
S 11.173008035934682 15.978442655845024 10.294045778127423
S 11.319366244111102 10.188403558761223 15.062409697188334
S 9.5348421016747 14.165344425084132 13.788839948422117
S 9.95790817136441 12.030114020641932 10.93603921568384
S 14.692123448547582 9.467032571554764 12.879606730286458
S 10.459630783451825 7.138475943275982 8.715142792229992
S 12.881736097854713 13.319568458368108 11.27326500614694
S 7.613416751594728 12.672686456027147 12.634665317220911
S 12.514194268232316 10.955064656436189 11.413544302411191
S 9.128226145740529 7.665214861801658 11.139795960783626
S 4.052424321651926 12.993743838811275 8.64748990013681
S 15.962512723101348 9.051072913679173 11.579122197712978
S 11.481063726718629 14.107795701646452 13.828959348150901
S 12.523041765299652 5.371266566032444 10.607549623256096
S 15.45615851264253 11.821651402817947 10.191700002736255
S 9.756079072214439 3.1940578439356178 9.305753106798843
S 14.033423175153871 12.237767372071445 14.184133863357092
S 8.065683303717586 8.608326399041147 14.0984844255507
S 10.524548629991136 9.317398636556653 5.138463914409843
S 6.489890252166752 14.321372811543768 13.349343145645864
S 12.428743502858309 13.352221842194806 9.26070368760745
S 5.491421393057574 10.374397431143818 9.482471891106895
S 9.62062031385244 9.714601492896653 12.253558488862815
S 13.007514074746213 6.92752353229095 8.97711505223501
S 7.528028270258819 10.219677028049642 11.28528264949769
S 13.83310064707443 12.693291327690195 5.533722052894197
S 12.020128665500824 12.695299274305059 6.4319228422806765
S 11.197304502571019 7.41284294587851 12.924129804413976
S 9.091713298311001 10.8387688638894 6.153550267158123
S 12.020550231215205 11.206720359914092 9.053340344677382
S 8.4429049611655 11.31512570031512 9.84101030997018
S 6.017590672043922 12.89452316966387 8.692026089687907
S 7.563256229938555 11.456787701942067 14.068790121568322
S 12.538090301945633 15.616219007306324 11.669710272012995
S 6.304588661117302 8.537198934191958 9.392387804586564
S 14.69263605901482 12.416392501615947 8.34865567111311
S 7.946163564241354 16.205058053662334 9.724326644753836
S 12.83719099156766 7.239501179116065 11.85566973558832
S 14.139125005238466 9.006505826949162 8.142321397514376
S 15.092040835023893 7.234304063231259 8.881701400965856
S 7.853634740988243 12.98092513914027 6.898745090035837
S 7.014145876324401 6.732560610037975 11.703538173240231
S 10.692867569717873 11.43214171138299 13.734781937785344
S 9.203209218960264 5.017718951380173 9.64154387846876
