54
Energy = -215.11931349 eV
S 15.47052439046343 6.317665882537983 6.806239256936012
S 13.995179588392466 7.599894111963874 3.9554524078878743
S 11.390290350214404 4.913945972919979 7.852842183034093
S 3.452823077190662 14.425553600355599 11.611127314941713
S 10.108849012725164 10.590791661821466 9.766570089438156
S 10.477338628693378 13.981453330778823 11.25977898453024
S 6.5805112289513845 13.987938533340806 10.44030765128919
S 10.139400381351917 15.301816533333659 9.748259097694254
S 9.180034963103793 7.358327802771174 2.957931378883038
S 9.765807366273933 13.87435671205435 14.49201484716087
S 6.38404321913435 11.57454991981628 5.900882043516428
S 7.103798305081737 6.756715881786575 12.719358152894943
S 12.170326553706822 14.562003252183226 7.385846726487523
S 4.348315184886302 12.47507501538469 8.429556163134368
S 14.07009516945303 6.949882383599271 14.329604392366006
S 5.339783006830395 9.07228279295818 11.060083000620823
S 5.695765034094836 5.751821216951558 11.733303066864607
S 13.590996802778651 5.727862380659911 12.818834123423878
S 5.771383287871336 11.11466910311699 7.783689255620338
S 9.690771512398024 9.323139118281157 3.487287929582841
S 11.201559314099157 9.344935285503366 4.86132141992391
S 8.55388834087487 11.412995934914882 15.645075392363296
S 6.094921750277803 7.308364577144352 4.194676295496172
S 12.360687604138347 12.682683806327079 8.196637720179076
S 13.037740676056671 5.900266525403417 15.824916140798123
S 9.781674675302543 15.092139401652247 12.980531755458587
S 14.364751012570059 12.309906685688057 8.566116463625303
S 14.23999768473363 6.739890299920034 8.481097433098226
S 8.74314225263193 13.420612868648698 4.531835479161041
S 15.446483700209042 7.853129676341629 5.498486917901572
S 12.019100491001256 15.830751259843197 9.013409870624821
S 5.333235568916451 14.278311747711488 8.93040826457062
S 9.96818136728334 5.923255888410957 8.968990593277537
S 5.102064183997139 6.972038344481954 5.8141878446337305
S 13.0415788270894 9.39598080977289 3.8480279751420463
S 8.117333117928645 6.530278999199196 4.471324778827041
S 11.878063074171793 9.535982001807131 12.448389592891372
S 10.98749991821706 9.124568625692776 8.656728167469787
S 6.62725163492641 6.9767794588144145 14.762733120276264
S 11.190017603376198 6.270872565335015 15.068670421888392
S 14.78863317878875 12.852900889757024 10.513538862235542
S 13.203000301344028 5.02329278938979 8.861827645255497
S 11.017178533309913 3.620405246538439 12.666574610258323
S 10.022231387620995 10.070107535225333 11.793169896559359
S 5.218478834942889 14.084402546345045 12.262980290317763
S 8.107206468238646 12.856434892143376 6.263710844207111
S 4.4891597782141615 7.390367862158747 10.734458616167226
S 6.6799096356714465 11.158432136314842 16.13490229299921
S 11.257271305914925 5.4996870158953115 12.937559512960382
S 5.094426571910184 8.331536942982684 15.044453121931957
S 5.641145845419341 10.219624858010073 14.502729184254461
S 9.593945767414294 7.700217819705817 8.007675318907333
S 14.748158859047646 11.21229862209762 11.78140181295346
S 13.054383027143885 11.172183142624348 12.984165694705895
