54
Energy = -213.22139653 eV
S 8.497121711545045 11.705108798003064 4.76950889609979
S 13.979272165320994 10.462994622424956 5.241501094642196
S 12.066914320437416 10.458833665696709 5.300940148171028
S 9.187929652475303 6.428139423292492 9.195842796078727
S 11.337989073599884 8.308544801553778 5.751184715709338
S 8.172875180409516 13.948396848099051 4.668376569127424
S 13.128836709326572 7.358990864791744 5.715518992727617
S 8.215618386591999 15.52187873259192 7.810068792716025
S 10.986765478020615 15.549299745821758 6.775372167490621
S 7.527114729936653 11.044072012349531 6.280149125654991
S 3.744839487592919 9.271948753404214 8.563166095960872
S 15.812093311997037 12.00208829280198 8.52913044234668
S 10.128974133723814 4.675786336250157 9.505410852740132
S 16.339665331050675 9.891854648684497 9.198510684802686
S 11.265884095128218 11.555111583312035 7.255904341881641
S 7.170161063389833 6.22262812938776 9.72091380728011
S 14.132023587000123 7.641991500457782 7.378091569377759
S 10.363180633964927 10.276658912062441 8.450855155633553
S 8.932225828289729 14.486250211219271 9.281819621756531
S 11.391249011954423 14.759502655351502 8.470901570413142
S 7.098384449251495 14.353453123891287 6.2670868159414
S 11.843200450172828 9.70508347107078 9.9211270596358
S 3.9079679915757595 12.56583072363162 8.81825278915363
S 12.00822730285339 16.446858107483198 9.743344710594533
S 15.924567113789571 13.137002848695854 10.067796019338108
S 4.933988266000009 10.916651278222886 8.939784940966552
S 14.08000466008034 3.9918097065609897 11.210093004914766
S 6.604458287228437 15.482238335116206 11.533975274565185
S 10.797397186490318 4.7704673104305595 11.593308147162752
S 4.840139786451547 14.703625287276163 11.594250300952531
S 11.074425145137896 11.856890665689065 12.391381301136477
S 9.121681432150705 12.477911387830524 12.611920934110428
S 4.646095562916219 9.196112318694437 11.870244966943314
S 12.415508213459228 15.58978541711867 11.592982916118153
S 13.911076438384184 5.9098644306006465 11.274105030467467
S 7.0197978904981655 6.820418664494288 11.699123336326577
S 6.760934685979421 8.838078757489559 11.698184495734445
S 16.686523289448203 10.043627770815801 11.13780681114485
S 14.46506357491063 11.533002819448411 13.101866186474515
S 4.472602108677271 13.365502289467296 12.93579532997002
S 14.760379848347482 4.556298508793835 14.240054260111862
S 10.938408387429464 9.852276368660325 11.71617684607994
S 10.88831300667993 15.705033642406596 12.801532904022052
S 11.959238683925975 3.2187447852148026 11.799709153606305
S 3.676924178464687 8.185281046819862 10.479912104089555
S 14.789976984137718 9.780325271881335 12.10418962875134
S 8.663181020225386 12.426750932094746 14.616011091185433
S 10.951145399958527 8.780109718948276 15.418711037442558
S 14.388952117620615 6.305609137811084 13.578240414496804
S 9.24988431721487 9.602802037329308 16.3954181221875
S 14.933989196568874 11.226202471532227 15.109902447049002
S 13.190753719150552 11.251131531359293 16.192393709600495
S 8.039552042329829 10.461850552269446 15.01744624666317
S 12.519130558789024 9.315895931348555 16.60731141050626
