54
Energy = -214.01375891 eV
S 10.838004334740647 12.31428782962095 3.4066314030507847
S 8.165434457486459 8.739819100981324 2.91779329230769
S 9.135061138937855 9.601278223431363 4.416498117953256
S 12.189950663896333 7.212060014181382 6.162926953788723
S 12.122933987289246 12.60909348120018 5.042596697628966
S 9.039586101564787 11.70633239499882 4.152416198066123
S 13.846644825331847 8.636513718111619 5.517612711625516
S 6.022925236186528 8.701134219900993 3.7136041366866617
S 13.207640744053272 5.753161630411109 7.041031999961891
S 6.032810788909728 9.454252802307325 5.475672555529914
S 8.588770599399561 6.342236634298631 8.53236567575102
S 9.38075405790613 11.663412031847383 7.873425010782375
S 15.492203896170833 7.9398147018281975 6.1992217769525775
S 12.047681488185004 14.522172009243212 5.649112068125621
S 8.71441415241282 14.445092868109434 6.611986842590849
S 14.893829074526161 9.790577004677694 10.210451385145092
S 10.948474845964386 12.678381215100503 8.466753861921802
S 5.418429813727973 6.208852757318717 9.77324825931862
S 5.044031075602446 11.747525134385025 7.607166866956094
S 10.481235240837211 14.754025007573889 7.279624361265159
S 13.664675068158262 14.47347878584823 9.985968705090146
S 15.931198707978648 11.377923231203363 9.828206903939728
S 7.328581951354092 5.396760598718906 9.857519810354033
S 9.647195224348623 7.886589968236555 9.386796848869336
S 7.889242203480805 11.67882730234331 9.381234526906685
S 13.631710265439992 6.242380558415778 9.042476380090593
S 6.310013451211906 12.84423518482761 8.598250916574592
S 7.743225872130209 14.255539222075612 12.31264107056893
S 10.419661620668844 16.195348554877103 11.90439259330738
S 10.902293843929765 7.105049274240877 10.859500139534939
S 12.020448713505623 5.547900446460744 10.136169509680379
S 13.48050952198716 14.421464949878795 11.901999936681793
S 12.93917051841192 12.346137673446528 12.301051930117287
S 6.822926910108937 9.824615599764668 12.30282796036009
S 13.7593925862657 8.48329464461685 15.440869930619414
S 13.654754482243096 6.592066461649444 14.211273846977162
S 17.329357429289754 11.87514670737001 11.374159604515272
S 4.950396004597362 7.083966384118882 11.575323144390762
S 8.616429801576713 3.92267490266166 14.00076732293604
S 6.092290262234557 14.397013948903503 13.479534249483294
S 8.963496866876943 15.865888930813078 13.125328187470462
S 7.824820495909637 6.4812831216916 15.936804525197582
S 11.08889402908063 11.74674218473972 15.059562730392384
S 11.887667561264035 5.869956104604986 14.353650793294628
S 5.077191888138373 9.148890778961839 11.434949541947937
S 16.223074680067484 12.44992799148726 13.037469379815073
S 15.663296422819759 14.352782196963403 12.926453612826496
S 8.317285267918836 5.813577598238148 14.197107517641175
S 12.999172388675461 12.111923520267577 14.327494033583607
S 6.310338361560044 13.188198594166508 15.167977978504206
S 10.770066089766724 9.740540561875374 14.733809994267043
S 6.537572746605825 9.896352985195811 14.357268481188179
S 11.914246125212308 8.69927364575889 16.162174644378133
S 5.260213333770889 11.445851825766038 14.83047029280221
