54
Energy = -211.61973096 eV
S 17.46126175145388 15.649571279759241 11.075008301986637
S 5.6518371425054506 15.40558238994345 12.677173833685043
S 16.864398989355568 16.092074853521023 8.897240324135016
S 7.2380434151241 15.540467971894975 11.627542189822508
S 18.743632054592243 11.458935278093819 10.994910850534234
S 6.492639431366441 10.970544345645514 9.770316736371196
S 16.702148175085057 11.166359823165712 13.682365851409166
S 4.9051091423869035 11.380229018844874 12.738507190535165
S 15.950532566790109 14.798149208311692 11.87525225264657
S 6.362214259639728 14.769058582104103 14.63669305276819
S 13.813054334616243 17.898686453213262 11.294765689282979
S 15.000475750783256 15.536275775084878 8.814269279101193
S 9.125839773601662 13.797207214271513 7.976938371465331
S 14.769478688909322 8.042355803265108 8.511321739519088
S 7.896378451689938 9.682841172579556 9.298096384306175
S 17.74790741852098 10.14415755310821 11.987870528519458
S 5.529994431420629 10.018735438882732 11.5251098089067
S 15.591557789953324 9.800927109735534 14.488213604726006
S 9.134635272231577 8.666524180716413 15.303172471534305
S 14.275439541277525 13.858794093378275 15.682850412992135
S 8.251851526844128 14.629829532344242 14.43305679551575
S 13.631890236991767 17.427129927062875 9.05712183578816
S 11.886275731379897 16.7061333238665 8.740503745002169
S 12.05633240770652 17.502475627013645 15.211866052998577
S 10.497423245039991 18.01899337354093 14.222899200123944
S 12.537126465698103 16.530702136424797 12.04283445620359
S 10.672140871383581 17.304056537491846 12.101192206360086
S 12.581170256011784 12.165159613001174 4.774124546048595
S 9.906974145373061 12.448260840009056 6.827025210422377
S 14.745316291873113 7.4545482315152904 6.654240832709962
S 11.757014460041203 8.794153161713481 7.4573403248473396
S 14.46678657885607 6.169899335121615 9.882449771163957
S 8.397012232210766 6.186273494413413 11.664767103394558
S 14.830301702555136 6.860431364284224 11.629110256377706
S 9.362958705462798 5.5870162087329245 13.206746516910739
S 12.00864597555082 8.00909433869273 16.291214343520974
S 9.010080744038037 8.780928222712074 17.2015560842897
S 13.853092978068018 12.601092333248296 17.14066870066412
S 10.700378318126647 12.375495379621546 18.386978262770835
S 11.608129211566773 13.473207697384106 5.798022578322988
S 12.181140711753049 13.59814664876569 18.192964371815606
S 12.586239821258607 7.90498189040262 5.9849787513215364
S 12.157528426970773 5.813043493500729 9.774662453548483
S 11.581619192994435 7.071148627570832 11.220575375342296
S 11.53787122141839 6.104432069707033 12.999032688244926
S 11.028678688436583 8.32145363619628 17.898831364764572
S 9.130519956437432 11.98398924466813 11.435049899645078
S 11.646677550525292 11.890398772394047 9.173455813306314
S 12.12560561498145 11.538585744726166 14.51678841995487
S 14.34351768698237 11.671104356260845 11.9620630748469
S 13.576570803182133 10.27123609124315 12.986724574921679
S 10.641202705324721 13.293424919930803 9.957916903286081
S 12.715341705979927 13.31883010623192 14.083285087065398
S 9.57967472450742 10.228668747965456 10.801097775665975
