54
Energy = -213.54587387 eV
S 11.420792453883418 12.941816644491599 4.71578844379124
S 11.856783519551412 11.152097468609762 4.154367034599745
S 7.161491006008165 15.95645793812898 6.065975127223092
S 12.832476541342096 14.252490148786269 4.761831485972335
S 8.143980398929498 6.91720978124048 6.79399713025955
S 10.03309241318695 7.305978132220515 6.281073562261202
S 9.37382912232181 12.467304279883997 9.055489045643483
S 7.3723901096420885 15.639491316720978 7.955500991286535
S 7.335152182416345 8.56443316641576 7.8498774130647115
S 14.633267992004788 11.810150663282656 6.940781700930681
S 16.10293787617474 13.18705196423322 7.440636080078613
S 7.015374420666281 17.584405589292746 8.915101863380308
S 15.58743194009401 9.990043620452946 7.214932128295032
S 11.532393839808288 6.751820232885921 7.945868468977017
S 10.636404057217105 4.891753698980317 8.95954178213936
S 8.236501971017388 8.664303757894672 9.642913913196207
S 12.312153214760878 13.897046889922354 9.565063920320132
S 5.013253384764645 13.314856871662291 9.796118097477779
S 6.2408109118010415 12.035008101004346 10.6197011616919
S 11.087909725120621 12.240894162016062 10.008471119799317
S 8.681627861945406 4.754710510733026 9.510325847490472
S 16.242833972646963 12.999488100990035 9.501517930790666
S 7.696533416706178 17.473082630223278 10.791240567346692
S 15.709377537533177 9.807640162055689 9.277808188629027
S 13.935544373831743 6.896426085659394 12.809006662192363
S 12.042498164190183 15.475556311633389 10.943586888610746
S 4.0043324562268 14.364597907282523 11.57957405904873
S 11.834141564072342 8.20791939144978 9.14976852001216
S 16.07061315397208 6.679467414842315 12.423354330088038
S 6.046398180706441 17.24871854616714 12.202341027352407
S 9.168811319288302 12.965468815986258 12.404332603774218
S 13.77384419363588 15.853385929517437 11.81814972651222
S 8.093826385774372 13.390062315046569 10.891748246923694
S 17.19636257684424 11.182630485380036 9.762291744577679
S 13.451647814107684 5.016005722168002 13.386677547720527
S 8.331232037837754 5.548024586537187 11.328067883240076
S 13.49613604180134 11.067340131935824 12.62367657908945
S 13.52271657169095 10.40205947966939 14.408441398576787
S 11.601349166928522 14.47543609158334 14.071649627240552
S 6.969759638835816 7.382919325216826 10.981917051294559
S 16.86124439570768 8.437027850823597 12.363755105532606
S 5.136878486366047 14.006440529159928 13.106443544270304
S 13.970886021235334 4.805395125894916 15.401558296261271
S 6.4950059735150525 15.824343980406368 13.483832892252115
S 13.404094548651848 15.093574156584603 14.026337721288833
S 14.976877706868839 13.327044924909469 13.918564349814332
S 6.8449819444348075 8.192221311135185 12.718479777999168
S 10.6791878776544 8.553987835585097 14.55529481652635
S 11.32763826977635 10.778026660784652 15.343650713272872
S 14.702775438017273 12.28775216230474 15.521448756018588
S 12.320079714433398 5.016068723951295 16.61040543274939
S 12.142786128442188 6.982748777458332 17.202414081424077
S 11.313796531590006 10.543407444410558 17.23507916877542
S 10.372282569071151 7.742935259439855 16.31075755796818
