54
Energy = -207.77973252 eV
S 10.816002898514334 6.391622846746646 14.074102798054797
S 8.831099458256828 10.96346098125307 5.555212542951192
S 5.844099370872379 14.613235197228935 10.849064864334588
S 14.196899167258215 11.42376755826534 8.719199274292503
S 10.601959923988419 14.224764289664778 8.56579853722042
S 5.733051289294783 9.019765595007847 4.967716704485874
S 14.124446258260834 10.446674140718484 7.008419734772635
S 9.523812602695871 3.7866785090969315 12.268290688457865
S 10.1361070612311 7.27475354898158 9.123053273813403
S 11.71193232216185 8.518156603636463 8.947511339607377
S 10.457071448157734 8.751106388820176 3.403134637116917
S 14.576734988390466 6.039917723095746 9.845360067491496
S 13.291074689538107 4.678035334839556 9.24005821912852
S 4.179620907719827 10.588189613905543 10.261441756519764
S 9.762335079803936 11.180515423326776 13.890005961713127
S 9.931710746516638 13.117719434893708 12.327620541749589
S 11.660506658737626 12.360661560066875 11.020089136837234
S 10.736708156548291 14.894995595707291 10.41058684957443
S 10.80062643549232 9.61512132573703 13.1794046474315
S 4.701836738828127 7.2766912443070195 5.624897615228798
S 8.80991011438369 4.737614339062083 6.637066314576434
S 7.018719642161019 11.359894950911924 11.508884981036777
S 6.562011521866172 12.784803876783416 12.817353605552642
S 7.618295515197259 13.290560349675578 6.300373279517712
S 10.59239366522525 14.16170912876443 13.745506111890577
S 6.861145200740392 4.915773995754115 10.29702669802991
S 10.691914927876866 11.895931004183993 5.025601767653894
S 11.592162651104863 10.273028745917367 3.903255035528895
S 10.174867448051062 3.369970027639889 6.757189796791733
S 4.779050135751613 6.163177675652288 12.48735897047508
S 8.747953721861563 5.816066020071601 4.7259850889437685
S 9.551217049403938 7.981312746030562 13.769743616504138
S 5.840286470120656 6.4764245773479105 7.139373686100649
S 8.416561419810176 8.538993190935201 10.255493511292892
S 6.652001236598673 6.128863022129519 12.031549282251511
S 12.514449635239231 5.629518297245628 7.31946353757925
S 6.281918043214615 13.183264063478061 7.720749539387629
S 7.106032385775162 14.477496026188417 9.428918931627047
S 11.0524037902531 5.295331372167223 12.367975547880485
S 14.78173937724583 8.827662531738529 11.426933946336776
S 9.239779829933026 9.540729163565448 6.755766299829885
S 5.449241989621116 7.559043296916645 8.843227527570217
S 13.100452861391284 7.471199564547529 7.417355549908202
S 14.169135091984455 13.459717285551212 8.497118220470902
S 4.948554890027927 10.64567491882291 5.76795263867561
S 10.511970556108391 6.500502269603312 4.138607233195074
S 7.025473070796332 9.578805248215502 12.357974481539957
S 10.683331515242152 11.741297781065098 9.452839913154166
S 8.74434455594317 4.027959723264545 10.42669204923534
S 3.6803022464995596 9.337510048016417 11.629705358976569
S 13.46087904789925 7.553910226288604 10.967260869997304
S 3.0215527652145155 12.137612766124885 9.906363433021657
S 7.076857138755784 8.991278496263028 8.869271517108496
S 12.467135161270114 14.417246413142891 7.633008414688737
