55
Energy = -219.81016919 eV
S 9.94341930230057 13.6253426576302 10.462460330605866
S 8.51536104894539 9.336102696142648 8.103842534551468
S 7.294127021000934 9.538578750927849 12.323821918112756
S 6.537767348793009 2.1347716910417853 10.367799898394715
S 9.69255654840043 6.416701086589592 14.583631541304069
S 4.426461592385916 12.054186951855995 9.405708085558805
S 11.219376028560028 13.613295739157813 12.126464897596227
S 11.243778304177143 15.192815954743248 6.323609395731246
S 11.276538200640404 6.9455386250420466 13.562249601049231
S 14.118208004204195 5.818546884016251 8.930317316981261
S 3.689678425827986 7.667410818989452 7.876044420119497
S 5.440000352715743 13.758716829824305 12.134112285810529
S 2.722100543028406 9.14309768358325 4.971987027496099
S 10.200686263521693 15.451504990129319 9.54877995437959
S 8.64438102336594 5.769063457852711 11.738490277372073
S 7.335456494466511 10.90187134562736 5.327566948491078
S 12.575644539028799 5.394175435080996 7.8837653275205755
S 8.592918445907934 8.175816681491524 15.134690144710955
S 7.802283484390684 11.435573691131948 12.947422536891018
S 4.787035476692023 13.404098647427249 8.064684976674995
S 13.45087489054705 11.852146391430749 8.847669751253706
S 11.670216819181624 8.98126296209552 9.263357368362154
S 14.041272445195483 12.258426136855995 10.785896543943796
S 12.376046098178422 11.929331492588558 11.976680379535821
S 3.944106236681237 10.597945680834423 5.567501059941204
S 2.1133056889053976 8.031767971145397 6.758652225738214
S 3.244608606413077 4.768859960300992 5.893059895001564
S 1.7983466290479708 4.0203525904027995 6.910157841676247
S 8.568472471771688 3.6616551947378464 8.235032330280134
S 9.874868936363528 6.3368620933826145 4.654147366631375
S 5.86556576411355 9.573754245182222 5.248271687764385
S 9.904824424639553 2.555011757563481 7.180643432942656
S 13.441140993758196 9.789211450584359 8.618342742797543
S 6.809563921326537 2.471469535810235 8.404763886124211
S 11.774060833543839 10.294062540024996 2.9282563307091456
S 6.369952428153015 5.9688153568059565 6.152801088852481
S 10.389210162196628 6.426834248883216 11.332609722884564
S 11.760523940889406 4.591792077168618 10.966579381088374
S 10.40082920692233 8.620158169460723 7.628725005331829
S 9.71397867121699 3.005932750985452 5.13306753625379
S 12.529030145402553 13.767132658711594 5.5972170006739725
S 10.624600104868092 11.238115144557332 4.3781403071795415
S 8.021869193060601 11.169950866870817 7.3422918513492395
S 3.7795546076104714 12.961031349069804 11.241432864842738
S 10.524824707809216 7.168796184064505 2.9286467093174156
S 11.011159351328025 4.513698689606012 4.741605179314904
S 6.901097737773329 8.395675745752461 14.02700929237533
S 12.203104203644438 8.359010703304348 3.4353376091210888
S 13.594714348675568 5.234664706920468 11.102979368310304
S 5.224642368656029 4.092001334424277 12.796352434257054
S 4.847951248007791 5.658241762091563 7.27999447979641
S 6.137376365939406 12.478171881262815 13.602345809471313
S 5.30581285134391 3.8758127423178554 10.884645918525438
S 11.806365758371143 11.852809964799457 5.954157644666785
S 11.822939200821208 15.626612852427332 8.2887683450439
