55
Energy = -219.04695453 eV
S 10.760429950550597 13.921206633026921 5.128398084474118
S 11.264434582126075 15.72838189955222 5.791102726551643
S 9.625230870575834 10.968906365536249 6.046679496277958
S 9.861721687956043 12.728183492075313 6.787454925759719
S 13.414117120242992 15.761624137808491 6.283164433141019
S 15.313174614007538 10.790020900376687 6.423536559047707
S 13.243222634215506 8.128182444872186 5.705345766522359
S 5.572220459466842 7.355813950049053 8.357547832639689
S 7.538160817002867 13.878967811806573 6.64344115347308
S 6.758709951728218 8.915514642879037 7.5997897922706015
S 6.753120601607416 5.682704854165055 8.235233882741193
S 11.373598560209125 7.6305121989140385 6.435561549343388
S 14.03933787159968 9.607794927984413 7.226397090744429
S 7.73452452948683 15.787077225143786 6.550383727486114
S 15.085908721669279 7.854234604941678 8.260056704177396
S 10.862280989572893 16.56921391517179 10.753247151500918
S 10.304016968445152 11.84840968635294 11.675410097490344
S 5.807177359222814 11.825573855587768 8.849141785882626
S 13.524472394399684 16.85717675151279 7.88543680851398
S 11.431411123057291 6.270852916073381 7.8256674237396435
S 11.35320920366633 8.932801313125456 10.969174409305829
S 6.9991574414930575 13.43305678950424 8.770594852454314
S 10.938258544312426 10.796562904000178 10.093641714342821
S 16.334884192592614 8.646701835347024 9.611864200521135
S 6.5636815341864505 5.214969659898279 12.815517084709963
S 13.69470763608555 14.983414148130098 9.501167661755627
S 10.968524674911224 16.648321838166936 12.76092651043445
S 13.938840851970344 13.517200639807754 8.287354912790306
S 15.354145447569381 8.983669481270153 11.438515032778158
S 12.914899849112556 17.704474810798164 13.14158005211535
S 9.299040114840468 8.760367422482922 11.421801145212537
S 13.736256391773784 18.146989188802436 11.466449455722532
S 12.059511693578166 10.295259974305008 15.816102656030685
S 7.472029511074419 4.225021312375523 11.240267280706744
S 7.094284475544816 10.166442422221099 9.176926042389965
S 11.562605735649834 14.770628591844664 10.078592387956387
S 15.372962743040373 7.20443868407631 12.479282843394909
S 5.9830542445924735 13.58335306963242 13.194648590027976
S 8.126773274829766 5.54072350594743 9.788147305626232
S 14.395620004848633 12.194141247693441 14.193261314502713
S 13.578033220327555 6.245400427655194 12.110717832263658
S 7.719563575843645 14.298381202995621 13.524802178430658
S 9.052147616291764 10.288949483429848 12.690508511168897
S 13.53817762951135 13.929361256301995 15.115938829684227
S 5.730328103454051 12.081180219257213 14.759065038741127
S 12.217480179156583 6.910280411190885 13.535013508890543
S 15.33773789920446 11.180873216247246 15.602540708715564
S 12.108423123438616 5.496414539471889 15.04216711393623
S 11.540996642686416 13.470210423979294 15.168007084928023
S 8.842281025027336 4.8428380234383726 15.309659043639316
S 13.800778271028234 9.953306931149275 16.68271769351119
S 10.622891291930188 4.155232783357614 14.513593575653472
S 7.3582424096952606 12.163997725374848 15.743572523545934
S 7.990806352178974 6.167281980258299 13.966157555829483
S 11.274387758746741 12.09939379396918 16.668720827842925
