55
Energy = -220.27283402 eV
S 13.955701855988107 12.343361749176951 5.099721436781753
S 13.358355560974816 10.476519934965806 5.668170268537452
S 8.354287587349244 10.123003535369001 6.298768560911614
S 7.006225573442069 8.78441618173749 5.957977864193621
S 7.443445874726401 12.030062857162706 5.7610264144174534
S 8.786186631763009 13.465448035626588 6.179480239225576
S 16.247479918909 9.005828592877666 6.4717559861758005
S 14.457629756760818 9.681924272174808 7.244048246450991
S 17.655864876295173 10.43050069519785 6.987590439293256
S 13.023529788687018 13.734820176241357 6.388614801399619
S 14.45130053500791 15.102583142437055 6.905690077569282
S 15.69538331588298 14.491622896132919 8.454688948802561
S 18.889527465750565 9.65738180572763 8.467325952494669
S 8.387383762783605 14.079551055665886 8.18572852790725
S 3.849399375926801 9.533843729331917 10.518936083283664
S 9.414289926606449 5.310211105682189 9.445922283799923
S 11.014627236102092 5.200270445839024 10.617000642506136
S 12.988171135098378 17.457957447882094 10.682875392785125
S 6.839731937324596 16.00974871774964 12.835040494728739
S 3.839700052547998 12.858688406237702 10.488391175435726
S 10.17886714988169 11.966097547491703 10.062470281967856
S 17.541537105739174 8.214723311270436 11.092032538278472
S 5.648645355736392 8.86806449307846 11.296888868901618
S 3.247346524154371 11.189289054197674 11.588663959758332
S 14.178661764065376 8.412034167577021 11.675288561202676
S 8.921824760425471 7.527592043510746 9.398267868061133
S 11.992911567053437 11.263737261885202 9.414466173392466
S 10.157607142123256 8.392096601273874 10.5802513435868
S 14.922863710772022 16.749385379251795 10.80894329504702
S 5.266191262823523 14.917147087635481 12.622530006855634
S 14.831879294757744 14.73283034211393 10.310318296391161
S 5.227426680207425 7.247878761501476 12.511749367827626
S 10.054336783563057 13.941578247424484 9.318190019095997
S 13.38443019273118 11.616253766595282 10.909017676137728
S 16.137794610301786 8.503810062790887 12.495028815909071
S 10.349563915875958 4.845380517545071 12.621835141888997
S 5.690596386220488 13.457240765619382 11.061354878009086
S 12.21854417991477 17.538144219214065 12.60182734467105
S 18.28877548600065 10.09723348482154 10.364581471207517
S 10.763796084785206 6.509238891705625 13.709041344003555
S 12.2013330717311 8.86941867589254 16.389570610581185
S 4.745383538000751 7.8639103287256455 14.414972643883427
S 11.20685133596184 15.803882734296732 13.033337035435755
S 12.743257526391542 6.299252159702409 14.45251818954037
S 6.488345244860782 7.908894300859246 15.570920436158195
S 8.487645772897212 10.17899732292538 14.187932841441778
S 13.206826792424469 10.096189668181806 12.309458169615077
S 15.124493099602919 16.275429620519297 14.973063131911413
S 14.079521694158556 15.953479568424175 16.54308983128549
S 12.500789661620729 14.441129074900461 13.99977930943097
S 8.993490065233637 12.036978893817118 14.283064264538826
S 12.38274773691615 7.374237238317027 17.568614680028162
S 7.074367016316006 9.833001616412968 15.807475715195496
S 12.315838685010101 14.656943908664891 15.971502047940758
S 12.66094692700412 5.514414391831163 16.266860297309425
