55
Energy = -219.8233353 eV
S 11.389549121348272 10.102391544439392 4.597740581481518
S 14.567915849489063 9.975264079083313 4.7087821915843975
S 11.871968088305726 11.929223915612729 4.831278016344438
S 16.662291593460882 13.46097663490614 8.42679423401565
S 14.253279983281024 11.861623882706159 4.858236711180639
S 8.94439683082261 6.71682350720655 8.148454745715535
S 7.229323355661129 10.305980707437147 7.615769784037414
S 10.430116423385932 11.275064848763927 8.247118626309353
S 10.571354610867742 7.534742901283503 8.72539484088071
S 10.836508677403854 18.100947582162455 8.718397021718443
S 14.603029391880154 9.231885605789698 6.926191646190716
S 10.70103567635785 15.146620100025936 7.007067569326504
S 16.654472074307122 11.501681735125906 8.26138124428013
S 7.2911984862804085 7.99508277667088 9.331942192171507
S 9.758525607736216 16.28025704541965 8.264865936178191
S 8.307480925903336 11.15432178284156 8.933935133278274
S 5.659528621086996 14.835724753058823 11.087870239687165
S 16.172958633975732 13.917504287093784 10.580147013985554
S 11.17047926901177 12.672010352324213 9.498120232831969
S 12.39897065826474 17.674259059059874 9.95475214042404
S 11.71465986928497 17.775085824589553 11.918834976212144
S 11.04738085971852 5.710488663396779 10.577273771152763
S 14.530131828335751 10.880343807061594 7.962084157417043
S 16.048468419444195 6.9191242746647434 13.00213227179857
S 18.100340407222536 11.59065451086369 12.05123354731453
S 10.6472475230539 11.06916240801879 12.351549238260352
S 8.377240720528077 9.018470776905923 10.51293226238948
S 4.754905617238568 13.321380287028122 12.470023480954879
S 10.759529084467976 7.015622721472046 12.46320241952564
S 11.566527823319397 15.843721031583382 12.65109035959255
S 7.479862301380306 15.227323154224761 11.746493343403126
S 8.850205592695167 6.618654511642852 12.935807899433104
S 9.450875043595023 4.731738517191249 10.251525618047237
S 16.28105018079503 8.401913214228742 14.342832649878046
S 9.79767116060762 11.988891714763394 15.412584214278512
S 12.133353275162795 11.699047492088688 11.131336634182608
S 7.304961838571441 16.658979493124633 13.325717347422456
S 16.208825365955256 12.12777858475071 11.485849407898906
S 18.265401162587292 12.358321541284496 14.121181388620172
S 13.404149850630635 15.413206074051294 13.484144829446674
S 14.30125757742907 9.04612138400283 14.602655610050888
S 6.099579563202898 12.894773687147289 13.850684501849305
S 16.5180867515124 12.75969547987388 14.807804033724892
S 8.942034832622939 8.04471171383646 15.973347701202897
S 10.059419992195615 12.73239928087051 13.547091842132769
S 14.188090122702354 5.959434641874375 13.831126928572875
S 8.797545848646633 5.07999340363451 14.257737219341681
S 8.958206629646135 6.134385793684294 16.234901862266323
S 7.674570399913747 15.531543719362285 14.997981635715988
S 13.638893271532607 14.489818719655943 16.703385424879418
S 5.998339738766075 14.413164788160406 15.362520030440024
S 11.522680539972816 11.897009590543217 16.565564890795343
S 13.868394553288901 7.155886605491931 15.402454532870879
S 13.362419369505677 16.09523659967469 15.454142040302333
S 11.871792286360426 13.722012168962724 17.485015107726937
