55
Energy = -215.68605698 eV
S 5.818883714866829 6.0968808700524875 7.388743257318215
S 8.883555107399342 2.090131580271031 10.697086757375883
S 11.681926288129757 6.334457019204711 6.022455232877702
S 10.946287282968587 15.810069719343856 12.680335547731035
S 8.441762163417634 11.194036257571694 13.385694829950083
S 7.661046362765896 13.321628472828575 13.576823076410387
S 13.01800351227707 13.379673953793489 13.482377433229063
S 10.9059062841979 12.762580190312091 16.04083303798877
S 14.078323794134755 4.202125849994092 11.14680595021759
S 5.408476275391056 13.587393870909368 11.113540590307082
S 14.467116978979792 8.051845010225245 12.497976815406425
S 9.402224903253536 12.447781153562039 5.678456145844104
S 9.87516438167236 7.275349180137097 14.39180235772107
S 15.939334916943896 12.480135511652792 10.459306258202252
S 3.526404068937597 8.385031466080873 7.897281532588703
S 12.477937900364475 13.730749166947033 9.357313648748844
S 8.962660809678926 12.462610727242936 7.552632007071102
S 5.5803912239242495 8.015794253054008 7.45157256873314
S 16.439286595359892 10.62007055059938 10.504747499336805
S 10.964541901620798 7.678396877610356 8.874015499975014
S 11.487451725017067 5.802027907517926 11.745102057367006
S 5.225383174927429 13.240603885770046 9.15009972273045
S 17.0595831186743 8.00260575571172 8.503623175548787
S 10.624968374621341 7.514892211225878 12.423400450937585
S 3.2691273757841426 10.428846671297551 7.401727192168013
S 7.436192399357655 14.031805801715814 11.746046628530916
S 8.04584984970698 6.317911869814504 14.260999765082119
S 9.250900656945642 6.898681085911135 8.320802368945433
S 12.964971387527894 13.008113135387163 15.471181661433805
S 7.855262578350359 3.6185162990001594 11.270572401834452
S 10.481649926143197 10.915795337390682 16.461935880072403
S 12.932414058407758 15.466536269237015 13.250959447890946
S 11.810570510047265 8.303004934360843 5.074009340906622
S 16.54571624144868 10.016666089191062 8.361307593445392
S 13.599150271451833 5.655102574277295 12.306326368289998
S 15.486761553036944 6.86179906360241 8.321417379470013
S 7.302308311561023 10.103070218983092 10.404262190413123
S 10.95091930537238 9.646208253705344 7.92510995716552
S 9.185604370152456 14.729969005827527 5.072449478946151
S 4.946678117911967 11.445451702902831 7.5930912711137335
S 6.4856578699898195 7.647281334708803 14.315747462814
S 9.777648789528968 5.9237996225924805 6.255012059408829
S 8.262808076449407 10.370956423280127 3.232397804524394
S 9.077124943002957 10.928596491665418 11.574860136816755
S 10.82469579254069 16.424465049857048 10.788110538754369
S 14.387770113186269 9.708113050069056 11.479755640110096
S 12.841940811518786 10.13930551394763 7.727313848898156
S 10.763078928922317 14.573042668130322 9.432663205898105
S 7.5441295254863014 11.585020328537814 4.53413940454336
S 8.67691279293781 15.470897675086693 6.853219815362364
S 10.361632110624878 16.104078464043393 7.823218693530665
S 13.469336460253226 9.12156149259139 5.732415061642917
S 5.681808385875149 7.882811520924495 12.399046045080313
S 5.860800410748285 9.859710718154354 11.752118143113574
S 6.0394502904473075 3.321502966431484 11.831250834418922
