55
Energy = -217.71852896 eV
S 16.106269585297607 10.453985400150135 6.805224778442652
S 13.085207411209302 11.398985363053912 4.895316821139404
S 10.642244443609679 13.931984408398321 5.813333542424526
S 13.21783148473394 6.949932828606275 5.891308737728242
S 17.11260099852459 9.185433925074351 8.113771878700355
S 12.22054173825462 6.599349322667193 4.280951994886004
S 11.624878250819867 11.54079448257402 6.128898770968579
S 9.955593229862234 10.402071743261075 5.227661709893082
S 9.015058600670057 13.71134595888263 7.307409007322066
S 16.6600502740712 12.385428624695953 7.129266760662542
S 8.512133450978364 10.563970798628642 6.642500638971566
S 5.666079556634551 8.618865509284607 8.79531805557236
S 11.94175386427667 15.104853953119546 6.592311150876482
S 16.128218290275086 8.982038488651554 9.912707414635895
S 7.720867630776827 12.481071991838418 6.3513199557563995
S 12.882486435547227 10.24898378460923 9.137331596098127
S 13.5717988252605 5.1606255353979735 6.956689516897513
S 14.927250196023449 13.147945639941108 8.204513365502374
S 8.136910209716401 16.701981290719807 10.365413129009498
S 10.618334673172349 7.834283403948821 8.705661636612794
S 15.433047963312633 14.690784102589758 9.240695545333415
S 9.176203808304486 5.4824534914039305 10.633051103412594
S 5.596605875941574 11.734453179311313 9.898362834596199
S 4.73235858586758 9.667997799743238 10.101054381967735
S 14.549431114306058 5.512742382335824 8.575653244373095
S 10.890833399832859 6.0211976306738 9.599822111593882
S 9.574029156590438 12.857405160722273 11.58094072065776
S 17.305608657875986 10.06927135216189 11.25072130238645
S 5.674457895124056 9.122364383763399 12.07210399135405
S 11.804792907394885 15.287666209915551 12.224852082378868
S 10.467042788151803 4.9278682922260675 13.631998311649216
S 4.596968243322611 12.77848386103445 11.328918362280643
S 12.286379531228471 5.883724395757949 13.910077354973916
S 7.15168930681329 16.197663427182086 11.92891485484541
S 10.039156120918548 11.174951397928826 12.757528900155965
S 9.256964311861246 6.220958189792183 12.560565660067462
S 16.508441384649792 11.889785664086567 11.753657173495675
S 11.511992428450322 9.24573231704954 10.074518557458834
S 11.40386213849016 13.628134307557762 11.05327193805511
S 12.069025908406756 14.644078201846543 14.191947303864708
S 10.220213418188752 11.667902631011309 14.701648653627865
S 4.670349793393284 10.3098181497777 13.382799770956328
S 7.102898506278469 17.649767075962586 13.481686963136525
S 5.46883821078629 12.213785382383335 13.130904089410969
S 15.97622666088979 11.653348436860215 13.797356764710678
S 8.551915493491363 8.611490010884335 15.23493848853949
S 12.39130174570056 6.400460943772885 15.912050469538963
S 9.662648122222489 8.103840154474398 16.76109623864822
S 11.729888285999118 8.310770474986759 16.227942135377813
S 8.219689371445384 16.05076739966709 14.334058954729084
S 14.024310971347653 11.933206297210848 14.190966306752332
S 8.403754396101018 11.024608413388263 15.80866701269935
S 13.953562648508472 14.049557297071134 14.612490016816578
S 7.353996490355805 15.140130999247342 15.783435105809543
S 9.080189668764682 11.02368259274725 17.599177292275694
