55
Energy = -214.6111192 eV
S 10.748520169250627 11.174614570006437 17.416136634824316
S 12.356193329499733 8.69433790098595 13.050446889887668
S 8.434922973225385 13.630994587248018 12.336969815690429
S 10.964834955295578 9.38594101948173 16.702877661800567
S 8.657672114174881 14.329637626270689 14.364320938839866
S 14.411149973208603 10.913165326749077 18.548519575400505
S 10.014791626481685 10.756044537770924 11.647662350818116
S 14.056809517392953 9.916386555900585 13.414613329256749
S 12.648146343872474 12.677594904026067 20.627373798271762
S 11.586766617502066 12.621196113022542 16.417022760485573
S 11.426278607806333 14.199664007872837 20.392354040702305
S 10.723160351141141 9.826201448704294 13.421378072447125
S 14.638976590655322 10.270451450874138 10.099085125192321
S 10.670130378051832 18.272458514027043 17.105356475588028
S 10.237501608902898 12.799292402379042 11.817222034597757
S 14.394441755780976 11.744011430982681 16.81874298541358
S 8.663899468992943 16.268013969158996 14.324660300989953
S 11.827972438930367 16.9036279441457 16.20728178238627
S 15.285533998914591 12.160837211439292 9.868484085098979
S 15.336569153839342 9.438365781773799 11.906618538182238
S 11.586800234362403 16.10067669912722 9.264026642149657
S 17.40333539374373 9.683057379345678 15.314319404400992
S 16.47734445197133 13.09590154903566 20.316083075386548
S 14.406394170138617 14.484745359743833 20.380743113408013
S 13.703987698058617 13.31815496422972 10.842250496289596
S 19.218584456130845 12.060725979652076 12.112948398171493
S 14.639884194361546 13.866051193050744 16.99712941321553
S 11.353323166522646 17.981914234914704 9.741834601389112
S 12.758851152190854 15.819151152560094 20.112389805986478
S 14.841332183978851 14.536383659622476 15.178938045825143
S 11.86190549812605 19.99070744838599 16.89646594059032
S 11.320634777636897 18.16204598532827 11.881989899242575
S 19.57817976626759 12.849445846666923 10.172965421240463
S 17.40107371638979 11.746247488532974 15.521848283410186
S 14.44818241619442 15.134271652933638 10.981111655159507
S 12.676598127058925 19.55444626186448 12.50911731618308
S 13.82602925009128 17.476785672685686 17.007258101490372
S 18.27008773171937 14.309218086000035 9.737413863544894
S 20.68870676778911 12.715409897907154 13.340890236579048
S 17.36083744504546 14.855734059302113 20.067556346002497
S 18.152476341407624 10.561862103664996 17.047496294878584
S 19.265879325166487 16.22639207024849 10.162027014320678
S 13.983489495597674 16.13317221364585 8.967527117559163
S 15.676132189803774 16.129168196757295 19.908061201267195
S 17.28913462677642 16.84312973024487 16.279414774890196
S 13.30977613380396 19.08103710148317 18.116194833706906
S 17.40699470892003 17.80508303876022 12.376356775360819
S 17.8263397144797 17.57193782088847 10.203098454565692
S 14.336886358132134 17.99594460407401 9.21188677506382
S 18.290463850171015 18.638845117374164 16.63036757798596
S 19.795819221940274 14.43190557268629 14.30922516255876
S 18.582660744347425 17.015848178710044 17.9004023204273
S 14.318152218721796 18.744451472361618 13.493299834835735
S 16.178813282526654 19.363597923626784 12.686971965798259
S 20.930157217507546 15.983232981764024 14.092782641242481
