55
Energy = -218.27689096 eV
S 15.037824380327834 10.767809098109092 5.548513840158448
S 9.87807875115665 7.269881314766185 5.710699698990917
S 9.632551995334858 11.876088479292962 5.596014107122782
S 14.42215985697762 8.720864040196602 6.06397860003058
S 6.7769246912524395 8.325697536154351 6.2837825167694
S 8.88585864435 8.37113061223637 6.989601362992025
S 11.924784932035438 14.341366738646784 6.034063220744677
S 13.346437907462606 11.58167803556206 4.886058396902801
S 9.665664649194749 13.741749464497964 5.256219577410368
S 16.02681737808355 7.654794625013546 6.210475141352787
S 9.638953723974298 5.148947252826528 6.6390371844243425
S 8.018173170340885 12.749062821630622 8.004767179892255
S 8.272283962027714 14.487559052434746 7.240584018703233
S 12.452581377968658 12.570457561043572 6.632109963489035
S 13.192074909267184 10.741199133697615 11.257952323983963
S 13.81536452539148 7.716693567307816 9.581447439551116
S 8.555045919374383 5.397472341003299 8.190901203785709
S 5.7385626299359505 9.368499294571826 7.52331958443897
S 13.370175555992768 5.686594930404151 9.177867829082487
S 16.57876188573765 9.480378470290262 9.220183850025848
S 15.906760895087604 7.604959962378969 9.651830345988031
S 10.20098599128151 19.728048981632135 10.918358740189829
S 9.72425864843284 18.284922670771167 9.220957644329259
S 4.736942765381042 12.323693131964832 12.304361849327274
S 7.855453409276119 9.32056214948631 12.887189061137168
S 10.691226331809151 14.106523367838095 9.57170360700948
S 9.57253823827463 12.465868081480785 9.652540253037115
S 14.930955354977284 11.821253875861176 11.024332447830835
S 8.730280559900049 16.840251409349428 10.154982375813923
S 12.269010824134723 4.979024119964053 10.611216996088016
S 7.331819315529302 7.607062571804188 12.084641872684864
S 9.047571749415859 4.943084865989229 13.047011860888665
S 9.583665507590686 18.92696208275712 12.542068688918116
S 16.532755894773327 10.513290180246381 11.049007457306189
S 9.20842888177987 6.484779852624434 11.842894195688874
S 6.22957740766192 15.274470735829842 13.0062840316856
S 5.134543876442064 13.969643027298073 11.421354688514672
S 12.559410273361785 14.446431461927439 14.195613093519151
S 10.075801653023237 15.490983103635585 11.018215603736914
S 11.682312732109825 11.217725431393124 14.240764426078997
S 13.041301677358671 10.07468045813083 13.219224517615991
S 15.512292962348718 7.061450876475383 13.941421508615907
S 9.584192713849312 5.810992473090815 15.089001481197883
S 16.81035432282014 6.425742861373849 12.670402428620863
S 16.27008877071002 8.677191767131756 15.063509722309348
S 7.179643872554127 7.149986933880714 15.410480092085887
S 12.704810205131588 12.761421656020255 15.253736201892401
S 8.073445688708402 8.806351945139186 15.105099024745194
S 10.586249278560597 15.340066161806611 14.74543539969999
S 6.270137679354287 14.0684708514972 14.546399504473323
S 8.1628624415989 12.919658337059536 14.421422082017237
S 14.92251593059664 9.338193607820871 16.27543209173328
S 10.487629306178142 7.467663955601979 14.813321352489655
S 8.879949564927188 12.846819720418495 16.245431793764933
S 10.11238913915589 14.735087670916425 16.538021229395305
