55
Energy = -218.79488693 eV
S 14.641885501635663 11.06361081780561 8.831760563110185
S 8.485505829038255 8.924212210588319 16.68769499373914
S 7.020832935610022 11.334840539681895 14.867239150956902
S 10.327521489044145 15.268316019393867 9.98743322482864
S 9.079116212850217 7.286621639800932 15.323470369957143
S 11.975776018116242 11.615930550011992 11.457940276606232
S 7.423863617919111 8.660879295756047 7.095886858992759
S 12.504668666129547 13.622944884922056 5.84565722853236
S 14.017880348314277 6.331049208578124 5.575301232776897
S 15.504690814326398 12.161395221047183 10.325842791005778
S 7.127579243555438 14.49253731004862 7.543617565611432
S 11.770895234697784 13.328488263030907 7.694485885511424
S 13.255852054230916 5.499373842786994 7.22700616484231
S 5.472493148566206 8.136523726849164 6.610710332181985
S 10.429925924128282 5.477511487208886 8.951187262987215
S 8.850465760331305 11.70918460013201 15.203224240089948
S 14.98010367687393 11.386232691147331 12.132523866619918
S 6.645027637882386 9.347458393917849 16.238589740474676
S 10.283694818778192 10.229046022908374 4.330521246417107
S 11.53931851121404 8.595657973418065 8.100119788069662
S 7.492763581825065 10.079483768775477 12.596082240393793
S 5.19555023528906 7.306762902965832 13.127032770716475
S 10.607485740698992 6.458021987348817 16.33655789170009
S 16.136232835072153 7.850484415506134 8.974255252419676
S 12.32196721665985 5.269634028618673 12.654674859424542
S 10.047408147010472 12.023108751404433 11.556238391334364
S 13.192835952185815 5.500015900898692 14.517017529962919
S 11.470247863363282 15.4021065526431 8.456119059008547
S 15.624249047333079 9.46112602360097 6.008080815491726
S 8.276390191810277 16.254770756430197 7.997820243961006
S 15.81736327119255 7.517822137512914 5.924383325194545
S 12.781680151357987 8.236550999726072 11.204154988047762
S 7.018565790589271 13.33157988375931 9.247010479374492
S 13.232630170800299 12.866068277889829 12.839257985842618
S 9.818655388440433 16.29041363090925 6.80337482182332
S 11.039221089022826 8.380095068668245 9.995324781375244
S 13.052493094343887 12.36344118323168 14.794422964083232
S 7.692985059307155 10.579967557951218 6.372168441584139
S 5.253530275785167 13.67839524094914 10.153295566024562
S 5.494204575000511 5.609640792509361 10.211771205694033
S 9.393328224369146 10.296516441282442 12.805428556061566
S 11.178602956898702 6.320551095616839 7.4058858619176915
S 12.413915888380991 7.136438529931613 15.485971886173555
S 4.322632525064068 8.201215058946822 8.328044820347962
S 10.856081604080613 13.602471458108903 4.527935927864907
S 4.020540817019776 8.789258327899296 12.695940288901967
S 8.211211094715987 10.348377861995669 4.386529635643979
S 11.551213819846987 13.74234728698052 14.240401639835138
S 10.993286745901951 11.919779628673453 3.3714393572249666
S 7.522749790998161 15.244019208195713 12.140588312208312
S 4.6515990690652185 5.52306874171001 12.073971450443423
S 16.3055926966983 9.663051441784262 8.389825716077672
S 4.044341022423662 6.226104630084222 8.85883071993405
S 13.442161166547706 6.3070789194551455 11.253156459480756
S 5.654109164869855 15.213248450582928 11.701606199570225
