55
Energy = -216.7411406 eV
S 9.725293417563492 10.770806578409841 3.403084903488277
S 12.768964773882136 11.921298664313918 4.073116911298203
S 10.863580119689129 11.39960557385274 4.820380103641884
S 13.898621247265181 12.601013847261463 5.480233531087628
S 9.038267005462236 7.2144069234942005 6.284180052418548
S 7.770960396869208 7.8759540731728 7.759109108585583
S 9.06091235132526 15.467846472195296 7.394684144784066
S 11.613965888432245 17.18918352303548 8.910625280248555
S 10.662524358515627 6.410259257992101 7.3514918795609665
S 6.495099185659196 10.926928591819296 7.4521067101832275
S 16.665530366697737 7.958719087300332 7.860391911728317
S 12.393483475380943 15.568172285356615 8.09109572226983
S 10.726372313112522 14.434001760509657 7.123810847081871
S 12.479424695607774 10.804897002190858 8.507786645451109
S 16.901073383781 11.236026462324208 8.242699459342571
S 12.19468826729401 7.723069278842477 7.457754986764598
S 5.612068385483818 11.606181512820877 9.139449308128277
S 6.049768304668508 5.719052327725591 10.911654506121943
S 7.521449413360757 4.7879852152934115 10.088370980574073
S 17.598446303241488 9.475389491343064 8.603889032035957
S 8.317995471504464 14.993412892141595 9.34311870782408
S 8.209041772079228 9.893074916312015 8.057622631643328
S 10.775634847075834 16.638365542752304 10.803816644148052
S 11.52726133985761 9.07324761579984 8.998754638443485
S 15.573440784452075 5.947499414012216 11.393589575275946
S 13.09788867692985 12.410172961597333 11.243675375394506
S 14.10040318645116 14.11659809652319 11.179695931659362
S 7.599914035626047 12.806235178235449 13.60568669881583
S 9.63292736033986 10.851359709652332 12.034188762625096
S 14.43374250308254 4.355076330939301 12.559250024360116
S 11.28461512158231 5.390549272847021 12.132857999376693
S 8.612008953561677 3.6449626144775413 11.200899986170851
S 8.763072010729594 16.6794919721517 10.41964093209222
S 7.607671880260849 8.334603874158454 13.48558412560472
S 4.808389724272157 15.221613291736526 13.717224167109634
S 14.008491541017593 11.03964065935313 9.873684759030573
S 14.817812059255944 7.641310250821714 12.032971310979013
S 4.317185927074547 10.006972672151596 9.850842512286189
S 13.001417799295861 5.300955389839064 13.504547762126865
S 13.734677929246839 16.12798032251939 14.364636697727452
S 15.593362865657664 13.975126366459572 12.854581403805522
S 10.603252667076765 7.258505967494975 12.173891017889428
S 9.734380653174357 12.15023178506384 13.447005858056343
S 6.024829288451055 16.663990549084122 14.043595113389037
S 3.838220194502189 10.461807821618763 11.662169099162275
S 9.01397216866371 7.092632901377741 13.818339439095793
S 14.80617886099377 9.218986190385708 14.993019832993237
S 14.73333199954712 12.907612465092894 14.232415328196218
S 15.941801284072012 8.12556041787251 13.884399005189117
S 7.911676835536086 15.82912040108263 14.949393536580331
S 13.367865971010863 14.490574283606135 15.277409814394668
S 9.086642794059623 9.674175397085719 16.01220894937437
S 10.133830469037791 8.016304564499471 15.767112923897523
S 10.191720389649712 11.333015838672665 15.4934693965401
S 7.430039812626259 13.913626974374829 15.307976844993581
