6
Energy = -17.13604458 eV
S 5.627024471444447 5.95994304738413 5.3192167604229
S 6.84397404941428 7.9627969159533025 5.38163066927189
S 7.887697484294333 5.443222276870463 5.619395964814106
S 7.068783118394718 6.75041056537401 7.378195634708709
S 4.80379109114591 7.245781385683938 7.092233299577106
S 5.867214743016066 4.736330766443915 7.3078126289151655
