6
Energy = -22.62985624 eV
S 10.377578081888862 6.7785551308978125 11.400273714008879
S 6.9651122654944375 9.188793255528516 8.158709112959517
S 9.615409144553901 9.64755084873322 6.338482272079497
S 10.064248728290458 8.464007643766703 12.223006599375958
S 6.610311007645828 8.606166747301511 6.378389880235225
S 9.018637796263297 9.901737034128773 8.13153370570286
