6
Energy = -21.49187917 eV
S 10.697983242439607 15.097992073653003 8.356414647234635
S 10.965634615197558 13.76935854595698 9.69327062507118
S 11.357425002035097 11.540861640531453 11.273976467955833
S 11.675008238468056 9.834936139137337 12.0750662471433
S 11.418673140351073 7.480946826483833 13.27814255870529
S 10.661180908227538 6.0210955447181655 14.237856203151965
