6
Energy = -23.03487714 eV
S 10.386378938148479 5.790625464124273 8.018293857211871
S 9.989404182661547 7.654639824637418 8.272217939281228
S 8.446821742867826 8.354670557816602 6.82027050215273
S 5.020723713755538 9.616477187779733 8.018293857211871
S 5.417698469242338 7.752462827266463 8.272217939281228
S 6.960280909036297 7.05243209408728 6.82027050215273
