7
Energy = -26.7307996 eV
S 7.228435868573872 9.587376208293145 10.067905196524457
S 8.301416279529791 7.775059659868711 5.834736932952339
S 8.169741670766191 5.902536468821757 5.389530423530931
S 10.023053412231663 8.463824088283943 6.354314551947172
S 8.011188250617067 7.551282451144136 10.243266505138475
S 5.997012309685705 9.487491769052475 8.619330554803055
S 7.0903762926552565 6.594823798785467 8.876037120169034
