7
Energy = -25.68145906 eV
S 7.382687620060064 10.365550879342857 8.205960687410595
S 9.236299604603369 9.232229142681867 9.228577463489204
S 11.08003279725597 8.203615131690876 8.114242754152778
S 11.098609163533315 10.270674497043554 10.363883895081438
S 12.407565178580633 9.234270801639525 9.23251192153227
S 7.379842715337309 8.110935076276105 10.272264049101432
S 6.064893927507626 9.232655478203496 9.232490236110413
