7
Energy = -26.46749846 eV
S 5.881192763940981 9.117198412040448 7.543838860884026
S 7.969981745157179 6.2820167058476315 8.997386610929553
S 7.795277522459006 9.297425119751384 7.557406409167123
S 10.089139693256303 6.967631412243696 5.954482973544789
S 8.773060868485688 8.199416403844781 9.169923032133822
S 8.421082182307376 7.854269221897108 5.683853583067196
S 6.192170764344245 6.165486958243571 9.7801438619308
