7
Energy = -27.09138951 eV
S 6.108318809247247 8.555007319033855 6.843413098487754
S 7.446713861708158 8.171132458948213 9.857331386885248
S 10.315918392992232 7.928684632650628 8.02501458594468
S 10.623392534077269 9.826399287657939 8.189711177943598
S 9.181589248049551 7.10551741485669 9.680149449289779
S 6.010835227757251 7.359159962718573 8.639724310112214
S 6.668688281250802 7.491533188250832 5.325900264665238
