7
Energy = -26.16925978 eV
S 8.220439498220948 6.834139640170706 8.602874334111597
S 6.877587516150763 6.41765857070448 5.605900865671489
S 7.26626383496181 10.815807059144829 8.722472456568497
S 6.489265439321366 9.606482309140356 9.971617333007762
S 9.442453850160714 7.616748388731762 7.094470328736246
S 10.977820438367102 8.466293746035177 7.905475525717551
S 6.582075126763866 6.129109307460562 7.496805017554269
