7
Energy = -28.39678664 eV
S 8.578812067500014 8.495628837179751 10.966848792933234
S 7.772144897284553 6.57843131071066 8.405733868130122
S 7.057822339339432 7.395043380805671 10.139725460022449
S 10.241836376712987 10.070610164331672 8.56774878037399
S 7.778800369321479 8.26063794167269 7.077583049994451
S 9.655832262386168 8.806566752401828 6.8093454055881715
S 8.64688374604412 10.236781313613129 9.725508149491397
