7
Energy = -25.86307107 eV
S 11.437640529180765 8.75971554383044 7.719326481863245
S 10.063758695774194 7.908626388345198 9.78060417833708
S 11.32989630788994 10.591102530228895 8.205662236338476
S 5.417541206069458 8.463532022290257 7.6209033903556795
S 9.756931886363427 9.645684629297016 10.486462746950854
S 6.3496971999589995 8.452993579137969 9.485394117863684
S 7.103267499051783 7.2806379982767035 7.961248111233286
