8
Energy = -29.60495138 eV
S 7.947357300266157 11.156163120878267 9.49261480062704
S 10.391599237646346 8.362430906508344 8.71050977237784
S 6.534109277954847 6.4018395307756375 9.04317746789072
S 8.23216848429555 5.55602689980993 8.964012678801383
S 7.610345158276298 12.283881093692926 7.97663266119818
S 10.316542952145488 9.94527850124557 11.53538401980215
S 10.200277304970465 10.582550296991814 9.724118353720954
S 11.029847718279255 8.066375152444683 6.931754900419237
