8
Energy = -30.75038236 eV
S 9.952099544387746 9.827324169977206 7.012657588558562
S 8.5733255841734 10.604812003049584 9.89663952712226
S 8.190935169596386 9.919557607128551 8.019915833703736
S 9.418583606679357 8.774667589236604 10.837725751075478
S 6.3067570182918145 7.049510363539268 7.80222776367229
S 10.892718841396814 8.04911568056215 7.982287034236093
S 9.417437254760802 7.486261970501923 9.26090116836772
S 4.94135465293656 6.031008858214426 6.949895135870851
