8
Energy = -31.28579816 eV
S 5.917534745171227 8.491227214277473 8.554543665597166
S 8.17913795998024 9.868253768868856 10.560763307443672
S 8.783909891902265 9.718436502174434 7.1126799177233195
S 11.795368467640671 6.985747155940466 8.68690653380452
S 6.845750973332985 10.155859678229655 8.725525581034933
S 10.005719014995005 7.337678949649501 9.292839833652906
S 8.604103798732451 7.818657664147841 7.237982753490609
S 10.013516418735007 9.450306459452099 9.897900189946288
