8
Energy = -31.23057192 eV
S 8.142121811652823 8.318459941273153 9.591600980859608
S 6.607583779572995 12.391479434323243 11.66992094216219
S 7.987396245188005 11.52337768574149 10.634460336785503
S 8.130474452596312 9.428580687786955 11.266609285866027
S 10.202876358654663 8.032070229476338 9.048142910013889
S 10.52757066183392 9.017384358297914 7.361827997766908
S 10.100521692364493 5.73478596173955 6.582620519919486
S 10.185690302466067 7.446199461124423 5.741242375352813
