8
Energy = -32.29161788 eV
S 9.648129674617856 8.54889721988144 9.645708563993358
S 9.486155013395978 6.5602964731305144 8.539524531848626
S 8.987812740410682 7.719971727322439 6.131344203268493
S 7.784404065732584 9.153138290322762 9.809021657071277
S 7.2825719601612215 10.049774754976779 7.868744287631599
S 7.698904142632519 5.918444593243003 8.672986497714774
S 7.1668853824447725 7.158476237936495 6.198108322170393
S 5.931152952282201 8.856878970643809 7.093145530621136
