8
Energy = -29.64543648 eV
S 11.170547111497791 8.489248032223983 9.437635504865948
S 9.87031238322274 8.048251961597279 10.758291873087686
S 10.692736852628665 7.890907140551093 7.389017483007245
S 10.53613800158495 9.907779897788972 7.9048647705607635
S 6.96935771647463 9.097532831405296 6.2791736953586375
S 7.31619466893982 8.581650700712268 8.084925863929481
S 5.948110954523015 7.123665074245277 8.945866760983774
S 5.79666032608006 9.123255788586665 9.545363015249668
