8
Energy = -30.84976273 eV
S 10.863866642919179 8.602789294580251 11.89320508731768
S 10.952407064619132 9.024116843950605 10.020102393561203
S 8.830242858351243 9.372127886340506 9.377529727946492
S 8.343213183312761 6.660392176616124 8.97261895683779
S 8.079887037360294 7.091559032903408 7.115310289761854
S 8.762684719599903 9.714308882929009 7.488532437238973
S 5.399136182930616 8.732884658889947 5.636551409104172
S 5.848902807822209 7.483416644091802 7.028872878765913
