9
Energy = -34.58309708 eV
S 6.545536062531263 10.02063054268926 7.35617043034995
S 7.770210604229208 11.676909388502839 8.25892601702114
S 9.113230973289214 8.017990146764726 6.955552497571821
S 7.9563568837598835 5.863640463033573 11.425755938906066
S 7.195690508831317 8.403840017331657 8.254922011181497
S 9.419240971506365 6.79257678560443 10.640493057252622
S 10.366386197422162 9.725702557752236 7.9301352530155
S 9.096334019629372 10.536454041980644 9.278552920419411
S 9.954132840953793 6.329091502829548 7.269639279923218
