9
Energy = -36.03033635 eV
S 5.796772587415014 6.8271507828304125 5.310668310352997
S 9.111984951923688 6.521587704871756 6.151462942980019
S 6.234005321023531 8.78756891948015 5.447992991167496
S 8.235575990876407 8.977196768927834 6.465042190478877
S 4.579071844449019 6.222614118520524 6.888721717325362
S 7.2200534087903705 5.119476480692118 8.671125357962163
S 5.678989969884059 6.428209121570354 8.637283716706351
S 8.124950746046315 8.896223460636707 8.375095628843068
S 9.02324110173793 6.224618564616471 8.0572530663296
