9
Energy = -35.47021414 eV
S 6.362713933086205 10.02883042209394 10.338027630656645
S 9.779864516657243 6.356662948759626 8.133464716630217
S 7.93809174724129 6.709671785634336 5.336008023158115
S 8.003258161778469 5.603978051469146 8.359008761238412
S 9.68234440952231 7.250034080132691 5.945927696883929
S 6.566243849545695 7.083154352136905 9.127812724659831
S 7.7717683925900785 9.612421608625002 7.075013338663735
S 7.630385255400012 8.860188490792998 9.47397590923309
S 6.547216614028443 8.473801931949508 6.128236884390854
