9
Energy = -34.99196866 eV
S 9.524827357210148 9.83921746948345 8.436460175988483
S 8.433813255288957 6.106921909877598 8.548376842639566
S 6.506292803454393 10.01383976854738 10.034010965470019
S 8.915062772156697 7.884110945740495 11.263594438223459
S 8.838716566896093 6.955110337998443 6.805373359739516
S 8.290010807219307 9.988963994626172 5.3364307997294045
S 8.412490910637713 10.030780715376393 10.270283373033683
S 8.010474387239546 9.116703213181584 7.019129180764265
S 9.933129458110033 6.832669074132481 9.946225065996153
