9
Energy = -35.52612167 eV
S 11.647948098716638 9.487585832001225 8.284724606056153
S 9.1455776630417 7.599502302668471 10.189454078451687
S 8.038118713716678 6.2580061443555 8.93786329402795
S 10.914228469109748 9.876880741531691 6.577542705754088
S 7.7141003003726825 8.905116774602174 10.860278281651679
S 8.442973463745844 6.7229962982175815 7.052587618209157
S 7.2456593157973215 10.160028294610205 9.307024021940267
S 7.0956584913903065 8.42031382166976 6.473026424183885
S 6.028247181005709 8.90519782241045 8.064712771263963
