9
Energy = -33.77889667 eV
S 12.736255184934116 11.411229318497936 10.61210873352655
S 12.977545525804679 9.572076120999503 11.132592706820605
S 11.436737642113258 8.580399525797395 11.72595866390675
S 9.886581207572188 10.139144527701102 8.75032782678781
S 9.340501409214642 8.308432351993456 8.517601969774384
S 7.066103717078178 8.882515921481671 6.172095741705386
S 8.252433305208628 7.556276245881029 9.923873688884367
S 5.761949844704726 8.860808689460852 7.5990616033017835
S 5.986832135917696 10.156718147077653 9.009643426089733
