9
Energy = -34.91945801 eV
S 11.406565482875731 8.90085387230214 10.16920632180737
S 11.557033473620763 8.05135663328697 8.362815658197178
S 10.270002861617616 6.239071036178498 8.690430083460468
S 9.736561875063154 6.539412118697664 10.592425083328354
S 8.362975612727862 8.735746941785 6.358961896936413
S 9.35964776783548 8.609950623083574 10.592960986873594
S 6.785980646955561 8.90698689530773 7.446908017606641
S 6.064169209149397 10.901205061299569 7.3627192629527825
S 4.44904068527719 11.115540244871859 8.392579221841562
