42
Energy = -89.79311975 eV
Ag 14.328684818255816 11.94762521825685 9.701034730811394
Ag 15.737447258013708 14.242639097426524 10.679022898113836
Ag 15.9883936224805 11.684697464564982 11.935217260124517
Ag 14.606533464647091 9.33478765838026 10.769619524001062
Ag 16.220223854060748 9.196351727343556 13.069794587539539
Ag 14.250910463765937 14.453481310268069 8.239302837712565
Ag 12.513978138297782 9.901806601447847 8.97877927721139
Ag 15.846152016471665 14.065401954762423 13.533464659147496
Ag 15.613823801667216 11.504673461683769 14.8533981116029
Ag 13.330762765255443 11.926994801888519 7.159446025049986
Ag 11.568107385734832 11.49214593985151 11.151283025399715
Ag 14.492341336485136 8.849403996297621 15.233255347910111
Ag 15.50606993170935 16.52206529642779 12.26331011784406
Ag 13.30904203527171 15.796282774888093 10.672320805274152
Ag 11.799683740027895 14.167139216708048 6.662829268546749
Ag 13.915583708475811 7.539818131959503 12.84632242913393
Ag 15.5578812452667 14.129898055786839 16.27897591275679
Ag 13.468444103697538 13.256770352175634 12.052687709101994
Ag 11.818116728198724 8.655543604051907 11.404719471888091
Ag 13.494189290696422 10.541549844758835 13.14330151893137
Ag 10.613090739150048 11.683164672803343 7.91445707568596
Ag 13.414383151344243 13.180603661513336 14.85904507506446
Ag 11.845091450683165 13.789690966154412 9.381657760155491
Ag 9.248727893114188 14.081225399644325 7.70940722909192
Ag 15.021310930734055 16.340399300231454 17.735122672521864
Ag 7.857480845525736 11.447447925318055 8.414197012265705
Ag 9.683310662969896 9.868126739004907 9.885782492520695
Ag 11.690272044365525 8.594732804939534 14.306706943052843
Ag 13.08237365036916 15.739005051306444 13.517761879534552
Ag 11.079353845537238 12.141585542932235 13.824153813509005
Ag 12.64641919569777 10.702890885207045 15.947644087398803
Ag 9.305625043103703 12.970177095003974 10.24146539668564
Ag 10.940623003704392 14.570219572263378 11.906921349807552
Ag 12.847060766270257 15.392329479822612 16.427701037415545
Ag 9.623185664184522 9.842176909488202 12.773308894823728
Ag 7.546235416107692 11.139911358062763 11.315980528670032
Ag 10.640360858404575 14.858948032091789 14.65252860205247
Ag 8.635461524684928 13.355748753297307 12.9031107712395
Ag 9.834034822730075 10.380531203208152 15.597798765936712
Ag 11.2657299675961 12.990978388044525 16.694484844319096
Ag 7.45410411351287 11.061423371331278 14.085799092358448
Ag 8.698346111613326 12.998557789287636 15.615830567673306
