31
Energy = -64.84227428 eV
Ag 10.28764082981574 14.584293114486316 11.516833435683438
Ag 11.832683483686434 13.732216979851593 7.137758108706007
Ag 11.268084428267416 13.246240656461563 14.093149867786668
Ag 15.359875066939507 11.431863846705067 10.685263095916179
Ag 11.858242887496209 10.801907014186227 7.564038929302139
Ag 9.752614586647816 14.852496690678585 8.781612077463372
Ag 10.557954147940807 11.595223519869176 11.996450963937322
Ag 13.915756576549132 12.724521532715372 8.723673135917329
Ag 14.838830933835164 14.21902265048712 10.922421548844417
Ag 8.514667952244837 12.677660879281307 10.280049960764014
Ag 9.362270033525428 12.305731168773262 7.546843936369096
Ag 12.501730634729089 15.146545274292142 9.698503054271116
Ag 12.733284787716613 10.228149262799757 10.193003821810827
Ag 9.797863816769755 10.154489485843138 9.495325991873544
Ag 10.349003862270415 15.842008253700998 13.924242098735906
Ag 11.49912787775977 8.136170571292368 8.697783196681659
Ag 11.283172257257219 12.64788700196507 9.600359236902595
Ag 12.787608523678909 15.193570462200073 12.563202752471588
Ag 12.932846265556165 7.435548019344809 11.03087225091681
Ag 9.293288833259993 7.575998600217055 10.437262239931394
Ag 8.527632565863035 13.07241587042494 13.169921567528343
Ag 14.179913209142804 9.64168724750533 12.475191386590925
Ag 9.209407562251254 10.533607777299151 14.24975553602415
Ag 10.929217139025829 8.916940498359823 12.21849555540318
Ag 13.23430305911666 12.354842650430669 12.234985239380087
Ag 12.143040384501155 10.510784501975841 14.280491439345402
Ag 8.094735246924287 10.199938422675242 11.704226410399585
Ag 10.76535125615447 6.227804508869409 12.60212314682121
Ag 10.528198623762322 8.222115150249655 15.00963721775049
Ag 12.945366874581731 7.673474901350561 13.887200716808005
Ag 8.453988208199792 7.878825081929968 13.179808671956089
