55
Energy = -119.89330706 eV
Ag 12.069224084162299 10.985333714109318 10.094242406602124
Ag 17.60941176441047 16.860302846670844 9.490357099446452
Ag 13.898285549382486 12.757678158570185 11.25978633576496
Ag 15.584817673438646 14.670435751747855 10.02438501650915
Ag 15.408937410433749 21.38706926982154 12.464171839360972
Ag 13.120212691059828 15.698861229171397 11.306372070979252
Ag 12.872175380516278 10.53325783534617 12.751853601134103
Ag 11.563439091807117 13.77687616666939 10.035060092731587
Ag 10.752844625315968 12.22683837284778 12.236543934350054
Ag 18.38816587586154 18.01711957775491 12.023125126103043
Ag 17.848429091724725 15.262607106192014 11.69552887030886
Ag 13.905450807749961 17.150731706502576 13.730011036517304
Ag 16.062987735357105 18.902561166693598 13.34163385088592
Ag 15.144854541937816 11.917024342124135 13.833857212611203
Ag 13.66912395826175 19.18773854193901 11.735899324300453
Ag 16.810607273723395 12.557018277482666 11.648822076370502
Ag 11.457724339037993 17.651621285415462 12.623432741007292
Ag 10.64220127092277 14.985932260421936 12.462510167156942
Ag 18.147608017229658 20.653497769453104 12.99039777301856
Ag 10.503058440992373 10.551656428643565 14.460239514975916
Ag 15.610653058079459 17.110374330168405 11.33606059806582
Ag 17.724965218186348 13.77774572625366 14.02603015005547
Ag 19.354193831769717 16.139912754041067 13.934070956361415
Ag 16.606062663022797 16.316418698790716 14.71190397689656
Ag 16.386621919684682 20.965056316377648 15.167268928127939
Ag 17.765044994083716 11.118471103338358 14.425486731855836
Ag 15.792668485231019 13.678174975857896 16.212057786142953
Ag 15.67773198891651 10.831817889613456 16.397382924914307
Ag 10.277553257839886 13.299803029367544 14.86343648946412
Ag 20.071581668669687 12.867046384275874 15.042804392261194
Ag 18.227857796526212 18.56558006656807 15.053817647111613
Ag 10.815906413282912 11.53193369947029 17.134091745739525
Ag 11.487645162264245 15.884062713179093 14.969582013717783
Ag 12.848083857783285 13.618041668875513 13.797153351882153
Ag 13.052369555250964 10.925014439052218 15.483489986184573
Ag 13.712387227236015 20.030919624901006 14.451298871125458
Ag 15.411466073084819 18.510646362476237 16.19145681073005
Ag 15.268119633717152 14.660279282738065 12.94211046005939
Ag 12.59492604671944 13.596561908573648 16.570903440760603
Ag 12.541742136126453 18.188053299672358 16.204248920880392
Ag 18.66739998680287 15.010371603190247 16.382051726437616
Ag 18.1726219731833 12.22893508913363 17.014981518115142
Ag 16.585633265980118 16.393219753303438 17.61263570359515
Ag 13.496481004152258 11.418809639173663 18.19794621786806
Ag 14.173984605480598 17.372767650747832 18.610034436931244
Ag 14.13402278557452 15.867944567493739 16.180124904241985
Ag 16.104496057481263 11.86243345513195 18.949053328545936
Ag 11.836518898237822 15.9295595653475 17.89387253164608
Ag 18.676058512917407 11.831691498929482 19.877993236506267
Ag 17.742853951351066 14.259491851366583 18.9281057959081
Ag 11.733409724993098 13.36445352756581 19.22865055360826
Ag 14.385317871745592 14.394792685312092 18.65735529836612
Ag 15.968479504857214 15.910023461755813 20.359386490558112
Ag 14.034862891662394 12.54830967763972 20.737794505904493
Ag 16.6529455313162 13.309347069276711 21.299354655832072
