42
Energy = -89.96154229 eV
Ag 12.62915400997804 7.770320077017506 13.891266740764008
Ag 15.23550348675758 8.629405287439157 13.805952828112273
Ag 17.81285346950774 9.49648614218071 13.595886329350208
Ag 10.39599023698823 9.23219831973564 14.72166130611547
Ag 8.214873625297134 8.513593202329462 13.123000340186682
Ag 13.3430203557799 9.465253256367454 11.761299394814088
Ag 13.085469840906276 10.372677541203075 14.852098333965317
Ag 16.12833151763633 10.088078517332193 11.506541965463118
Ag 15.961633503482012 11.030888951178408 15.020933378540624
Ag 10.611252718880756 11.821201722456644 15.76080841223549
Ag 10.727234908951138 8.392139474649786 11.984250983437263
Ag 14.561356154773772 10.181331966915726 9.222663430470096
Ag 11.644501538306793 9.310088021633504 9.569976029572045
Ag 8.55595170231747 11.190400729170314 14.017636916454858
Ag 12.50131127914491 10.928152084605067 7.446857257209329
Ag 11.357436620876404 11.485799244313943 12.793247848869491
Ag 16.958999172087616 12.491785023960801 12.818898760391871
Ag 14.13566740118658 12.108321041206757 16.79217198518339
Ag 6.5231895551224515 10.48665528063208 12.245255849854061
Ag 14.185791386054031 12.074578700603295 12.707400774019092
Ag 12.641096478759962 13.278298048899888 14.766683198455548
Ag 9.115139391766304 10.521861621381282 11.122931950983533
Ag 15.421434639950679 13.799823421583236 14.805821083678183
Ag 13.776343095729098 14.977825709038306 16.779006461685054
Ag 9.995195093013107 11.3085496924736 8.580745092809725
Ag 12.641760325739837 11.956914023717227 10.209481874535706
Ag 15.585705031222586 12.612203495614809 10.299162584076468
Ag 9.864631471407641 13.804856571752602 13.752476380097123
Ag 7.793374852864534 12.971201432514867 12.023998901223154
Ag 11.095138459297502 15.31981255465968 15.786739679315028
Ag 12.306514785062811 14.193113809962096 12.080100402565398
Ag 14.483034647280467 12.800448189645666 7.756279206330663
Ag 10.10045988373457 13.179046357436963 10.583408722719138
Ag 15.113811946042691 14.74699339491152 12.111866316535727
Ag 13.481840527817855 15.918764804320169 14.154734312296934
Ag 11.695134810325818 13.606758527205713 8.098952538484298
Ag 13.743505125862697 14.72711956519812 9.672252701138738
Ag 10.863970801451865 16.52333275559996 13.307938823006163
Ag 8.907140293043076 15.547017426895724 11.587418649285539
Ag 11.081690057406677 15.742635545082623 9.789606584876436
Ag 13.022891050694373 16.885790905695536 11.53492797656726
Ag 10.148679767126747 17.999151202813756 11.085930182440407
