28
Energy = -57.60357823 eV
Ag 12.91539091276867 11.004644228815486 8.393214861339619
Ag 14.539047556343261 9.820491861870629 10.6504764656812
Ag 12.392042818427058 8.390611632900098 9.733927644597044
Ag 10.267849166842693 12.417588034971605 7.997184227982923
Ag 10.28911096941349 9.645620634927832 8.527066949421371
Ag 12.300957999886453 13.879545594961275 9.134745168836076
Ag 14.317132052688395 12.628825258209574 10.488813265494269
Ag 12.582625540411684 8.501755857711355 12.529070139547649
Ag 16.152626185871117 11.539335504716222 12.295852195511456
Ag 15.173606511386437 9.140919397847235 13.382243658367283
Ag 11.613152067091551 11.352237576669406 10.723372020803723
Ag 13.361004255552855 11.24310494266847 12.8189681010675
Ag 7.879417295276335 10.83323983448729 7.748335996540895
Ag 12.155160195953288 13.877300030423697 12.0322904725324
Ag 9.858568813754072 14.139848663051911 10.437710037685799
Ag 8.921512291282594 11.427433209803253 10.30804552728085
Ag 12.955393631366148 9.691229915418923 15.133188742381812
Ag 14.901901420644805 11.687158642375419 15.03029597064974
Ag 10.103316079032009 8.942751276451505 11.352874221444084
Ag 14.657778283199324 13.776758602737937 13.175273028479289
Ag 10.572872966110673 10.168745985539683 13.815127795616865
Ag 9.818684368948043 12.645074569737252 12.90080885028254
Ag 7.6706449824579925 13.442509877767268 8.809409112655194
Ag 7.7627851229679425 8.892851481732626 9.8576106338908
Ag 11.97704053925602 12.587831852882884 14.723272808723703
Ag 6.210184093100752 11.211665426757046 10.235112276000336
Ag 7.38898605989569 13.307929185416192 11.696574668951769
Ag 7.966502954439017 10.438767308306113 12.668658242520431
