10
Energy = -91.89459886 eV
Ta 9.12639209911087 6.2456755687163845 6.03655534674667
Ta 9.942924202252957 8.960615097938517 9.842531199552857
Ta 7.711743505100097 7.278201364942372 9.659383532751418
Ta 9.623233601617441 11.047893101485156 8.222060249482215
Ta 7.779494861927586 9.30560982901455 11.242086156348496
Ta 7.233581864924509 9.762470302099512 8.614559660651935
Ta 9.831461943917214 6.5299399475663 8.410384269348484
Ta 7.169153400385163 7.2679596177446735 7.157652610244683
Ta 8.548690335097179 11.409305529410975 10.312428210658767
Ta 9.316567996219963 8.759255985470661 7.108877622043498
