13
Energy = -121.10256959 eV
Ta 11.07593030183929 11.776004366107072 8.698075303408702
Ta 11.733717566927409 9.322693957870408 8.08764880494047
Ta 9.805161178481795 13.733917892001626 9.80755611554348
Ta 8.611248954020965 11.530379350442578 10.43950525747242
Ta 9.148615288005956 9.982081926104485 8.350392942676885
Ta 13.041794966629945 10.579443384788423 10.245217238656515
Ta 11.157353802607561 12.151001995819865 11.498628113895213
Ta 10.721911923338551 9.302432043249018 10.482518009814392
Ta 13.54484073020616 11.776316402011538 12.682532426395403
Ta 8.147448031549684 8.965452733096145 10.620912095868324
Ta 12.279833397418816 9.530249907589516 12.71812778539525
Ta 9.577346372839777 10.235106773989166 12.692949662422949
Ta 11.538508949980164 11.576064421373415 14.100069963741404
