15
Energy = -146.18437344 eV
Ta 6.807960049290216 9.29744236816127 6.440245692430298
Ta 8.313517104697901 7.181512189276782 5.703783908784995
Ta 9.964314817058812 11.087487009957991 8.563146550730723
Ta 9.687609637343355 9.578940019681895 6.443414024089797
Ta 6.285279017001441 6.637383378115216 7.272733533181079
Ta 10.591986071988417 7.097737562628918 7.039354654791987
Ta 8.68834839061509 5.63581162339835 7.922384086025235
Ta 6.909012656977697 6.571715756393845 9.899921555603745
Ta 11.22229859000309 8.900745957341227 8.82041111153954
Ta 5.498168143127842 8.63587547289439 8.760120269214653
Ta 8.3505423817291 8.404623014304036 8.335800005775383
Ta 7.37537188581027 10.7560130318556 8.85863880849709
Ta 9.431936040143745 9.847991356899067 10.70073809770727
Ta 9.670766265167554 7.230467726881513 10.182533918304163
Ta 7.01591459940184 8.949279182566702 10.869799433680424
