14
Energy = -135.71492658 eV
Ta 9.485811381795811 9.440660628317563 9.102524578642008
Ta 11.98209804127562 8.231664821325515 9.169364575210919
Ta 6.714359614236573 9.365469793434336 8.48856285049426
Ta 10.024710858463257 12.049524419673082 9.232952584054468
Ta 7.660538147427946 11.62019117008417 9.696575066654118
Ta 10.121949964028431 6.594936460963102 8.80372409713253
Ta 7.842037121119451 7.1423615624240195 9.709494081998509
Ta 9.39482612628358 10.825528864906696 11.691115718431824
Ta 11.60664141053775 10.364872066750747 10.650445010549792
Ta 10.071869754455337 8.097081911312427 11.227633081420343
Ta 7.464130335617086 9.288394563274828 11.154410043234556
Ta 8.620811682325433 10.629277159005719 7.117844179955929
Ta 10.633549043293822 8.566162172919423 6.854777465924946
Ta 8.32869867754496 7.735906300004333 7.052608613494231
