14
Energy = -132.42000646 eV
Ta 9.663467447018064 9.85631130938499 8.373120755982088
Ta 11.73237757589141 11.399167821825403 8.067042961715174
Ta 9.330126556503712 12.183600928813194 9.207387941513664
Ta 11.443783539126695 13.529029788921981 9.67146502386709
Ta 11.921876905374914 9.147657680513559 9.318461180769125
Ta 9.667082498454233 9.914244297360527 10.982707117900963
Ta 12.847561223229816 11.362508414144287 10.525153927024007
Ta 12.492987143095375 13.60721074415037 12.079790334935577
Ta 11.876109589861532 9.411292592740534 12.06621640008709
Ta 10.058289831241973 12.431660443503365 11.783742301017831
Ta 13.554329097568894 11.534256731547229 13.115459289299306
Ta 9.734469185236398 10.533750176949408 13.663876778233972
Ta 11.227435210893258 12.575416223118852 14.208693802301815
Ta 12.082977682157914 10.146766332680372 14.569755671007014
