13
Energy = -121.00730612 eV
Ta 7.529180568026248 7.575795763155553 6.962372245611333
Ta 7.522430944128071 8.828380524035609 9.183690422248239
Ta 8.086658909372698 7.659543919198206 11.485506557126643
Ta 10.06584177428808 8.148764246506982 7.169851654376187
Ta 10.102182532941061 8.720867637318662 9.860467533042147
Ta 10.099564189929431 8.098642085482563 12.600763538523667
Ta 8.170029472186902 9.855353084625138 6.551052589180781
Ta 8.25491035587128 11.247912485882743 9.120719032174106
Ta 8.546759827374748 10.25906555763989 11.680800061559745
Ta 10.330020973994056 10.925741537532142 7.338647042500827
Ta 10.604768893529283 11.477296292047187 10.04954651256244
Ta 11.184797325103183 10.161012237329805 12.102866899962121
Ta 12.037955312087178 9.576725786909554 8.428816753467588
