14
Energy = -132.20276671 eV
Ta 6.181458067618365 5.880739882700673 10.657938247682885
Ta 7.239516975907167 8.255628867680741 10.45625437815569
Ta 10.53278193608071 9.940836399803912 7.509175663426788
Ta 8.082087296741351 8.369700991731282 6.60622272734465
Ta 8.529749035673834 5.79560835773505 9.902123966716864
Ta 8.97225040477998 5.852742293303098 7.33029642437188
Ta 8.413161851643881 11.059170698248037 6.37569661765773
Ta 4.804578348531636 7.648268539215133 9.592483966525897
Ta 6.02685946430293 9.239471245407291 8.035796724175194
Ta 8.213865802049458 10.233292701668038 8.853794136830025
Ta 9.696535075626969 7.8620006192734895 9.041622111907111
Ta 6.525143751124603 6.421946489952406 7.991868965711189
Ta 10.70278854438366 7.5886048392441605 6.427169254454334
Ta 9.830372025134787 9.60313665363574 4.9707053946388
