13
Energy = -121.72124189 eV
Ta 7.544319942797751 9.672304065357615 9.587598805312918
Ta 10.210596829474577 9.127537932872489 9.627455942503904
Ta 8.713349673414173 7.525515997836441 11.123888406994714
Ta 9.07739175422696 11.328345575110946 8.277986889045016
Ta 6.331202027533421 7.637818368619302 10.93966735368634
Ta 10.601022443896648 6.86187374815453 8.31061370208292
Ta 11.225789246919893 10.566674110461818 7.703836218039213
Ta 5.4698421171085405 7.823480818684897 8.589012616911354
Ta 8.005304838697944 7.066116311377441 8.678912518229525
Ta 9.19724192752628 8.92674103462485 6.966661851488149
Ta 6.649467407952354 9.438850292102956 7.0541768490715215
Ta 7.015717016353781 7.021048672556345 6.211471974143402
Ta 9.391465893596244 6.286478990415196 6.287689491512534
