13
Energy = -123.00516063 eV
Ta 11.921345011402607 9.917600938287206 9.589931225467723
Ta 10.72821772158395 11.21244689850015 7.570087295297111
Ta 11.162155790314667 8.696525831531234 7.277596380421678
Ta 10.038313054099758 11.734595085148696 10.09207546522621
Ta 10.944588867313202 7.431707547111587 10.596669919212543
Ta 8.799351860022648 9.696068145281139 6.520438146407687
Ta 9.985995012172811 7.339248088888687 12.892243603616864
Ta 9.378914567528088 8.918576598419772 9.129131145606502
Ta 6.921129111197535 9.300454728994922 8.405407165826828
Ta 8.12012643504387 11.592070057065252 8.240435894986506
Ta 10.152233597415457 9.728616467637769 11.849262271361532
Ta 8.191057601768142 7.9026112206617904 11.220389006872207
Ta 7.694993364852569 10.58231767584979 10.66678781671576
