11
Energy = -102.6489668 eV
Ta 7.221404189536913 12.314951902806321 9.410376548629825
Ta 9.146233539749062 10.708641728325587 8.061230515390966
Ta 9.573745394616086 12.805602195832803 9.428374875469263
Ta 11.18819484527468 10.77113512516014 10.045388976266908
Ta 6.9497522382376875 9.95352211195705 9.124409855467137
Ta 11.410798929943859 8.58912321900919 8.708238809190982
Ta 8.663390520433435 10.817085354039984 11.074338253576467
Ta 9.062698450476383 8.455452122540915 9.765868609920544
Ta 10.777569657907918 8.787529963627337 11.737135297354339
Ta 11.3622638659561 6.680573240642359 10.413209639891258
Ta 13.072133586515017 8.535091820506562 10.660299153965346
