11
Energy = -101.9020313 eV
Ta 11.149205507264353 13.975300070760733 15.784022785562222
Ta 13.578532633233522 12.729919154112096 11.775688929787755
Ta 10.361467415729471 11.991571538127518 14.45550965405136
Ta 10.738795800955725 11.518372301156115 11.483552485550382
Ta 12.489250078703034 10.889411570490603 13.350148446021453
Ta 11.718896601245193 13.220082477087168 9.893017777421612
Ta 11.362647548069129 13.747108445846527 12.809664483914965
Ta 13.199050861099426 13.124078871739199 14.65626724846639
Ta 13.929737399798817 12.394351829120325 9.206400241246412
Ta 12.112240155601631 11.477634369389179 16.196879146968858
Ta 12.810420725497652 10.554205610108276 10.401692377665427
