11
Energy = -102.38575819 eV
Ta 11.17957066782936 9.730604881045734 8.692403730620182
Ta 10.759766642370906 12.21987195946193 8.965754867870135
Ta 9.371436160676657 10.312116589832911 10.539920866351645
Ta 13.196891949090082 11.195022933125198 9.303336520628042
Ta 12.244316014287524 13.119285969241886 10.878257748868617
Ta 13.619415334827192 11.211614821929754 11.836608031694496
Ta 9.586804586158998 12.805010321384952 11.34887537702513
Ta 11.960782512449384 9.356055241349026 11.133410648370061
Ta 9.87373141944783 9.098417800869406 12.87582637012436
Ta 11.203269990862418 11.425450935032034 12.900284636280068
Ta 8.504253243034778 11.026787067761541 13.025559723202015
