14
Energy = -131.81647128 eV
Ta 13.077021911454791 10.662574021039227 11.319110266312395
Ta 11.272421216281721 9.848941388351648 9.09527521352165
Ta 10.678845422347347 7.680792796914147 7.615241927381595
Ta 9.439882015813454 9.66242453582848 6.787504086919292
Ta 9.670111647302589 11.760931607359435 8.285225950941694
Ta 11.470524668228691 12.287500275704822 10.511174088876096
Ta 10.475307439100591 7.20752255759755 10.007272007012023
Ta 7.323055967810057 10.664983166143097 8.261465843097069
Ta 8.253013509386662 8.132971829016524 8.72475311851562
Ta 10.854551447032161 9.311683765389619 11.65297518443782
Ta 8.996972818396957 10.927621564187367 10.679796753862567
Ta 8.410343787249182 8.186681748157806 11.444498295552313
Ta 10.956202161834348 11.670320213536675 12.79684112081174
Ta 6.690683813774797 9.57397247550862 10.394888454508594
