11
Energy = -102.17780397 eV
Ta 8.240469882173246 9.000055380165431 6.4451679759248215
Ta 5.934314733786478 8.012497997910675 7.0878388414647935
Ta 7.932947458460537 6.363539812400729 6.936876884780169
Ta 10.15788742205978 7.560346426070333 7.888656022297742
Ta 10.653383961509522 9.718115246327187 6.669565900472456
Ta 9.326947702347622 10.075419273552026 8.788686238886909
Ta 6.672809948242373 10.181365026388473 8.302414128812039
Ta 8.849224890447543 5.8150990719563715 9.29357678958229
Ta 6.9933283525555225 7.551491360648395 9.350473234237203
Ta 9.569128125363656 7.992661723178923 10.489189353695735
Ta 7.585345508150726 9.645196666498741 10.663342614942417
