12
Energy = -115.05856123 eV
Ta 7.306395100916452 10.780352605683568 8.585662123033263
Ta 9.50015527171313 11.491934516355569 9.847965511731015
Ta 7.788749965396718 9.906935623350543 11.060625629771847
Ta 6.754947411550931 8.257616123654827 9.257358934318423
Ta 7.8218482199725035 8.812162776074087 6.920044748709703
Ta 9.598510592071266 10.764449387641058 7.282949935546687
Ta 11.434790157893326 10.003453676547297 9.039506633396934
Ta 8.676464190039194 6.7048711724771675 8.359865298441633
Ta 10.32718247409459 8.232416801667243 7.095049079260741
Ta 10.353536858403645 9.379566926235547 11.289216386390752
Ta 10.943416762849356 7.451036675503674 9.543842341781081
Ta 8.676520769527821 7.395837754047377 10.895794697101282
