12
Energy = -113.06684912 eV
Ta 9.449040796655447 9.440172156124984 6.540364494684623
Ta 7.2863560558765315 8.233509614769677 7.605075776013618
Ta 9.92103031397092 11.728080768624453 7.71315547715386
Ta 7.456208526185911 10.982089052917294 7.405977035833518
Ta 9.805856860693503 7.063564639261848 7.802841014462947
Ta 7.628539974514558 5.666527619739883 8.212576836459526
Ta 9.513715446968988 5.2017937203811595 9.788779101027135
Ta 8.375753523521915 11.963398127746766 9.62312070917745
Ta 9.511307802207057 9.489618069627587 9.25430362956131
Ta 6.859063917443006 9.835926270973413 9.731403648369351
Ta 10.56331324859322 7.277617496202273 10.380737548899969
Ta 7.875661251828468 7.363550182091073 10.187512446816516
