11
Energy = -102.26057611 eV
Ta 10.802977913777045 11.155021927070697 11.097223942140614
Ta 10.19829109050751 10.886608586298726 6.742885660910839
Ta 10.66187502886443 8.651964671245082 11.484520364922357
Ta 9.708586049754924 9.91194464235159 9.097450295501838
Ta 10.336334326318575 7.262578821804012 9.165575290738932
Ta 7.861456036213576 9.916844026092969 6.912613187006361
Ta 9.979420870400347 8.362611880494573 6.702573320547252
Ta 8.534915911424658 10.195582784816384 11.696976671630546
Ta 7.024160037123366 9.67893029401961 9.492818332395
Ta 7.914161783198165 7.582752579872252 8.159903585419254
Ta 8.286958863213776 7.734512287312527 10.759690414288839
