14
Energy = -134.06044255 eV
Ta 10.058285348176591 8.088238977091423 6.382480099593402
Ta 7.8747396239773835 9.650747771937375 6.662860193304158
Ta 5.4228909681838635 8.715227815840318 5.95647858215645
Ta 7.561522418821838 7.004973813338159 6.570518556699816
Ta 9.776301075436933 5.906400426996687 7.743306897048076
Ta 5.462902348729199 10.578854828239248 7.504720344844558
Ta 10.101294102869163 10.159577090189861 8.101959829164054
Ta 6.144251898439095 8.148172888723604 8.51599003417587
Ta 7.553687056282869 5.910125712850526 9.067633509798629
Ta 11.279737618036446 7.892316775853169 8.695536962872225
Ta 9.76034994513694 6.5703344315336505 10.325382881772983
Ta 7.629509918068405 10.234043859605649 9.252893269748553
Ta 9.845878294388992 9.229359524472828 10.502025814490182
Ta 7.597045456963204 7.980022156838287 10.786609097841561
