15
Energy = -144.85965425 eV
Ta 10.672042310563484 9.998089513711578 7.9873233167674
Ta 12.337930241824253 11.850414746799666 8.654319925829462
Ta 12.96467285782682 9.36117856901189 9.27617568878687
Ta 8.562784039993648 9.469014250567625 9.377298810051498
Ta 9.553906955234593 12.086557519510412 9.511040863868411
Ta 10.847606190778757 7.969459473043665 9.680143759718788
Ta 11.514263542959995 13.505593216062422 10.416190171080487
Ta 11.055040770125382 10.386519596773821 11.049279370825333
Ta 8.066660804249496 10.853259902803057 11.450738873671595
Ta 13.536463302152889 11.383867995722591 10.972281662437808
Ta 9.23602823960074 8.352519431307275 11.639768094113986
Ta 9.886748091510633 12.634355036101145 12.451966561650915
Ta 12.530279067140382 13.125846083998805 12.620985452731212
Ta 11.878174801275641 11.027002839289471 13.591808970850174
Ta 9.508669574604271 10.147592615136817 13.471949267457171
