13
Energy = -123.21061768 eV
Ta 9.650331175485121 9.150415300702102 8.884154648174302
Ta 11.913368971750746 10.539540552126303 8.861159807613145
Ta 11.720412565661325 8.271480827653768 10.333402855245152
Ta 9.631163858582939 11.845563007643308 9.055047210848967
Ta 12.181348230288695 12.762311266044636 10.253358416859434
Ta 7.9681116856787275 10.093590140845825 10.508723409665764
Ta 9.921925591878477 13.473894785888191 11.473495744047492
Ta 13.149569619658244 10.272939397224524 11.237697495279042
Ta 12.020753242190708 14.649773806269474 12.095450829096528
Ta 9.38693296118951 8.176193115245967 11.458253449905882
Ta 10.267672011684946 10.833816416309192 11.424254196115312
Ta 12.004332635455233 12.186846577568675 12.857078050124025
Ta 11.497339290428176 9.056896646411134 12.871185726958187
