11
Energy = -104.12550608 eV
Ta 7.348277213032207 7.511535430458898 10.718143557775615
Ta 9.101799423994064 9.084320850097185 10.511156882109688
Ta 11.416226078230054 8.290218810450861 9.167146512153264
Ta 9.466353543623207 6.541076821927516 9.417175180746327
Ta 10.510551246705317 10.357756904875728 7.705050521113403
Ta 8.55969349458574 11.477408274873767 9.179430521234352
Ta 10.851616845538084 10.65383075445515 10.2681725947074
Ta 9.758353319649864 7.875974837412066 7.187409945083627
Ta 6.6094498378717415 9.728790505629648 9.42973875138952
Ta 7.312247211505325 7.489875388462817 8.11524492806255
Ta 7.9593862852644 9.883165921356365 7.195285105624001
