10
Energy = -92.73041238 eV
Ta 11.775798242193376 10.57911627264065 11.535915813858924
Ta 11.014519384059689 12.188065110456517 9.498579273373085
Ta 10.618906248020087 9.42244030734831 8.601563686390035
Ta 9.496913811932158 11.91809542764227 11.486129883658949
Ta 9.660767105761074 8.989126418204096 11.432144758045416
Ta 7.46204677789753 10.370926794498342 11.165054796070907
Ta 8.637895686609935 11.123130501254458 9.046467492935928
Ta 8.206259435977852 8.50858978959236 9.505310113096543
Ta 12.915027963043261 10.46353781416833 9.272730250989923
Ta 12.004605344505032 8.229711564194373 10.248843931580572
