13
Energy = -123.29802376 eV
Ta 8.993952277765528 10.467359821324097 7.999021531973893
Ta 11.42051465005907 9.520065159543101 8.063466977438974
Ta 9.252657436905205 7.940198713344828 8.584278195025602
Ta 11.637821307873384 7.433567159701133 9.404757882249308
Ta 10.931617016565207 11.72967750806635 9.571390841283273
Ta 7.780648670732109 9.504386789923306 10.181533616784337
Ta 12.543865830371441 12.368129897880303 11.455498091472528
Ta 12.63901485349566 9.779796219942282 10.481521373381634
Ta 8.329142194502339 12.03942967260991 10.041109970153546
Ta 10.175107914784455 8.729737087424807 11.056922434609485
Ta 10.067038607639581 12.917187422044682 11.894107542415643
Ta 11.288805883025717 10.607102255941031 12.692592347999987
Ta 8.713599847519797 10.737148783493666 12.347585686451039
