10
Energy = -88.40394277 eV
Ta 9.553210442643715 12.8060348649078 10.057825025050713
Ta 8.896731751194082 10.817950041547423 11.403703198947262
Ta 8.9406000721842 10.939217305025041 8.524561268818283
Ta 8.532711820839289 8.54161573106957 12.334107070493522
Ta 8.343203556652975 8.443890489048906 9.855295057361488
Ta 8.606358664657852 8.748487034893321 7.400521638434954
Ta 11.403301353521298 11.144743095108057 10.010650107778243
Ta 10.80958989829365 8.65331991165513 11.342277948696447
Ta 10.853915808206771 8.771627613057642 8.462354659946946
Ta 12.823619535932183 9.103683003349927 9.949275741971181
