11
Energy = -102.1680109 eV
Ta 9.82408223050178 11.562839096866961 9.17339060850525
Ta 7.40725990958675 10.293192036522253 9.147138482966415
Ta 11.762211904113181 9.940669582867828 8.33022480736008
Ta 8.862156834903887 11.145651300588156 11.366350046113707
Ta 9.356791051570882 9.992508552255275 7.191096838862806
Ta 7.466898668605308 9.344521878691111 11.826877019628862
Ta 7.980777803222832 7.936075621153414 7.9213107390590585
Ta 12.067761507018526 7.739924952152484 9.557250740103166
Ta 9.72322061616184 8.825669341152404 10.016877075976723
Ta 10.616398075377951 7.703322999848202 7.493342680253514
Ta 7.138975517824188 7.7222580244863535 10.193693445406135
