11
Energy = -103.38134307 eV
Ta 11.650853870397137 10.635826418919853 9.669067865536634
Ta 11.34336858005509 9.010916903351651 7.778257605038349
Ta 10.999911369876168 8.147878596838426 10.263017322796747
Ta 9.747951277238107 10.396871432836395 11.278197948402727
Ta 9.239612256778397 9.17716595904984 6.46681305433978
Ta 9.36676691304456 10.907190583336797 8.47598886202628
Ta 8.653105636500959 8.104036815661875 11.30989000543395
Ta 9.078097520216787 7.506838866485351 8.528723981160697
Ta 7.417485193821509 10.31729255343058 10.198223485340215
Ta 7.1121491587267816 9.372786673949722 7.740455518738482
Ta 6.777746940259301 7.81012808286748 9.680101264136784
