10
Energy = -90.78774179 eV
Ta 9.453166848760937 14.980678093801318 10.771492580226607
Ta 12.245646566715585 13.02552144163091 12.272690946868506
Ta 10.848280265530386 13.592746012203975 9.909988232661634
Ta 12.245686950338545 11.153648886682248 10.44842459004299
Ta 13.578619435802684 8.956018154957981 10.974007446349814
Ta 11.28200387679195 9.012376460521129 11.83434622149536
Ta 9.79060647314325 11.37704763509543 11.29758191037171
Ta 13.607179562800901 10.606678005649654 12.763754105969147
Ta 9.802657398866799 13.448392152237044 12.726439954863864
Ta 11.171592074086869 10.95753564698647 13.495355559710706
