15
Energy = -142.82040952 eV
Ta 9.338457432742139 9.096515855236902 11.648044130717004
Ta 10.239456420107258 11.004352314529685 10.394118900013538
Ta 7.601952820777857 10.515925480637325 9.958494522818457
Ta 7.440423969553375 7.748550738816113 10.660882355201538
Ta 10.17323542309638 6.880197472325795 10.550444823324248
Ta 9.473710214906408 8.807889815759742 8.792300325526934
Ta 9.454340127621013 11.612415201034334 8.15177390200914
Ta 8.252335782030283 5.970556060430109 6.712881059093373
Ta 8.698980310335132 8.245635107048011 5.724274219331364
Ta 7.560519533090557 10.302630541950109 7.10834326377512
Ta 6.8305057880716396 7.841667600174823 8.010043194097829
Ta 8.57708194161482 5.743891768637957 9.202039864979865
Ta 10.48551168864952 6.852141650656373 7.42797437500759
Ta 10.314210059230865 9.835702611269246 6.442551879228668
Ta 5.475386625968778 9.45803591928964 9.131941322671066
