15
Energy = -142.92209981 eV
Ta 6.882884932018856 8.576172276316854 6.703619783441926
Ta 5.613992577335129 10.196983807997867 8.143020190811816
Ta 11.45908439990799 8.217990487844252 9.589501470967873
Ta 7.662924432752395 6.607168365181515 8.679617634214713
Ta 9.142423131962916 7.705786691616522 10.838970000157751
Ta 7.044415671879615 8.968857997990337 9.750879144539109
Ta 9.568912978586068 10.344952173773775 10.093551049374963
Ta 8.940637322604251 9.761262163798268 5.631873059996094
Ta 11.193737095823657 5.943953924260248 10.881817733839613
Ta 9.421463077332987 8.674682492490405 8.009750320174554
Ta 9.754840676079112 11.39095295188204 7.61081110644459
Ta 10.227060527229392 6.065603792934357 8.470413652015843
Ta 7.588200613518077 11.673009348477896 9.14343351941031
Ta 7.287841413484332 11.369395293707619 6.540183919201182
Ta 8.857118365151736 5.148765447394259 10.558094631075427
