15
Energy = -143.17007049 eV
Ta 7.993630426702768 12.324997239676097 8.8648982279126
Ta 9.225355916980186 10.244183071211227 11.843387985214097
Ta 6.6129420129221055 8.019504332545756 8.04033745031349
Ta 7.089682933010307 7.315677817692647 10.36995254389031
Ta 9.718842155731787 11.09903684245372 7.387502586157109
Ta 12.890318188095879 10.30973140989316 9.8394030744512
Ta 10.40095985997828 11.610542614219574 9.974651688833598
Ta 10.777371559192089 9.05110047718963 8.946689822995861
Ta 9.651578541136846 7.7618383538131095 11.214499757034499
Ta 8.088492555923802 9.738659089908015 9.637359186403312
Ta 8.84787755157691 8.725226471756898 6.799902188186639
Ta 8.985308002177137 6.940392951547555 8.677947024611607
Ta 11.690584499518165 9.773412691298251 11.960323469449095
Ta 7.0855079753983645 10.687624733582826 7.230141592148733
Ta 12.341287619275906 7.772410238963462 10.601573536542865
