13
Energy = -122.30520813 eV
Ta 9.767953799573586 6.364528727445323 7.813194580660996
Ta 7.099603122194396 6.6633265263724 7.319026240417138
Ta 8.899205803846618 8.222591685422719 5.812452231903886
Ta 7.832012647857706 8.691673197623437 11.089967707303545
Ta 10.2476497112271 7.570441692707199 10.168827782389076
Ta 6.885670201662152 10.606763562151933 9.193557279012213
Ta 8.574437840437993 8.827998496524238 8.565516338949442
Ta 6.477788764661494 9.32681884764371 6.7155384591523894
Ta 5.913982922354238 8.151008970909526 9.27850402121094
Ta 8.812963129942338 10.702223009624014 6.90960511709195
Ta 7.918970211223166 6.342359887673542 9.871517828739174
Ta 10.942013657310078 8.737506308934083 7.66913946323457
Ta 6.582771433686748 7.504399792554991 4.855750103097279
