11
Energy = -100.18361724 eV
Ta 12.383459161604002 8.333684069005491 10.86235533285958
Ta 11.003954473671248 8.498779917634767 12.990678920774192
Ta 10.888762974817407 14.872980756678846 10.258577297734881
Ta 12.40442679136132 15.100653867181078 12.116795274746693
Ta 13.354924714457404 9.399135501735937 12.940759082868002
Ta 10.532446827918935 13.310309047187943 12.487598111816034
Ta 10.145452945034481 12.42295578316274 10.103140681015365
Ta 9.993913655236403 9.113120452258924 10.754681926178169
Ta 11.637210745938061 10.893905923698805 11.692817406964007
Ta 12.754979335121218 13.037466255783812 10.336800752510426
Ta 13.142440551453626 12.760623226845881 12.862531214776373
