10
Energy = -92.61790967 eV
Ta 10.473740046034703 12.10876195900861 9.152413769774387
Ta 9.881870851733723 10.012710632593205 10.5481239551039
Ta 8.365231727901646 12.044282037154277 10.589355793852146
Ta 14.459618996254406 10.561287290152245 12.314373182781791
Ta 9.228192961342817 11.268181631418408 12.790586269027143
Ta 14.008512932382029 12.883788773521466 11.224695633434147
Ta 11.009527139209537 12.76137457082242 11.54436363124386
Ta 12.659279262777659 10.909304415173672 10.426915093582014
Ta 11.518666089574358 9.98532388561996 12.619104060553912
Ta 12.796899306617567 12.054825920177953 13.334201742904249
