12
Energy = -111.92074429 eV
Ta 11.12925454991689 10.882270024586584 10.702419575064491
Ta 8.71515701850934 11.608934241655845 10.0709067400279
Ta 12.317206363022018 9.59516568054665 8.860159864799202
Ta 9.958712356255452 8.640944087148362 10.018012749279173
Ta 10.040859869772103 10.49388877349561 7.967953697615425
Ta 8.670267167322095 9.828690675699022 11.966929426015652
Ta 7.65192182181911 11.008457538036502 7.510969551338809
Ta 11.014061575923009 7.6893097190058874 7.812916577472903
Ta 7.672997237955961 7.606290943613662 11.250979012194014
Ta 8.597735272146547 8.349762767743275 7.121312409014128
Ta 7.3787490143656 9.348736612889503 9.34346332454962
Ta 8.563409334772867 6.6359770514420715 9.077860193848341
