5
Energy = -42.83513309 eV
Ta 7.055670331853757 7.039809917173158 4.822957234319974
Ta 6.596427143840064 7.188338007812313 7.597625858818372
Ta 4.852380158429762 7.4000759256824695 5.847124406866061
Ta 8.307534738850949 5.7673109611244175 6.523553547465595
Ta 5.881230831980617 5.1130690044960865 6.197087297405182
