5
Energy = -42.83451702 eV
Ta 9.231081954546191 8.86666184798125 6.701939608046497
Ta 6.973282212057366 8.678958973598585 7.820482497574956
Ta 8.858518468102895 6.903306061945165 8.16166688574062
Ta 9.12376984168653 9.551410136551187 9.065654214239231
Ta 7.673972183425915 7.851938324060638 10.110646968755082
