5
Energy = -33.2094233 eV
Ta 13.87171048427351 10.547804171187531 12.611987128777741
Ta 15.547259432744298 9.577159663898701 13.029953254819906
Ta 8.295541198357935 14.524108599274175 10.206314613984093
Ta 9.72349211308652 13.395733709528164 10.9810502837807
Ta 11.698977375828516 11.928482779431622 11.913954917253886
