55
Energy = -570.24071013 eV
Ta 8.941206525331436 8.973458500138683 6.689905712974418
Ta 12.817755083286025 7.615040596993425 10.517530064547161
Ta 10.369626095426078 6.382294944803509 10.87464371384886
Ta 10.457767638904595 10.770012268363603 8.374731137140923
Ta 9.016355781468723 13.355342782403692 8.5027462115301
Ta 10.837892350762358 12.943661268286393 6.426866685572502
Ta 8.646812800923234 11.479430240882376 6.296808444689083
Ta 6.951890307293821 11.848459591672079 13.331347068015317
Ta 12.807985323629945 9.689520353857604 12.677618478070965
Ta 11.887975478787975 13.110727268027585 9.255514220402773
Ta 14.350233084901395 11.927100821149038 11.545922445382738
Ta 12.067352611806855 7.149062153582222 13.137398694243172
Ta 7.7660471838926375 10.74886883885355 8.794190887666447
Ta 8.846813662272792 8.80984271635792 16.049711353668815
Ta 7.097435800252719 9.111085886927915 14.02017334346115
Ta 16.800314252627956 11.863039603847286 10.566842780866065
Ta 13.467125558915292 14.66593258500918 11.507384199661189
Ta 15.382693953533376 10.761515754518747 8.603057617278397
Ta 9.525107369897597 11.974505621600288 10.836776093150647
Ta 6.4179825107705355 14.351996476106631 12.432915129094178
Ta 8.573267875708058 8.08459503149032 9.214924927922967
Ta 11.471091013241765 15.363649955542364 13.31090232670496
Ta 11.134352048083453 10.019509918963426 5.873546969168646
Ta 15.949507327489192 9.883428911847057 12.865669343990142
Ta 14.673699951785698 13.324774275046925 8.966649517472124
Ta 16.09853467540831 14.392977741622024 10.815299400133979
Ta 10.745937157876892 15.382244988365951 7.892683555086072
Ta 11.704829308193577 12.541731049792572 12.359086898488046
Ta 9.657777051038694 10.895856329852098 13.763312498847494
Ta 14.991804030715956 11.30508490337341 14.562977585716506
Ta 14.706921495867483 7.399893560584759 12.58043999640967
Ta 7.704254608884497 9.86352380189445 11.54953401143116
Ta 9.957973997819371 11.223855770207924 16.618895192676874
Ta 8.317297630407968 13.153450865632083 15.317059258809552
Ta 10.39683400046248 9.144530055711202 11.107264019950167
Ta 13.257260401447537 9.030211683773352 7.647106958027736
Ta 6.744494334342584 12.67371701561283 10.572615248321496
Ta 13.131118043862886 11.641624994099852 7.181065106536601
Ta 16.15034071425681 13.170499430196811 13.029939218963783
Ta 8.008115057689709 7.168466262468606 11.528560572000304
Ta 14.12970797839615 8.69690456744453 14.78170535473144
Ta 9.480128917988026 8.016319419980006 13.443263496057776
Ta 11.325095060534318 8.969629363695647 15.340174443361656
Ta 13.119884911079145 15.69928182408826 9.069148846684016
Ta 10.649299804374417 14.949107952915123 10.713421965681341
Ta 7.987497732123583 14.986482017496208 10.46042687640882
Ta 12.38052900912734 11.272767646189838 15.052838694609429
Ta 9.083725361438567 13.82493095367849 12.83292899812263
Ta 13.034825614022463 14.382235385011667 6.847465064347055
Ta 10.916629822802989 13.44933702772557 15.043831106875496
Ta 11.069797527800564 8.007291952692958 8.433086508752329
Ta 15.101113822144773 9.097156197063084 10.537867543830943
Ta 12.67068712304919 10.453428090381744 9.908652359912965
Ta 13.56775452529604 13.769274144908742 14.064704448415831
Ta 7.325263690553055 10.905053637268077 15.94459240428431
