55
Energy = -570.9523977 eV
Ta 8.499509670843052 11.988384786072874 10.878632545885662
Ta 18.080266247921287 14.243950047643258 12.904533873638627
Ta 14.864872909272384 10.648067812218587 15.430193833747927
Ta 11.12247557784578 8.354464667837693 12.610912373488002
Ta 15.893322042475916 13.808418537399662 14.46298993123899
Ta 12.077697695213802 11.089854959753461 17.12494282791519
Ta 13.700232394937915 12.77347407787983 10.431068913741063
Ta 12.668142071674797 15.538731984062593 16.89425988125842
Ta 15.124904236560377 10.185254304346127 12.475315383874653
Ta 11.040982177632074 12.71806782582449 12.151046470955354
Ta 11.023293638097838 12.467950642343766 9.384480526699488
Ta 12.271110086745082 10.717621353574268 14.3357954600802
Ta 8.598749482547856 14.024300736737317 15.795240440056547
Ta 8.468252281033852 12.99421072473992 13.427671743734612
Ta 9.512304650243903 11.34329620551569 15.902272221251238
Ta 13.129815800404897 17.314483828331305 10.388811985715304
Ta 10.436724739948264 16.913441236939278 10.393111952960012
Ta 17.424589306009803 15.376249555238731 10.488985227489584
Ta 11.391749321142681 17.445093185984533 12.891853382131611
Ta 13.415167735384433 8.389341779479707 13.827640325540962
Ta 15.116253144098307 14.958194954750837 11.976522616607548
Ta 13.18697157604173 8.827942073793173 16.49835358887103
Ta 10.81994244263822 8.81670234323205 15.440663786110589
Ta 12.796486301122977 15.147189758258133 13.992852986664191
Ta 17.230814224432205 11.4695262729698 13.93573145343437
Ta 16.53200871781446 12.490471322159241 11.526613687323367
Ta 10.446924783716398 16.09307692660361 15.461085784700726
Ta 13.671929592479412 13.164847609624381 16.009432560017476
Ta 13.896624590085416 12.602603070862433 13.160973133795418
Ta 14.617331826074768 11.550473069148628 18.114411037809383
Ta 10.732874351949848 13.604763346262734 17.418087516622702
Ta 11.082989091506443 13.175665042154474 14.828363603241378
Ta 18.75532006258469 13.20374665728563 15.219174220123485
Ta 16.958944845452418 16.6417577580755 13.104823841735508
Ta 15.872584058883255 17.418490496964864 10.713821103294032
Ta 15.383274838234524 14.415148744025927 17.706228409837728
Ta 15.032586475941388 16.253390702283266 15.397774959082065
Ta 14.161490341475677 17.45777045107077 12.941274227786899
Ta 11.905205781752127 15.062868722259196 8.741319709327811
Ta 12.435920858719472 10.464882991769427 11.537580121668935
Ta 12.719020650481575 17.728064626631014 15.26278817029282
Ta 12.571064851986334 10.329571005679943 8.824068530502093
Ta 9.672790869414598 10.538618903929784 13.213052056141592
Ta 16.73679448982219 12.42708000740521 16.67428762685446
Ta 15.028811555419397 10.643222399539466 9.639675935512987
Ta 14.637073581935068 15.348387299442155 9.117647514625334
Ta 13.031408448400173 13.451361610176459 18.760286460030738
Ta 13.55260916193273 12.79709256150716 7.875614563011166
Ta 12.312313218292958 14.989736491745038 11.31935859646093
Ta 17.553709523752563 15.345963707340069 15.836158889495746
Ta 16.13052512043712 13.337158303635627 9.089316208097168
Ta 9.854286290277862 15.30715065854401 13.0466699583083
Ta 9.99115473693469 10.09893876118017 10.459749345486047
Ta 13.759477542948762 8.422513781967856 10.902517132245206
Ta 9.497944099335651 14.51059342811066 10.483585475788173
