5
Energy = -42.83432416 eV
Ta 8.812379391429042 6.564537471113702 7.5966867257569035
Ta 9.683579326495598 8.859270580717885 7.838561868375863
Ta 6.968082153143296 8.19895562815003 7.493950397728918
Ta 8.243976180628607 7.7808944248764105 9.744918459223387
Ta 7.795997948303339 10.100356895142326 8.829897548915048
