5
Energy = -39.97164421 eV
Ta 7.5943114325604535 8.241516862673764 9.991760619401996
Ta 9.968837182123641 8.363126200426745 6.676120546326262
Ta 8.561739036971268 7.249165580374515 7.873085407033011
Ta 9.379471650872167 9.752046324167273 8.569240662209147
Ta 8.268502673312655 10.163519978223365 10.658634236702143
