5
Energy = -40.01564577 eV
Ta 7.234842737389002 10.335328031623469 8.866990928081863
Ta 9.23428999593676 6.93930695419153 6.477557786024977
Ta 7.744622363009355 8.401992825675226 9.913375864627211
Ta 8.20515706015017 8.895517180339477 7.279920505736133
Ta 8.798103382161171 6.639483719852996 8.673132087462111
