5
Energy = -42.83630042 eV
Ta 9.104448801700883 8.495988896050331 9.821505300827221
Ta 8.532528084507824 7.060677772124149 7.709975543569059
Ta 6.729663870173365 7.884713126698422 9.18655193138129
Ta 7.759925442340803 9.757647420677284 7.944105444285924
Ta 10.06523811345602 8.993642904346387 7.530369370972387
