5
Energy = -42.83417011 eV
Ta 7.424047671488867 8.648618825450843 8.227012695627954
Ta 10.79152658956794 9.68318413967074 9.858866199912033
Ta 8.415908694833403 10.364541737655028 9.711832606100717
Ta 9.81328974654337 8.961688801381634 7.717117975471896
Ta 9.051463332787614 7.849937592372313 9.991647814187942
