5
Energy = -40.008344 eV
Ta 13.272516983404083 10.786012445003927 11.437156985373038
Ta 9.592119643323404 10.898060616851348 9.82349871636475
Ta 11.954638269561041 10.537702118316336 9.620189595130357
Ta 8.741954275761055 11.511831079368058 11.811370710669857
Ta 11.038094075933062 11.095139909557174 12.1191864336529
