5
Energy = -42.83823308 eV
Ta 7.295951330108752 10.028246623701143 8.514370536333955
Ta 10.142052217088054 7.45188508359006 9.089543661415668
Ta 8.594135896296093 8.253051079133579 7.252065948298951
Ta 7.814914570213611 7.951850529142679 9.739129204691382
Ta 9.716694485815749 9.87983397581318 8.968118069424426
