5
Energy = -34.72997089 eV
Ta 11.767095173677696 11.627501336624556 16.673290310765044
Ta 13.522777000886562 11.282370211174936 7.073082546521517
Ta 11.924510327131202 13.6103981054461 15.464058157664194
Ta 11.99949186459352 11.619705400760756 5.926129487598515
Ta 10.738473677073282 11.870486392096149 14.48391647815256
