6
Energy = -52.82778068 eV
Ta 11.030152078619444 11.028116730055865 13.009706619919832
Ta 12.344179729678089 11.75861282423766 11.051389812915625
Ta 9.463470669732473 10.559469384450432 11.125257559419438
Ta 10.190798073745071 12.770286562659273 10.299373694475078
Ta 11.246982686517658 10.636800418093527 9.092981187936108
Ta 11.5580384062211 9.174240529498825 11.161384406778115
