6
Energy = -49.79813368 eV
Ta 10.491084248390642 8.253557754544191 11.421488339508183
Ta 9.901129961103837 9.626310144187217 9.938797322848897
Ta 10.844998765133083 13.077752122630356 12.181775204082001
Ta 11.514585874687642 10.563245167396177 11.941960179113506
Ta 10.570465527780406 12.105070196065773 9.888150605500558
Ta 12.851588498097104 12.52180988107302 10.837202314523777
