6
Energy = -50.69464875 eV
Ta 12.254847535719158 10.034391666580754 11.681624117587491
Ta 13.19077381491489 13.411631456316275 10.928064302461571
Ta 12.175444811298718 12.31282920977962 12.788295412214845
Ta 9.998918637302921 9.569545163433128 12.273848327410843
Ta 11.808686918605982 11.837667752697834 9.893505047307311
Ta 9.915047787679516 11.838847470162573 11.67966557707747
