6
Energy = -52.82897101 eV
Ta 8.879212751840889 7.045609438337443 9.689457764006061
Ta 8.966265244659397 9.579891159252927 9.93955318402733
Ta 7.798274212642372 6.944813177037931 7.249796872627632
Ta 6.934525434117998 8.69032669520424 8.766793271612709
Ta 9.851735453021735 8.28037188463819 7.736133713194486
Ta 8.367110416347348 10.226798667681232 7.418734729856371
