6
Energy = -52.83136701 eV
Ta 9.318990612675417 9.875079123899962 9.407355100990246
Ta 10.251467543469738 7.905376146338562 8.04262710774994
Ta 7.894780446564232 6.699426639187534 7.541767356838417
Ta 8.306366681593602 9.104069286539413 7.029282444910235
Ta 8.204120544000077 7.664408566612047 9.788237979894154
Ta 6.717176922493281 9.446503416244532 8.886260559257218
