6
Energy = -52.85434576 eV
Ta 8.868706422935597 9.107336307727225 10.800242856253774
Ta 10.581505035100307 9.720255315560811 8.886591355114756
Ta 8.109642050507484 10.146870181746745 8.639233254545571
Ta 7.019036840132377 7.879181261519355 8.682935757590815
Ta 8.781045957482508 8.529107186064705 6.827862347122294
Ta 9.479290321225445 7.457689716246551 9.000263743655347
