6
Energy = -51.77873453 eV
Ta 6.394366411382762 7.716986783838525 8.946495692792016
Ta 9.444923681369641 8.122153583429862 6.8928064455154
Ta 7.087913092552548 9.157554068585513 6.823434957244914
Ta 8.562316308801735 9.25150937395339 9.032677887534305
Ta 8.75144917056649 6.681706484618822 9.015746248154263
Ta 7.27676038490249 6.587818655998331 6.806567719183324
