6
Energy = -52.79648911 eV
Ta 7.618799962788622 9.47713330021753 7.12989971532921
Ta 9.907247944807171 9.029828301791852 7.734415633560555
Ta 7.31843182438925 8.51124531095595 9.376566887603092
Ta 9.596875115522831 8.049693819202165 10.363347735076445
Ta 9.044468440375818 10.427531597288011 9.557088967840574
Ta 8.866742098969826 6.85961702652226 8.192126677639628
