7
Energy = -59.74795608 eV
Ta 11.27603090504834 10.344043481527146 9.735295190499873
Ta 7.62874242428775 8.116088758148226 6.919253549896402
Ta 11.145469484733646 8.228470665367704 9.591167457004378
Ta 8.900135048401232 9.609461779301233 8.818401780039288
Ta 6.329452452203167 9.890473052274142 7.962923170823536
Ta 9.06351642415342 7.007984834470647 8.706484213358724
Ta 6.841601779284293 7.987681900544498 9.450520764945542
