7
Energy = -63.64411492 eV
Ta 7.66298977833033 9.40254319291952 7.02860470361338
Ta 8.149259599096899 10.75720839646261 9.069392410822074
Ta 10.02772403371198 9.089193043798565 7.9028482662574415
Ta 8.452469144402132 6.998451332321797 7.561680940737084
Ta 9.910762499013929 9.529915844815372 10.370768958052103
Ta 7.435062439520054 8.395909549539804 9.58177079415974
Ta 9.62483811492802 7.094094161892617 9.7534985309955
