7
Energy = -59.74614148 eV
Ta 8.517660813624607 10.560995669326017 12.95545988644299
Ta 12.575993693235104 9.822477043891563 9.986987296880763
Ta 10.582133617834565 11.050893920241139 11.368748548094148
Ta 8.393814418808304 9.399611538111783 11.18190544542989
Ta 12.90269628747245 12.1832882611204 10.535462698057229
Ta 10.148588216314021 9.496160357866154 9.310674310865268
Ta 11.187651059354536 11.764366063459539 8.828091969847764
