7
Energy = -61.8012046 eV
Ta 11.701113283073235 9.62814733554946 8.682957029546094
Ta 10.255334036809929 10.354149717109147 10.556796010747357
Ta 9.190769232673121 10.274838764429326 8.238827815361907
Ta 8.111808137761392 7.9819480464121435 7.936687268719165
Ta 10.214518943576829 7.795299170611401 9.495521613890649
Ta 6.74216743587589 9.790071641655691 8.97290829863888
Ta 8.263493981718957 8.650807295383641 10.594526827982934
