7
Energy = -61.42773068 eV
Ta 12.12434132976718 10.993471339444563 10.477722915485037
Ta 10.869040721511563 8.728332173134996 10.558683823224836
Ta 11.340209586677148 10.682054528370038 8.117367140247254
Ta 9.32078973620659 10.578439771419859 9.59226008219834
Ta 10.186086914954632 8.669434802931574 12.827369001295967
Ta 10.584404440830673 12.742271238675961 9.569833376039774
Ta 10.06394885255224 10.900702949511679 12.059807165609929
