7
Energy = -63.64390549 eV
Ta 12.174883763024605 11.619059535898613 12.186264481283454
Ta 12.717063775873743 11.060671004560634 9.81299600220934
Ta 11.308601854583992 9.367161665842495 11.455923682333285
Ta 10.403823998753008 12.088968614775121 10.111991712020755
Ta 10.674535849661082 9.769788604368408 8.897097338518451
Ta 9.681646968802667 11.470406023793913 12.437893056756712
Ta 8.925659726479893 9.835390275230337 10.664721217041953
