8
Energy = -73.98572527 eV
Ta 9.220117798202748 10.273817654761137 7.8361960131875925
Ta 7.603191032603613 10.850541645125729 9.635361542329285
Ta 7.155750244210752 8.540377583748171 8.697279417116182
Ta 8.938984953172815 9.12289908981247 10.812115536510309
Ta 9.163700208743716 7.842316824351127 7.236638680004642
Ta 10.570637200939236 10.73370074096495 9.86484060556402
Ta 8.940863155811657 6.923017557015791 9.610132516430255
Ta 10.97161748218033 8.381820866403505 8.992479328130447
