8
Energy = -69.02181249 eV
Ta 9.48381317985014 10.098930890057895 13.794623786945037
Ta 13.281400658830597 11.78575279314757 11.657688974059228
Ta 15.201761828734737 13.167912012281914 10.44143253203586
Ta 11.254532179533683 11.888048066620582 13.501644337437787
Ta 13.232241244610847 13.459885744970514 9.654537412511793
Ta 11.035526974389635 12.261309036764228 10.694153708562574
Ta 11.33670112233623 9.809571693006866 12.091378846722247
Ta 9.065642686089832 11.393101410916204 11.795977199496631
