8
Energy = -72.60307845 eV
Ta 9.756581431521752 7.7644011443013765 8.132735380825201
Ta 11.549098925955384 9.563938144778966 8.392512496167383
Ta 7.504753058491061 7.122543999026249 10.174230129159136
Ta 9.31358450951731 10.660326133329828 8.978432243338752
Ta 7.449259588202923 8.929543522733676 8.368178714557972
Ta 9.542709819661122 8.611056417633648 10.559074364433002
Ta 7.183132120215547 9.56525033444092 10.826489528395719
Ta 9.745543476536703 9.817323908665065 6.608257493607121
