8
Energy = -67.45359607 eV
Ta 12.265615193634114 9.31497243789159 9.477201821396786
Ta 8.890184906679243 7.9390506494885065 11.609649906445535
Ta 9.581702654764278 9.578566788919606 9.578509022658125
Ta 9.064636189765148 11.26611059123948 7.535616905485162
Ta 11.322797362222389 10.74002783565935 7.8734928397792325
Ta 7.210765526407855 10.61630622731982 8.813811171722273
Ta 7.138249120263194 9.1658390126827 10.65388373756354
Ta 11.174995043405751 8.010032133378138 11.089402088443284
