8
Energy = -72.58683994 eV
Ta 6.5932228588437205 8.18415554124961 5.685207929521499
Ta 8.71971854164379 9.247053407332903 6.276398416419765
Ta 8.314832482666219 6.6977608524869 7.0736882403019266
Ta 5.685789654188207 6.9880407893818415 7.621514461215155
Ta 6.9136902529154405 9.268448537860513 8.229296406992795
Ta 9.472937916387163 8.683924782145963 8.611040254057476
Ta 7.239803761054344 7.021073470282932 9.600934553965963
Ta 9.561095203195496 6.410633290154243 9.403010408419668
