8
Energy = -72.03738064 eV
Ta 7.67373537647854 9.370430260861168 8.696936663708206
Ta 9.763624501323473 11.325696794452714 9.109938054093222
Ta 8.885866417717203 10.673727522563466 6.920836353781053
Ta 8.70455470039541 10.138237725330459 11.05475981039052
Ta 11.182859383148784 9.537702563693102 10.195633067769991
Ta 9.074393037265347 7.548643594273178 9.744480928750042
Ta 10.207708034739895 8.747595127382967 7.83048529060471
Ta 9.971310666332107 8.122018528843705 11.910981948303291
