8
Energy = -72.65178237 eV
Ta 10.964233565672721 9.225544794633322 8.224845750573216
Ta 10.361775541604054 9.886459505710253 10.728244715776873
Ta 8.21985067607886 7.717247672702346 8.646987724642866
Ta 7.599730548170855 10.232200751688202 9.442977495915887
Ta 8.286523009806352 8.498874476986806 11.113516051861634
Ta 9.693571998498388 11.419904533101546 8.859577824852723
Ta 10.263493449184635 7.399369209360203 9.855764519896027
Ta 8.771172253766755 9.665955375304256 7.168795866624267
