8
Energy = -73.98699231 eV
Ta 9.76216128578494 10.542069504027618 8.881029864237936
Ta 10.542409781796367 8.090268714557991 9.061072841794955
Ta 6.323808805421009 8.211826646923942 8.879015978007667
Ta 7.566637019477005 10.034506520113512 7.626035319020408
Ta 8.248847051611754 7.2902911957519345 7.612572507670671
Ta 8.634347510930205 6.702345137738915 9.99256320637747
Ta 8.188721037869044 9.131879547469524 10.233072828469716
Ta 9.810203507109671 9.073948733416312 6.79177345442154
