9
Energy = -81.58688444 eV
Ta 7.166300635383705 8.87572091991412 8.845469654448365
Ta 9.782789363260784 9.595822535543146 10.256440023150681
Ta 8.164731666508478 7.736625532983663 10.9883615418442
Ta 8.152922118356775 10.12064668314518 6.822082910846748
Ta 9.7043536682694 8.196820711233258 7.529652675301749
Ta 10.418359326171268 10.6761665515869 8.00785785694459
Ta 10.414937231888507 7.139251619634314 9.824644467180422
Ta 8.169809355644178 11.277846957993559 9.168859875008081
Ta 8.148598081715477 6.50389977675863 8.679432548077104
