9
Energy = -82.18840252 eV
Ta 10.683871076971062 12.298794118684476 14.57280339496944
Ta 12.899179636916056 13.465206928578935 9.83443014765817
Ta 13.115050047807486 11.991037980573687 14.106680570429342
Ta 9.528494942519474 11.847202463571582 12.405651939999348
Ta 11.240363403049525 11.347554985808047 10.466146281455432
Ta 13.393618774704944 11.354261472283172 8.923250495978158
Ta 11.756964488573294 13.33607739774866 12.231492770461346
Ta 13.563151714524295 11.417648319046547 11.57022414907266
Ta 11.459377488559781 10.294228599898535 13.105978115224811
