9
Energy = -82.05722161 eV
Ta 9.734618857627312 7.046217904136196 7.822396755713677
Ta 11.755583243102516 8.298572666333582 8.271956579318974
Ta 11.267679128003973 10.478073437134695 9.193429353051998
Ta 9.320789264369274 9.650059755471302 7.596647169638155
Ta 9.935763027266098 8.302417180712723 10.27505381312529
Ta 8.854802101411396 10.714980568959255 10.047492162096594
Ta 7.644054832178015 8.010182695525025 8.951004592443228
Ta 6.572828215832847 10.360850863591285 8.876757419789495
Ta 7.025446548646971 9.263952445622872 11.094179887898445
