9
Energy = -82.69591718 eV
Ta 10.295474413539598 9.126683504430432 9.314711141256636
Ta 9.82903795342989 9.725786758348175 6.831673638535807
Ta 9.008999550315133 11.526518369101392 8.20382587633863
Ta 9.720840209950634 6.607116104811004 9.699790004286667
Ta 8.422819135042708 10.594124829668663 10.348024868955866
Ta 9.243158183811225 7.350581946314288 7.274963647128705
Ta 7.903808158815582 8.17454644764055 10.644751085821706
Ta 7.439154698219658 9.326657756434015 8.126772762707668
Ta 7.282778005473933 6.714054591849315 8.701557283566544
