9
Energy = -83.47308168 eV
Ta 7.222630019420484 10.163972217398316 8.576436652947095
Ta 6.572115840054571 7.641026229210295 8.963158717632293
Ta 6.912834768708826 8.555105278122237 6.581698213116556
Ta 8.725812270347275 6.813952547058619 7.148163713886609
Ta 8.691482234064758 6.383543386124258 9.680053400587946
Ta 9.73068210700306 10.409894295342562 9.07307894363623
Ta 8.359644684432512 8.795220531804768 10.538182858702212
Ta 9.36612589529161 9.337172192498985 6.768619078822728
Ta 10.492225180676906 7.973665697480479 8.744160639468383
