9
Energy = -82.05229157 eV
Ta 15.322090248094323 13.514299546320027 13.145534885623213
Ta 12.998306684263815 14.267139890534224 12.757222594923714
Ta 11.479938128314151 12.388327662602647 13.879481764425481
Ta 11.903855003678299 13.03510693777613 10.779985010478676
Ta 10.127976162142865 11.39341957597679 11.754474756009804
Ta 10.131879403164696 13.834229763419648 12.482604218329671
Ta 13.977336673674632 11.535215107437672 13.779669309010183
Ta 12.430794834917224 10.495803873304101 11.971263365252284
Ta 14.355237622875016 12.039315001679787 11.307898607377378
