30
Energy = -62.17532560 eV
Ag 7.055547170611804 10.069855464125514 8.063845563311347
Ag 7.311803649576651 11.261511387054307 10.652505601319975
Ag 7.667595428455614 12.707197778732638 8.162067133999923
Ag 8.324747036206029 8.555478553273014 10.053742005389452
Ag 9.264791048383172 8.681976001905202 7.2097159689832955
Ag 8.98342016664251 13.545906470079741 10.398989693224298
Ag 9.89040423477393 10.84276513598441 9.57524522601729
Ag 8.26734701049655 12.633901884683262 12.990666166238217
Ag 9.147357232625417 11.25744537898678 6.352466627145687
Ag 10.06803375812477 14.789043675320233 12.647132429079212
Ag 9.231848512609053 9.994558716558677 12.397403785423723
Ag 10.252159005303701 7.431811485638087 11.813762679916168
Ag 10.625267164395384 13.023815044668787 7.9625733843190565
Ag 11.090634660501246 8.140514515089906 9.177110398303418
Ag 9.44309289040877 14.034178744809028 15.204066172281923
Ag 10.380735108348508 11.416123076347214 14.641670929143185
Ag 11.642821210316322 10.301413562002638 7.407148162022535
Ag 12.099295761036657 13.62045223848465 14.33481683974091
Ag 10.999057533386834 12.240610608777452 11.944688218901609
Ag 13.71111792923876 9.197603420115227 9.073221891745568
Ag 11.406592394759366 8.907730894565335 14.04442885818796
Ag 11.952556923215358 9.703551452545065 11.398451898324415
Ag 11.69073990775033 14.414016035932441 10.220358827556202
Ag 13.031333764136642 7.165533855570538 10.92539839777309
Ag 12.694682366517288 11.841718717320022 9.610412689545017
Ag 13.13785565682446 11.12682285994692 13.786032719680286
Ag 13.672530682737522 13.20979677177106 11.976965689514337
Ag 14.677719999497018 10.69167432431393 11.377341164077812
Ag 15.628067189952612 8.053227473460657 10.883459947891659
Ag 14.12650179557727 8.627346840112178 13.181811043270475
