19
Energy = -36.95733627 eV
Ag 7.750121571962692 9.043288176339786 10.552685972636695
Ag 8.481820620701445 11.52761113401057 11.726347675617243
Ag 8.923520863282446 11.007731855593208 8.95557095974946
Ag 10.072619234527103 13.697590403452422 12.485803908334097
Ag 10.495770453817668 12.83697855698512 7.5940383264258955
Ag 9.005673825756725 8.87709696412216 13.060009925218608
Ag 8.948362643412185 13.73222317601915 9.812932800680295
Ag 12.052993169064674 11.31565349442568 5.965684800512391
Ag 10.508192252282596 11.125900611743813 13.572985089177498
Ag 11.828773907796702 13.294862015354683 14.632266075099448
Ag 11.712529449279998 10.30104274346508 8.436629035777042
Ag 10.455395793709593 9.50734733952795 10.802605562507498
Ag 11.867136249348844 8.698366862343489 13.089573553799793
Ag 11.203846996781603 12.343412711942763 10.26718404466998
Ag 13.289872422376774 11.032399241486774 13.894054661637382
Ag 13.021892804403672 13.242735015937221 12.121028185008957
Ag 13.052175873418488 10.448437985635493 10.975548906661835
Ag 14.623315231236262 8.901440953886752 12.617365530493148
Ag 15.290834024209591 11.613560137810085 12.033170838186688
