25
Energy = -50.59333418 eV
Ag 12.498143135468387 8.81984692816063 13.906870278905759
Ag 14.136583058258168 9.891622695648454 9.726799871789398
Ag 7.196121654563685 13.983809087538814 13.484858237056743
Ag 12.206027027164193 11.609266772859401 13.608763663050448
Ag 13.301931325425217 12.26283944955394 8.25505375818483
Ag 11.684733867556917 14.063703365721267 12.21835624961461
Ag 10.947788852454577 13.302877730341438 9.414979631661843
Ag 10.39822395543207 11.475464291577623 11.349814362819837
Ag 7.740641761326548 11.355804630139312 12.359747997734818
Ag 9.896863351688717 9.770263065107166 13.455778814399805
Ag 11.48867586939311 8.808754272852937 11.306280879173796
Ag 13.225450417934388 9.677628147804588 7.106718068331144
Ag 12.615941160720814 7.7014036603064415 9.022990588440143
Ag 8.81964167271811 9.361613460141141 10.687743768797233
Ag 11.24441989698419 10.386533129963057 8.939903233370995
Ag 8.858168810794076 13.87089642636194 11.271181318904048
Ag 13.209681404235788 14.760450494104944 9.85138615568096
Ag 11.605104827051983 14.275214944204771 14.93076498504412
Ag 15.150437046352849 8.034474361765223 13.94517840287805
Ag 10.610124294196481 15.987868324464117 10.667221773556301
Ag 13.300671980725994 12.197597006038437 10.998719539226347
Ag 9.612262796227624 12.704512492300704 13.907194969120987
Ag 9.588176562125886 15.582766950659254 13.382009309468112
Ag 14.46619028454158 10.262459506766533 12.498298464927098
Ag 13.974696770021376 7.629030588979717 11.48008746122487
