28
Energy = -57.99844850 eV
Ag 12.569371050256677 10.078140896479825 6.451057866922104
Ag 10.13067641121864 13.966162834006319 8.537225927783425
Ag 12.60667397776121 15.17960687321054 9.188142180226487
Ag 10.76963795858603 11.185879714826838 8.311181886225384
Ag 13.592656511105957 11.762363067756416 8.392514480048565
Ag 10.466765031361488 8.501832824569538 7.577778837244634
Ag 12.808824793513274 9.124077464346298 9.101338679671763
Ag 9.065269062541676 12.268146548875203 10.430396831734726
Ag 13.085622940462633 15.350722461262345 11.889733260014692
Ag 10.271538363553136 14.784723628086416 11.351372702914695
Ag 8.619147580877542 9.673418347302032 9.557518958443147
Ag 8.443657753772538 6.97998721508628 8.814416964186307
Ag 14.564542458470152 13.471517112360747 10.4081028186612
Ag 11.918086712184177 12.814255760545537 10.416310447727867
Ag 13.90974088506317 10.800162715161647 11.187547203822735
Ag 11.003723621612725 10.297965638032721 11.14826144677905
Ag 10.61729966538111 7.651231968224203 10.314793127023076
Ag 12.924361910001956 8.301497002784831 11.798805738596544
Ag 13.286465341510945 12.817991687999903 13.063476114095446
Ag 10.304632152618593 12.421872933974788 12.968930008105007
Ag 7.99864230699268 7.708284036186716 11.51842536936365
Ag 8.276324683334973 10.398262032010864 12.321515947519394
Ag 11.485527402859683 14.727087275766715 14.072338714589039
Ag 12.335197023886172 10.289542232022908 13.679677820014811
Ag 10.266984048356592 8.336090258965674 13.097238320358498
Ag 11.589441854764074 12.366971896929005 15.463731342486435
Ag 9.568602338282407 10.493245978864724 14.86742639622979
Ag 7.731611358542903 8.483506909723536 14.276577941311986
