25
Energy = -50.91418157 eV
Ag 14.118823307457335 7.858808545681427 13.547716817382176
Ag 14.462706974104284 10.125290958376013 11.39790047761283
Ag 9.865651379134436 15.232525026412306 9.488773577473133
Ag 13.69522332507463 12.230455327969223 9.373425694304876
Ag 9.17559315512238 12.935375094454347 7.876728539410912
Ag 11.816594828767983 10.216626873141339 10.309499817976137
Ag 11.936834726669213 14.156119455065154 7.814429430391197
Ag 10.408424486120937 14.262178918787088 12.280214239761253
Ag 9.983431106782069 11.481097619609622 12.210743947335246
Ag 9.811073078496992 9.804913293660121 14.370937557161444
Ag 12.740715646418032 7.832427416595898 11.202127465664258
Ag 12.742363197695267 14.840348122420695 10.525223651545666
Ag 11.307807955508743 7.398990715612571 13.80323682022086
Ag 9.97106085556412 8.61102655574676 11.59433136716997
Ag 8.43307086447146 7.539911911040901 13.602064823600863
Ag 12.851455464134238 14.766948386916077 13.462802956615272
Ag 11.598895453752563 11.245752128948398 7.680863312505049
Ag 7.645550174395472 10.036805479709217 12.13692019014997
Ag 12.341783798583872 9.957481888722183 13.249570768517053
Ag 13.82373768337958 9.450300078498994 8.682219948967017
Ag 12.93588668899239 12.429168901924305 12.054404069180677
Ag 8.256717775670614 13.082922271851432 10.669533326033728
Ag 11.36089473414915 12.422847652175307 14.38329282413632
Ag 10.949640805625057 12.789145417557622 9.938438968267704
Ag 9.060289039274352 10.586758464467598 9.638825913960998
