10
Energy = -67.90028938 eV
V 6.6406677065606186 5.757254993424465 7.144433685026998
V 7.87174724715348 7.379372206271472 5.6906330200660165
V 5.858984590513389 7.950093252447873 5.652287073604922
V 9.338469126850285 6.123697808920779 6.5909203392335165
V 7.496361429021484 9.555283811499276 6.83626307772905
V 9.297775233298669 8.614981651397036 7.310013475985082
V 5.988271458518858 7.749855135043061 7.936359493472798
V 8.196529844545646 6.589434884887466 8.528515693842415
V 7.693316074293355 8.710866967243412 9.019314364568151
V 6.029473219830495 5.980755219451419 9.702855707057584
