10
Energy = -68.29734375 eV
V 10.410496818783322 9.130216723236849 9.549583516279153
V 11.280970216701553 10.5897536700131 8.74771176661789
V 10.335293611343573 8.03705044582376 11.517609385819542
V 11.861929721650396 10.388261583934735 11.2365243398486
V 13.081599945296709 11.767188038515101 10.312238429717883
V 10.896817560812726 12.637981850414535 9.501805184135355
V 10.245114384172727 11.539793329984693 12.819098539671081
V 9.397192537384504 9.414162143513774 11.98787188494425
V 11.126169260528432 12.766766088087843 11.861689745885494
V 9.463726284771827 11.469719091856145 10.348619899832684
