10
Energy = -65.93172763 eV
V 9.192160438873515 12.07389908839793 9.999973268939048
V 8.832019410016606 10.70317260037897 11.071314065642403
V 9.021460462688387 10.197816828581283 8.487722688161979
V 8.052323389198385 8.21694592804696 11.505770228833608
V 7.850498753131908 8.549166829879802 9.712039008698333
V 8.19402932758924 8.242291279429773 7.0835619482012
V 11.22071940144432 10.728584278422796 9.669541842328881
V 10.326295882482663 8.71183605957047 10.57576025518011
V 10.416995308597526 8.559814729930103 8.385116369256032
V 12.599084585426743 9.149218575497406 9.632004897488626
