11
Energy = -76.13326782 eV
V 10.305104789672576 10.621861324826924 9.81025032198043
V 10.318541412696838 8.155413598515292 10.184157359871174
V 6.903888098954449 6.97476192615058 9.399589074248613
V 7.52309218337935 9.138322037243261 8.168501525338245
V 9.258784243126843 7.575173247082675 8.375785189298009
V 9.16667379908918 11.032707036140808 7.617219454483245
V 11.059416079731175 9.510021598202473 8.221756095220018
V 8.220789746107934 6.360264421083984 10.440361599361081
V 8.133742888673961 11.169459298669882 9.468523068362625
V 8.319630490055053 8.972215981167269 10.376286038349138
V 9.481720282349356 9.181183544754195 6.6289543011614755
