11
Energy = -77.0513156 eV
V 10.487859196843317 9.450142916233075 9.067102167922236
V 6.920596257116666 8.369198528260213 7.439359919025789
V 6.9874797441805825 10.342600174247059 8.203428200762756
V 7.706978766793884 6.821886237251802 9.209660847064834
V 8.75111185538393 7.298842282001651 7.012526183263502
V 9.882579281300492 6.965910597686169 9.292535887370631
V 10.630464498232207 8.211727822933224 7.355074255162608
V 8.952653083776223 8.366385272004464 10.68445624521385
V 8.657227861383184 10.5207136576862 9.492878226923027
V 6.914090795800672 8.702276451620541 9.983978274437556
V 8.95741556169451 9.79877276759214 7.107456695358518
