11
Energy = -75.99652855 eV
V 11.060185886725638 8.099079031529063 9.576998291084704
V 9.963632243995013 9.23375382805772 8.060712082563466
V 8.809682610831441 7.083932873044327 8.976758162314962
V 8.956518513850243 7.136630334383719 10.962135188368018
V 8.374161876004385 10.779796829390065 7.352241022133611
V 9.579063955051591 9.50025285590933 10.562952766627246
V 10.482884957256363 11.57167160077778 8.875003596688808
V 7.193868584251061 8.428570062935627 10.217364329667037
V 8.109988660514498 10.638665750613557 9.505153940999662
V 7.310300682801963 8.694586781314307 8.181507899485394
V 11.79376832061959 10.490381356547761 9.379548491786055
