11
Energy = -75.7669736 eV
V 11.856794607438736 12.69980054290828 15.894644939851808
V 10.29305705649914 12.169604195966294 11.146148211708116
V 11.805191657836348 10.86434603998203 12.738261677582457
V 13.564819301060565 12.801626363375952 10.150433435078291
V 14.209754105849616 11.759613929481569 12.331040564631882
V 11.290730145608972 12.792936957114664 9.692077423159185
V 10.919486255858205 12.77792664949592 13.515683172002088
V 13.464589762097727 12.372265656768134 13.878258737666263
V 12.404134598223806 13.49661320899879 11.84431138681038
V 12.520890986940797 10.901359271209495 10.720046172300068
V 11.5296410001213 11.071952351334462 15.269467697824036
