11
Energy = -74.92200782 eV
V 12.07885040606016 9.46311676207221 7.737168232145035
V 11.829633057147017 11.119021682125535 11.375664144640265
V 11.17559992241037 11.37322633854919 9.13967882495588
V 11.715573256306206 9.089995455269902 10.215176577424163
V 10.11287257278784 12.755948472366587 10.69188530016186
V 10.981081626516435 9.053720050101278 12.43301594822795
V 9.505021353728695 10.447224338633697 11.112483063076517
V 8.839798365027534 11.465939375410255 9.011802796297578
V 9.705470722188593 9.324953277419143 8.61333675890841
V 9.643780498742354 8.07654414686887 10.597147773107256
V 7.717676323404772 9.42044864168845 9.831662244663276
