11
Energy = -76.31246851 eV
V 6.042416717635613 8.680353642464976 9.066745586169988
V 9.700807395276406 6.94820385589164 9.063191484037342
V 6.9918177361836324 7.466468377331647 9.942956552619705
V 10.291400810248978 7.900985064048739 7.1742301387354575
V 11.237984024425863 8.84957457956008 9.039708582272251
V 9.302808538742498 8.313757620769234 10.714563079038571
V 8.787333214543843 11.320573480133326 8.35229977236498
V 7.933618702571119 9.97995993254221 10.359516996986446
V 10.259980600293849 10.33844059476111 7.353999479553618
V 8.457009594517526 8.927613689068595 8.350068720120792
V 10.275075165560928 10.554321217875735 9.862972256618587
