11
Energy = -76.96101108 eV
V 9.527162274880142 9.1974372515261 8.39815336164043
V 11.381007059896623 9.078916422549696 10.112546597852312
V 6.954670857198072 8.379011311328176 7.577785095340759
V 7.577963772371708 10.739052661485442 8.195039517309544
V 8.38538527690862 7.1029270903996595 9.122950316611549
V 9.147269463594457 7.4099043502687 7.0953753068320164
V 10.926296063928113 7.423283013643606 9.590999722595289
V 9.006861628809245 8.572373465926631 10.913874293432741
V 9.189608980749426 10.540026609595571 10.299242007446175
V 7.07739675133915 9.395920410207005 9.68687901160136
V 8.115674370324195 9.450443913069677 6.29645126933758
