11
Energy = -76.62874273 eV
V 10.742117085440613 9.17933515399892 8.628816563591258
V 10.175648667884928 11.661415383078342 8.624669803115802
V 9.76174359270344 10.00120071208129 10.396268387031528
V 12.210287645816292 10.786207933144834 9.187698261459067
V 11.366779927698545 12.54183285534229 10.52952828079001
V 12.432998186659288 10.619631844415926 11.61694849242757
V 9.174044249142112 12.433172165316948 10.573892499598765
V 11.910177951761884 8.71440360328412 10.660156144087159
V 10.667664598985462 9.30106765181216 12.564658152478433
V 10.508436340736878 11.60166774218865 12.608139212972459
V 8.549133609355458 10.659096811521055 12.108256058632852
