11
Energy = -75.79960709 eV
V 8.435641794892124 12.193358629556919 12.611570222900731
V 11.621427131573347 13.050218257942808 9.46709922288734
V 10.406725177469477 10.456211267638347 12.073025975606567
V 11.28209301468871 13.682621849355655 11.264125656819715
V 13.908424504884774 9.868143881675698 11.51006553460389
V 12.611174334193114 9.048196154941209 12.372018617613845
V 11.557184023213654 10.806849815942096 10.560880375659558
V 12.490768320316114 11.665719457723705 12.74937450914106
V 9.48071580582056 12.334002352091371 10.621974060725954
V 13.430586341057351 12.288527860929399 11.134159804477934
V 10.010227636021959 12.856324188070598 13.144214555858765
