11
Energy = -76.00974629 eV
V 7.774325697112636 10.573680217473166 7.459445274037445
V 9.150847556770929 10.787869111342737 6.360713643123262
V 7.422572207890981 7.807850156830321 8.256135365087296
V 8.378413471820965 9.652476108431717 9.684018337156598
V 7.301057428325925 7.78374234040859 10.545220322347834
V 9.271324663957358 8.436106110002934 7.4466703243971555
V 10.158758518251963 10.616555404642714 8.64744770109859
V 9.634617589454146 8.429232273710097 11.499088564754873
V 10.340925547807474 10.101037355357695 11.117193010459726
V 9.357682092978685 7.011500889824728 9.490922747755805
V 10.872684284206072 8.524850940107676 9.191643169232304
