11
Energy = -75.01452156 eV
V 10.629585151772426 12.408878775868189 15.740986225368033
V 13.057745184176053 12.094355268103126 11.50033225399287
V 10.052495798429696 12.196115690980056 13.591892352651904
V 10.479769566001622 11.245701489564954 10.954234023194418
V 11.946000117059736 10.796792396994034 12.766900391384656
V 11.201511920566753 12.3496060136059 9.565663182283078
V 11.228318894164213 13.37513844231394 12.145294868916713
V 12.486677528973765 13.085129213702574 13.858523249092057
V 13.319569215340504 11.521697495497847 8.927652275490177
V 11.81303607460639 11.168492451484507 15.200196091942368
V 12.431796734252625 10.204788574582789 9.83454420795596
