11
Energy = -76.16721572 eV
V 7.559771434548131 11.629589066907165 10.87371123743921
V 9.946218040005393 13.107059116688005 11.272488055178085
V 11.67169301039874 12.501645472071791 12.567648892088902
V 9.763098128391762 11.493515343079096 9.70349245313894
V 10.21352044580922 9.589290778694869 10.481099738307094
V 12.105913498533564 10.860033010538128 9.365621489884903
V 11.359464762559085 10.043052620453384 12.714173877856252
V 11.882549083019669 12.797758905999762 10.050948689134621
V 13.145497295101777 11.44636739881313 11.617381905420832
V 12.49742935382561 9.374420446137732 10.998840580036571
V 9.609148122024962 11.042283172908954 12.297011894043232
