11
Energy = -75.66806468 eV
V 10.717521448774795 12.914128645861167 12.431959046686673
V 12.633614269854577 12.672321776403175 13.935893391791623
V 10.336048085406976 10.661882139064064 12.719019090060918
V 13.242119770000027 13.142984581838332 12.29537402832047
V 11.345964442016292 12.564853637993231 10.673034345044067
V 13.515996281666679 11.293147049571248 10.362093358112128
V 12.200240803420144 11.049335470667879 8.999584102031186
V 11.624415479837246 9.675356419605185 10.762562954550468
V 12.526082125035659 10.630113743193148 12.487429411825467
V 9.492072250712114 11.091734344111735 10.218561118216238
V 9.03253057630853 9.598056381223754 10.99788147455963
