12
Energy = -84.21111218 eV
V 10.763176944573956 9.568146965356908 12.072111059935649
V 10.40994312991949 10.318000161259297 9.915017095593926
V 9.075024947055727 11.77006278702223 11.494924483353422
V 10.594763219174178 7.671757573963959 10.343224431738497
V 11.347068254731573 10.617445613286655 7.996024635648392
V 10.30626523472299 8.54221991368226 7.885138846179782
V 8.731594151337418 10.538226696118883 8.034003505272723
V 8.629943216521287 8.290092952437986 9.090589410902247
V 8.895665670684052 9.0229384620624 11.604196238534323
V 7.7193560864698565 10.364981962924638 9.785909852514132
V 9.225797145819492 12.459814868267138 9.886133092610331
V 12.14568621476721 8.680596690948823 9.737010916162884
