12
Energy = -84.36930231 eV
V 11.185552308987226 9.053470711107066 10.864121609180861
V 12.011764748310004 9.66766990636814 12.90842097352155
V 11.46993768529487 13.280501567901831 12.88193127314444
V 13.129070648869597 12.980346857845166 11.208007508768471
V 12.229447752694334 12.123579381014695 9.280268766927033
V 12.921372508606202 10.465228482934364 10.610232117030623
V 10.87350013560543 13.418496460484336 10.58990409581431
V 9.74561139607606 10.114690854395656 12.303950989199453
V 13.24193117208301 11.458024626262501 12.75542803396315
V 9.480280405852803 12.1913179216214 11.741596260033067
V 10.429278086980004 10.938970790048122 9.945031828995418
V 10.907430326044286 11.58836614501264 13.758114725268515
