12
Energy = -84.12157868 eV
V 7.730861125111595 8.792184977752052 6.826502298088428
V 8.700545287799699 7.1000406471805055 9.140727312140653
V 7.7848859136981226 8.77037865514761 11.49256342950051
V 9.904029794821962 7.790672076355422 7.112152893987908
V 10.990660495174307 8.793400368301333 9.132092327928854
V 9.938586732094098 7.775994656327954 11.162246549590146
V 7.890315015487544 10.679676344104376 7.339779893156335
V 8.462320208234084 9.108265232768707 9.154469402372372
V 7.9391463790181955 10.671445967857716 10.983430102003913
V 10.05025439468868 9.746331025698405 6.927418482592558
V 10.286604080372975 10.801601066778616 9.141655436933453
V 10.091196573498996 9.739415039974721 11.356367813457558
