12
Energy = -82.70670005 eV
V 12.844986745087887 13.648599160225602 16.716089277121526
V 14.338528070246953 13.803961154016369 17.692962659698182
V 13.445099561832466 12.522415357983 10.691301235387067
V 14.535243382096036 14.327713577180718 14.936940489452214
V 13.263069965444048 14.814199743710947 10.099633411682934
V 11.808104798078547 14.39964880202251 11.117357281219746
V 14.300561256097476 14.301288451679586 12.18501858777273
V 13.176746509484552 12.00096692184927 14.866932257036419
V 15.132403148108423 12.541944869245446 15.918275189205028
V 14.594283581743078 12.600816877052774 13.188810695395127
V 12.448469539065975 13.983657316378821 13.975453977761255
V 12.171713938618996 12.411348510105084 12.299700217353703
