12
Energy = -83.23815857 eV
V 8.779642206664246 9.134134802373785 6.294050342532073
V 6.974655014578987 8.209887617966075 7.282902969492034
V 9.770383123396043 10.895500999271727 7.7034795690843145
V 7.45612311502927 10.68101242680365 7.331557152607697
V 9.275965169798994 6.984517554064788 7.596631154232276
V 7.625175344926584 5.78866797522209 8.124077290452297
V 9.558767723857368 5.461748301798034 9.714765232374077
V 8.273671188612154 11.124893299978954 9.494327061838096
V 9.05480309358874 9.037754211789155 8.868269929955549
V 6.506036285782284 9.485504323520704 9.058093455845716
V 10.235883509234 7.093891911817402 10.040134335111814
V 7.6338843595796675 7.247476710442132 9.636701641522686
