12
Energy = -84.4984417 eV
V 8.80331682946847 10.57708848256817 10.042477739818365
V 8.660275872796044 6.888960908571569 7.424904090156326
V 6.878097641084111 10.064210417476298 8.791057695324726
V 8.841430615904914 10.726379376007827 7.664966024674836
V 10.00406058859099 8.563124779786206 10.537057984569321
V 7.442116472884343 8.675759611541942 10.524501327908226
V 10.023434041301046 8.778543757188624 6.940976218054957
V 6.763921203546245 7.584714834805836 8.628276152006281
V 7.4633287345374075 8.91536904683546 6.929991676859932
V 10.702591620239003 9.88264094001541 8.829254393197385
V 10.588698853249646 7.402296631505784 8.683810877029462
V 8.62800942890343 6.740193311191331 9.80200821037826
