12
Energy = -84.84399921 eV
V 8.922982475697028 9.427462673716091 8.7327840901069
V 8.93067945988742 9.825474142670144 10.989535483225875
V 8.742099032286152 7.842825525424127 10.812386812028155
V 8.465640672784225 9.99711223313058 6.58427500827759
V 9.157053643986488 7.587212302439739 6.763702278227608
V 10.19272513342711 7.001466134561231 8.957500745088508
V 7.151010548523114 10.736881173254522 8.962550962607597
V 7.72477915449066 7.088159283146758 8.721034998201562
V 11.004304843389056 8.626312248521351 9.844340879738468
V 10.769588775725637 8.744029239875967 7.278964228371125
V 6.6359524884892895 8.980361098982877 9.787407734690293
V 6.931945771313952 8.771465944276622 7.194278779436453
