12
Energy = -84.02917328 eV
V 7.8924178814761 8.082636918813236 5.96869795266584
V 7.219976796038797 10.165515848769859 6.759480971428315
V 9.136097938547529 7.091890972270175 7.008355567644133
V 9.391079941388933 9.631855306613044 7.367861765835161
V 10.85035086661617 8.259504834796028 8.488691170637535
V 7.008808000020046 7.987555311954476 8.109523088185814
V 7.338525134637807 10.490843761662182 8.627699434601713
V 9.26764497103989 9.868542087700932 9.695306688350616
V 7.114148724424551 8.595504593175898 10.315854111397284
V 8.768760340931143 6.953063486889706 9.264775482646861
V 8.606146416522693 7.994932472207968 11.328316807061883
V 10.722580476165938 8.1946918929564 10.381974447354441
