12
Energy = -84.09575726 eV
V 8.039918463491095 11.664096237081731 9.30783466883901
V 8.361353506747765 6.4520703615049095 9.626283908627547
V 8.011995516911245 9.059537168593025 9.519724762120488
V 10.154898110424842 7.689951051171924 8.362751470055068
V 9.886621430297168 10.353444990127171 8.14687799701031
V 7.280572990986139 7.808395907362557 7.900391720292543
V 7.31481225258122 10.843066962504071 7.891376199297169
V 9.376283112852082 7.460504263205234 10.860842966946986
V 9.278426840384938 10.138271247220935 10.886046277329504
V 8.862933827701948 9.143063431343505 6.800858633489507
V 8.930032872380222 6.58215718157012 7.13687022744257
V 10.8604191886884 9.163709084867877 9.918409168549282
