13
Energy = -90.92724867 eV
V 10.763027481619837 9.022285028448813 9.048527774579153
V 10.029099639540574 6.682762314495978 8.33920007330339
V 10.73599053133171 7.527389686838818 10.701105094286605
V 10.641435916403015 10.30758205591775 10.774483132993222
V 8.88372877738599 8.885344564965985 7.419000050961566
V 9.449817429400168 11.174820587631395 8.388859000437588
V 8.296210073841678 10.136087338593505 9.693185489718335
V 8.451911196779026 7.526614231647537 9.436445673397586
V 6.945892563144585 10.326575469145496 7.446750874900384
V 6.882124588612092 8.193411177296472 6.07078317023236
V 9.271558888103952 8.828294164358017 11.477296013374538
V 6.400989182925941 8.807662800104243 8.49999286884599
V 7.3965253020194055 6.82772348441925 7.119521152046569
