13
Energy = -92.21886661 eV
V 8.940162744552524 8.954746623765645 8.989891007910868
V 9.08269175158623 10.330875312300977 10.811193806621063
V 9.091030409362931 7.524464046785105 10.814727033655135
V 8.820827388828013 10.360143898311403 7.097583395257451
V 8.833945249993288 7.603638376716891 7.099479229267023
V 10.252270540437703 11.12821461125282 9.053241493922334
V 10.18160515973088 6.778111476959455 9.098374269412838
V 7.724277001928037 11.122609953490375 8.78253813195786
V 7.659213539527201 6.778014014221543 8.848740733115212
V 11.16765500796764 8.986324084224881 10.092639309196644
V 11.059933948519905 8.962182348005552 7.9459672479980465
V 6.8190468304946785 8.939202610492972 9.945942637055332
V 6.743828055987689 8.907960143472604 7.796169333547158
