13
Energy = -92.32651242 eV
V 10.20113621519956 10.628235315152077 8.637136499790092
V 9.367165747054482 9.181072190128905 10.570650018549781
V 8.546277660851347 11.019706756428842 10.449652396600992
V 12.387708897963108 11.545241259727149 9.349786209389544
V 13.623471437481376 11.129146146012713 11.481511861982915
V 11.483641922875531 11.967097744330674 13.249043634671683
V 11.04178189559392 10.63243855185529 11.242190866736411
V 9.512771393347514 12.725720295444594 11.99806828125033
V 11.551052272544512 9.190375235180266 9.094398380240618
V 9.33869841174191 10.838537889797552 12.909219885390916
V 13.163255340301387 9.48201041999559 10.873444497729093
V 10.40592268964021 12.677588291577386 9.71495238047828
V 11.984971107365597 13.030537844636225 11.608882867849404
