13
Energy = -91.24666299 eV
V 7.534720471658538 9.304877614980724 9.239842778053003
V 9.51456261994649 8.764053965547607 9.245388540783955
V 8.127898190409297 7.22432183153921 10.8565726424925
V 9.13034848360813 10.945669048489702 7.868659049577159
V 6.377557531698121 7.309002186400837 10.58046133126207
V 10.063324366838552 6.906219114959465 8.153202356908324
V 10.623154133311248 10.101697972628656 7.38013051162487
V 5.578165107497213 7.525071647719007 8.203391129731637
V 7.766851213493953 6.900463425127894 8.432163497352398
V 8.658310502583339 8.736067936694365 6.705898128614409
V 6.625800910902226 9.029678582509407 6.973475031827471
V 7.093962456333659 6.730024418905223 6.0841838664978924
V 8.936949233369544 6.373470776337545 6.219220716241133
