13
Energy = -91.30404713 eV
V 11.471251298838737 9.782780368988734 9.119358649768301
V 9.97501445331473 10.700549912302986 7.269999603907864
V 11.038028187096451 8.381161244197203 7.687711172436861
V 9.56805818391025 11.228140526964037 9.762910558106553
V 10.741305605702358 7.548654016558272 10.15476927955531
V 8.679795882621962 9.288221178719226 6.588963516164129
V 9.094119069785528 7.18219323966547 12.230646424861863
V 9.013514802712765 8.797440119406076 8.89382123496664
V 6.6811858990069295 9.405553110604988 8.18589215214964
V 7.7244544400451085 11.098361547420211 8.050589434371917
V 10.182769126553804 9.166757002839988 11.264641852768756
V 8.105544631160548 7.596841291460867 10.70306503278721
V 7.922673615198743 10.253553254444645 10.479394643891165
