13
Energy = -92.67818052 eV
V 8.000989746735742 9.374053773112184 10.92639303935618
V 7.891540319261271 9.685846409350583 7.0508602784169865
V 7.9188683397635655 10.873481231216338 8.725968379270434
V 9.15574871100985 8.504494272764694 8.634388092370884
V 10.209249077653407 10.561484449555232 10.048954880216266
V 6.4280611073645915 8.933643113644969 9.067365417947757
V 7.038143553734227 7.385095475262667 8.061410664578402
V 10.25268350687529 8.34887356630023 11.183149334513205
V 10.48611499463921 9.2299919486495 6.695988287976725
V 11.462599654053244 9.262757388235626 9.075028837694875
V 10.121593977290626 10.911889976419923 7.59587044496586
V 10.48203035412464 6.949725631448502 9.86569341630451
V 7.951171157494473 7.377457264039558 10.467723426388051
