13
Energy = -89.80152625 eV
V 8.022477017746418 11.505141908452396 8.718900847080175
V 7.167021563781387 9.016879483096798 9.117502442311839
V 7.275878599083523 6.781108438406503 9.053447467845995
V 7.891475813624717 10.05744658618835 6.727507812106484
V 9.081529189001106 8.253800150422752 7.872236030966533
V 9.28596551853462 7.319056847252597 10.125593954126904
V 9.809603378182008 11.780921619473713 9.212000413464716
V 9.08531459612702 9.74962950417921 10.356454676099435
V 7.297573551785985 8.025609347972376 11.14927418611949
V 9.63342424935969 10.674788408313152 7.018078632168049
V 10.958242026454805 9.341777351080681 8.901304649961112
V 11.235292238007062 8.363500754343658 10.894360467138782
V 11.217220874805689 7.09135815906528 8.814356862362887
