13
Energy = -90.59735353 eV
V 9.352783400362386 7.392732122029642 7.723117181493858
V 7.655376796870926 9.59791911296843 6.789816679257615
V 11.872885954167508 8.358126408452168 8.834889275912587
V 7.827922689088188 8.617684326906401 9.214535875709469
V 6.302025589287278 9.881478408612871 7.8963743508944075
V 7.672823260364854 9.925225079454023 11.298010510491196
V 9.761765440265174 7.251524674969507 9.870098924754052
V 12.059029416888448 7.216315347381903 10.176818277769309
V 9.949377080307157 9.380382179856474 7.875829684926249
V 8.481395446092002 10.86169840446375 9.035067676543322
V 10.12273125591964 9.365857194983166 10.64468063914612
V 8.683131089506833 11.421750498605455 11.398619339702675
V 10.686867279761788 11.14609143191101 9.671753701307235
