13
Energy = -90.65434431 eV
V 9.765463298781883 11.533229682745992 7.840526018879679
V 8.299734281300996 9.73168913778034 12.066107069568828
V 11.564358398189823 10.016929751489785 8.636123508821335
V 9.315055440889001 8.103007341143178 11.541349741546208
V 8.628283080802069 7.897996538530673 7.640813638762117
V 7.959213195073091 8.937372157130794 9.589298494835955
V 10.264358991366041 9.284681339274298 7.000391938132665
V 11.66637117314347 8.951709276927872 11.42158609096106
V 10.354945334589223 8.075580170113307 9.252623133657558
V 8.017355104365897 10.155955856231488 7.288170689961667
V 10.676930241087438 9.952397742750005 12.56064617872189
V 7.927406611716368 11.286723531105942 9.329731760337946
V 9.885992348694698 10.398194988613445 10.158099208139328
