13
Energy = -90.30617223 eV
V 10.077376382464422 9.70187278635474 7.122117865467854
V 11.798363813506914 8.469025104046331 8.413872687729878
V 9.670500630122799 7.469385373462683 8.286638549152569
V 10.781755361646084 6.977191882517978 10.204913070227446
V 9.268517418414392 11.370005073782865 8.742987029780325
V 11.633643719225992 10.797376084510402 8.197694562095972
V 10.346219498727644 9.502215422172839 9.874008658923175
V 8.046041846526348 9.291866342584006 8.433433709908938
V 7.41816235197995 6.880096104991334 9.133339144841399
V 6.878363444921884 11.2400939079156 9.444495166119946
V 8.5903420413502 8.020203292908239 10.710855579465434
V 8.37411644379963 10.552589387394942 10.883571394834128
V 6.54191871558682 9.04350783254768 10.158290324926528
