14
Energy = -98.97997967 eV
V 11.062812834778152 14.08875034943781 9.22451028102537
V 12.138553709563347 12.082791104823649 12.362783232665212
V 12.624662469282873 12.442391409574924 8.54896879359925
V 9.08868086085002 10.076645811253153 13.000009806007913
V 11.216590713273652 14.282469159187809 11.079867271523616
V 10.90688284155171 11.620609581140444 10.175979655400788
V 9.49470454570659 9.579023197559108 10.812822804368258
V 11.408208925973467 9.086979020459712 10.444469968323899
V 10.78801374098486 8.642536375713279 12.796391102218518
V 13.183260395362355 13.283044069026834 10.244546524329758
V 9.73915247474929 12.011015389313068 11.74823592333624
V 12.98893019645511 10.756195405838984 10.673425708303071
V 12.580607166073419 9.55604029940689 12.684680786075395
V 10.877592515157035 10.944667457866156 13.763592306334658
