14
Energy = -98.41564827 eV
V 9.95774574963343 7.930920826029525 9.843832081110664
V 10.568865266757694 14.281794074330174 11.562471178869405
V 11.651293907289883 12.104083626403042 11.778329638472307
V 13.865809174021372 10.834534152254244 10.592405177329969
V 9.87292722236692 12.741326945173341 9.793924918113866
V 10.015466991876005 10.346794235483587 10.721272611519142
V 12.250890073772249 8.853885067125956 9.82355646847194
V 11.955183684806245 11.30619395880323 9.473878009596357
V 10.239097327629985 10.89073904001558 12.951005363419087
V 10.61311334287278 9.811201770706028 8.429723640213595
V 10.063673403125042 13.506348894369793 13.259043263558318
V 12.313596707788 9.722876219396882 11.922764390785867
V 8.847431198212574 12.487425102190237 11.466058059930289
V 10.574926954153794 8.057326287969648 11.627354303187195
