14
Energy = -99.03285499 eV
V 13.77420755411688 13.716875456032719 13.955658974853323
V 10.850296133417396 8.745312880225121 10.734708979556963
V 13.882187164173269 11.202547749477093 11.450754413047857
V 11.499702185130664 10.792603051309884 12.031049080081575
V 11.143699167629471 12.799543120487622 13.57674336615505
V 14.682154810542082 13.269484853439032 12.3935459731397
V 9.55250978420604 11.164220097197287 13.201121978468167
V 13.327355838761243 11.462515622060302 13.512600777619157
V 8.984134590334323 10.524659519158007 11.251351469238069
V 12.357874518379846 9.444721871225555 10.060417767919327
V 12.072203881963778 12.220776730183202 9.94296831306177
V 10.21245606842563 10.935620732208582 9.640677124035905
V 12.310508591927437 13.363764659264625 11.768384201839675
V 9.960730296113608 12.78852920471959 11.322208067557948
