14
Energy = -98.6786224 eV
V 11.213017026076233 10.395975855757644 11.180582400097133
V 9.195301558810867 8.907579093515304 11.566605956083228
V 10.647549724309137 8.165105259234974 10.128848293135702
V 9.698375953952144 11.078387331979963 11.982186813852708
V 12.05174588000063 9.815583033178033 8.74207183895325
V 12.074437291600898 8.127773617643337 8.150961041422928
V 9.623407835073124 7.112859193555653 7.875445247737554
V 8.218806033887153 8.337070014682114 9.384520251103938
V 7.317161950149023 8.475588821510302 7.242040386084677
V 9.829779437074693 9.17297383013986 7.526953510528994
V 9.524044756361203 10.633165500277762 9.409947106287916
V 7.565598828431746 10.473825651972113 10.427008254543312
V 7.587658656466094 10.486374596094674 7.797678233392215
V 5.992012859453522 9.323168411406538 9.143590410523581
