14
Energy = -99.04659542 eV
V 11.683054521234503 7.0658625367686385 10.446353501048895
V 12.018116420817261 7.387984952926225 8.64367095210297
V 10.870487238294213 9.281988709458522 9.944845146110273
V 9.207589583079471 7.378020931571868 10.815693139554426
V 9.639895495768222 6.8842428866411876 9.003359533402248
V 9.897934028734785 11.358624676125922 9.126190646266746
V 10.552640595485148 9.281236526799935 7.765115201536208
V 8.764186435859875 10.038595543931962 11.338734519235862
V 8.47153561118658 9.047695444826884 9.038870260766354
V 8.161561061905003 8.862415366271712 6.787934498863716
V 7.02394573617193 9.36397225359048 10.922944201413824
V 7.5413196821238335 11.515634827921033 9.580533727986602
V 8.795842713508508 11.115669754043951 7.388154458193512
V 6.530018726659964 10.436443469498533 8.355953240949031
