15
Energy = -106.23776392 eV
V 12.16390915051601 9.78697877028232 9.84076537317626
V 10.363848777957399 9.723527631646121 11.611334422645328
V 11.012839670012776 7.9912090075861935 10.889833840953761
V 11.085511026292217 11.533655993221114 10.087689655820279
V 11.154697969280749 8.570149765021542 8.034242824199216
V 8.294784538005638 7.895335765354509 11.21242866222997
V 10.924315266233824 10.84221084072831 7.901945477896139
V 9.512945166410928 9.390931401334315 9.362385876060301
V 8.690623743956596 11.584081595714348 8.884783490049847
V 8.818669325201316 7.007487068283778 9.409687303615362
V 8.387138557180359 10.183526284314333 7.258286953846081
V 8.286130027584234 7.9869532991434005 7.455480601332514
V 7.059831121333251 9.465912050005201 9.580539050359512
V 6.492855147587718 7.3206641347200785 9.219947061209648
V 6.186253477150077 9.04463893722798 7.6757725770998535
