15
Energy = -106.79671293 eV
V 8.314910104713 8.59966697268739 6.3530219482104595
V 10.695142587684684 8.87026585286205 6.806457920044114
V 9.903273460936907 10.865507883991977 7.652510332951914
V 7.399577702572904 7.510640433314497 7.478223286226061
V 9.92745261196559 7.14109242327168 7.961396276040487
V 7.214109017909556 10.791861756766307 7.805488612585821
V 11.444937518264853 9.274937049356057 8.789499620158509
V 8.740978029486818 9.204881314470459 8.805134283739863
V 7.725998147414444 11.42223078002872 9.380628014744977
V 8.381042160702354 6.62832892441041 9.612807945742286
V 10.351414726373982 10.829521812812878 10.003197021646422
V 7.333407370597086 8.402761694804708 10.451590098120434
V 10.126741375461982 8.152411023388776 10.50645997344584
V 8.790425892145496 9.969625325031664 11.318968578687013
V 8.657794498262561 7.343471957294985 12.081821292148037
