15
Energy = -107.56527935 eV
V 7.4799686639340575 10.552221770009247 7.548927763521455
V 8.713679342969819 11.552642835375641 8.774719139886185
V 9.912286848092203 10.251479319052143 6.946390682094771
V 10.967027266560493 10.918546033333147 8.563837029094097
V 8.225319158805442 8.432456232269894 6.395610667561169
V 7.3531360277678495 9.77358042328846 10.028761256922985
V 6.55364704624116 8.455668220429645 8.187003994911572
V 9.209635376875058 8.821587399583535 8.805122143041643
V 8.501126848582775 6.9125508928265536 7.488997716610458
V 9.963813033590414 10.259268307707059 10.583965410295637
V 7.281399125141933 7.167993565297355 9.76927283201734
V 11.497036312066662 8.574624497640707 9.026336786685247
V 8.497420624535268 8.241165560420585 11.383534076084802
V 10.69897708368899 8.089430338248704 11.079466529521435
V 9.594448514611996 6.570182044008939 9.859491939129727
