15
Energy = -106.10099089 eV
V 11.340083442375134 11.75752539674542 9.930803957819373
V 13.706747692237874 12.399711947774282 9.952477242642951
V 11.963149600533798 9.532843193608876 9.596532590626119
V 9.271353797060067 10.850568953459716 10.628714392236473
V 9.729084404317154 13.486009965545351 10.709173505936532
V 12.103817000466778 14.281803315391716 9.775796342171086
V 9.78050092126523 8.343249691562328 10.44205339950068
V 12.285099849448116 8.161129440132077 10.901842585858736
V 12.171806028532474 13.734365997373569 11.570099853163942
V 8.91563481083069 12.871970301955614 12.327822207237155
V 13.425322183919691 11.341123196722396 11.40158839304798
V 10.848216470977233 11.95871319881596 12.598607476879613
V 9.030990570041908 9.917118859866873 12.314101393232917
V 10.204671045572509 7.608448363462393 12.120926180741524
V 11.479913795228365 10.0118097903901 11.985852091711985
