15
Energy = -108.48635998 eV
V 9.540099612926994 10.115294418420463 8.097450223983065
V 12.069551770010587 9.88855457545989 8.31434635530445
V 10.125686206610593 8.279473657373147 9.002195672678686
V 10.642234158569666 11.993646961802408 8.829407547204815
V 8.286522161843925 11.375352488912753 9.766508458669842
V 8.256120952396175 9.177366343876223 10.10494915976237
V 12.966870136283555 10.958147008378683 9.477780724738832
V 9.47168851656436 12.636501845227718 11.015517413526412
V 11.678685137331854 12.701762966199475 10.75475490700267
V 10.746575772918835 10.164233182695755 10.480520813976728
V 8.865823598199903 10.316170648994875 12.024243894361668
V 9.963444141451657 7.9671944624330555 11.533327845096178
V 12.568906184029116 10.883879735222706 11.981621533608923
V 10.703204329296176 11.477760663732166 12.782985363478408
V 10.969343889870947 8.919417609575362 12.689146654911506
