15
Energy = -106.87237689 eV
V 9.056661456954105 8.684276623919319 11.018268998430479
V 9.559169787826669 10.471801551798675 9.867624639439537
V 7.304992186647544 9.9648382929817 9.464962570610078
V 7.304259959800997 7.609128427646534 10.31323006937988
V 9.646591990978305 6.622770969665071 10.108901510491068
V 9.090170693225957 8.405694180818402 8.412797910583604
V 9.296652849325225 10.95414995850154 7.930084084799356
V 8.17893284147812 6.089205732949861 6.7223894406742355
V 8.417135074039251 8.144668661045499 5.696516857374119
V 7.391353400188604 9.983990901029241 7.001336697406077
V 6.7214997520502235 7.764406672300978 7.873359876764466
V 8.35818071369928 5.738972396578639 8.999983135721807
V 10.030706026706538 6.696621130924447 7.203357882276119
V 9.771569621852816 9.424147866947205 6.240146044171558
V 5.5237273896802614 9.096930377346094 8.798644026331255
