15
Energy = -106.12178653 eV
V 8.708016133045046 11.933533573780547 10.799418438876408
V 8.875046201269488 6.93325793589982 10.641600624881407
V 8.988846182223313 9.552940056599802 10.149817931647558
V 10.681285182928017 7.944769647167485 9.261667925295269
V 11.014770375663804 10.576193670499466 9.134482995727254
V 7.891547170414739 8.094417125730779 8.689693185012102
V 7.43164386090162 10.759013222897284 8.528835392233486
V 9.989245365436357 7.83625725915853 11.756469265490585
V 10.175251522056667 11.141208957713042 11.794450980248975
V 9.384101235864383 9.140588139440169 7.544168265334192
V 9.12477201576462 11.58854761967086 8.312578638281241
V 9.37979259395066 6.487628436738956 7.8919542436960235
V 11.66281401793767 9.35391292314854 10.898482444202548
V 12.25459747261663 12.044942497975551 10.769754201553567
V 10.817413191387692 12.99193142284866 10.205767967519128
