15
Energy = -109.0565957 eV
V 6.818865297960194 8.82378656836055 7.411803960185038
V 8.710536417788305 7.921429262103371 6.141402549174515
V 10.603631631580507 7.762543039483077 7.45067097539208
V 10.100351867089131 6.460632006275123 9.277928732718888
V 9.164890966275216 10.928008006385513 9.563581376981535
V 8.198366120337619 7.369379239460769 10.527392959051257
V 11.06494166351072 9.977729344191497 8.279857030351625
V 8.726082117804065 8.725226781878826 8.727475161742635
V 9.248618803586242 10.078749874392924 6.92070880007119
V 6.390016872538078 7.471438434715588 9.175987197956868
V 10.63578894298845 8.632795310668142 10.03772952920092
V 6.848594399802386 9.69130375442909 10.000880547075669
V 7.351499342730893 10.992770845384955 8.173101051149716
V 8.288445345829444 6.522231437912121 7.893224146272237
V 8.740866667880312 9.533472552060749 11.309752440377979
