5
Energy = -24.9471941 eV
V 13.13614158940301 10.43994284205807 12.129955463244919
V 15.259799639169458 9.060013750144616 12.786421745859618
V 7.727586181687143 14.387023023169878 9.715524933393409
V 9.4777716887302 12.856641780929854 10.726827029413053
V 11.817289509827619 11.36817996048923 11.733506107469411
