5
Energy = -29.99523448 eV
V 8.908249209772448 8.669077624012333 10.951733321457407
V 8.342009382701788 9.53758144104169 7.344448964872924
V 8.75169349489298 7.623646188510487 8.74716901704591
V 8.78695851567638 7.257955321516191 6.993888028938905
V 8.310071850144151 10.008359546094644 9.054672331471181
