5
Energy = -30.82151769 eV
V 11.246206513984143 8.802587443690944 10.046537285817031
V 8.588213284295826 10.886110460387135 8.669690153988105
V 10.195454076297214 11.096957403265383 9.656698488903663
V 10.29647751219125 9.330440962104365 11.495683451244924
V 8.868175586293681 9.08512538902086 9.518890114716916
