5
Energy = -30.00433483 eV
V 7.893811583014396 10.892054105574385 9.552887623954172
V 9.608148638537065 10.405316933789603 9.364390255870445
V 9.754288817919186 7.960691056909313 9.410972828083356
V 11.751795196086157 9.27194347765021 9.171031684409632
V 8.086577773914238 8.542836011561203 9.578012120479908
