5
Energy = -30.61597398 eV
V 8.69170828267721 9.127054418960926 8.781251909608754
V 9.371985774895517 10.988816109230786 10.096609170154736
V 10.776989931521587 11.7440443546686 11.314219741140203
V 11.477476439013042 10.156169788849642 10.986829512003291
V 10.240990681545775 8.770969009721892 9.511043054039467
