5
Energy = -31.10253152 eV
V 8.613729518725982 9.980257656362259 7.997134679542746
V 8.413291415565466 8.871382161199588 9.537800908730201
V 8.367309284346243 6.626822941563874 8.628270154002683
V 6.727800167572054 8.40827236372048 7.966650936510574
V 9.217748105082903 7.773532638860911 7.4516571138642576
