5
Energy = -31.19573904 eV
V 9.370008741021893 10.850644963026678 11.138773481220007
V 11.323483871111979 10.484613340353128 9.594082810923126
V 10.702599490169515 9.630033572803828 11.712789453922577
V 9.286624987973147 10.732795544488292 8.734906463591123
V 9.736843216638011 8.923601125266215 9.450131031177705
