5
Energy = -30.47068828 eV
V 5.651716161137172 6.956082785285009 5.988487888874576
V 7.769701786162284 6.537117051539132 5.8261056591203815
V 7.824944631520118 8.275551118925957 7.109087909210716
V 7.351066909443132 5.600623197457749 7.729184878729403
V 6.118704552454273 7.346759887509489 8.063267704782263
