55
Energy = -426.85279456 eV
V 12.301026930609925 12.94383545221758 12.938723867322347
V 10.981840971843663 13.937561271112953 10.936114124773773
V 9.242642449216298 10.781681451114531 14.726714773801953
V 9.18998776803471 8.80414158211632 14.017726519039547
V 11.590696527099217 9.690123745096995 15.076076486406501
V 8.601577198356187 14.545521376321418 11.137667226050254
V 13.720863674399062 13.582138594328987 14.928138501507009
V 12.006116276587663 15.790182564652557 12.191065269699111
V 13.196331636797591 8.624131461079216 13.312951113821804
V 16.357012342131856 10.302590696206323 11.847426054147657
V 9.055617530052654 12.00405058316958 10.455712990288518
V 10.296688271673613 14.63596303553693 13.497442307896714
V 7.337827373593966 9.766851703247015 9.664537228735547
V 12.156734514806756 14.739042162206566 14.836231948346981
V 10.963846331912304 10.320634633958532 12.605905657199889
V 10.421837081306121 11.168614295951638 7.989142709826558
V 14.795749573609973 9.345017966214797 9.737744457197525
V 13.064680852297625 10.765448135693433 14.514803561829872
V 9.546990138762586 12.455335768718617 12.699036728113985
V 9.681721946011052 16.03896820686715 11.341059953723885
V 15.674482755787567 15.097563630201948 10.549984357930045
V 13.469952141295872 13.62850031490955 11.057679261288172
V 15.414679654179485 14.060776127718075 12.940933728936713
V 14.871327538025634 11.889017241706844 13.223110227897074
V 8.476977762231767 11.609743195828184 8.323338037926618
V 6.988177594099961 12.308241502244295 11.886666801030758
V 8.33683909159224 7.711195008181371 8.42700253396779
V 7.647096917333936 8.194387739024311 10.76482606677611
V 11.545251777900765 7.632259876781547 13.280108369862162
V 10.913507120741187 8.19168202071079 8.264763158454711
V 8.728805411907254 9.206381232174675 7.385969505806903
V 12.677900562920469 6.47407625419624 11.209480731667853
V 15.578772366103358 12.491215200153544 10.684516943742961
V 9.760005139947657 7.873005197437698 11.965994234759043
V 14.61041199772835 14.461973680044446 9.031064068079182
V 12.031554258024217 8.892386248336033 10.87684797042232
V 13.59919654341566 10.731364903761293 11.635534372463365
V 14.71083054178202 8.295928221398471 11.291454601143332
V 11.573787727773288 11.659494196401397 10.518110326922905
V 10.338341218648248 6.99359661324884 9.846068598694409
V 13.657150015095263 16.388559716881932 10.370512393378087
V 12.23803818380304 13.095595875192078 8.569672694558149
V 10.32130580663936 13.663867400957868 8.668519673982358
V 7.728350147406655 14.245377723710456 13.58001374230301
V 12.432717428714973 10.150910885160444 8.825624629769395
V 13.056769073522966 7.144163321716129 9.516023864247979
V 11.021690713678044 12.312314117388485 14.825184145255013
V 14.200551187004073 11.733333386475959 9.264398468956353
V 15.642490263783754 9.46094374803221 13.31647365591165
V 7.140356710989367 11.755517309023329 13.730288046094255
V 9.799586596909407 9.588445840556405 9.991517668012088
V 8.620386782264259 13.4932241219672 15.0429356734281
V 8.35737302299665 10.155743946682994 12.20569926139991
V 12.19950027735053 15.656520834276384 9.456059477327903
V 14.03666622492595 15.421478627333231 12.930021173500519
