55
Energy = -428.34556636 eV
V 7.68428342895024 11.276045086344638 9.96702145496627
V 15.92827937210401 13.300758870677614 11.805229257085763
V 13.290375837572547 9.285773322658711 13.489121755144545
V 9.670113066227316 7.527639432329605 11.153217040017147
V 13.591189918803172 13.348623257585015 13.339348727369584
V 10.990951239699976 9.442492421187724 15.258788833559919
V 12.29618960195175 11.284702278604954 9.209546256220912
V 11.280321058571579 13.582861961122342 15.131065938037414
V 13.276311906299949 9.116535799818838 10.852627541267077
V 9.936030476766632 11.475922892481817 10.920213883973421
V 9.934633969286361 11.499753531937086 8.334995313257808
V 11.00716299766131 9.36661023908868 12.631649845192484
V 7.996977500476257 11.7062731932876 15.10093122580386
V 7.802081936391624 11.634314612178787 12.703864631727585
V 8.741298264587245 9.65162150359348 14.44621438784054
V 12.53626401219474 15.406478186375503 9.12768804768434
V 10.477251869229619 15.391107964256737 8.536760385835988
V 15.806080085750127 13.356911841694437 9.23012664279248
V 10.412453671361583 15.538949596252829 10.895959396879263
V 11.751913423475626 7.294277452794384 11.767604789117478
V 13.651662257402279 13.288394783066964 10.867118553865815
V 11.79697546382263 7.445979150004629 14.364608659367802
V 9.896824722892882 7.424305205168431 13.804016899622424
V 11.279931406228174 13.489445708956376 12.553637923731944
V 14.747223044633701 11.2469565351212 12.603561773712224
V 14.60312232184235 11.234848657966161 10.007986050812768
V 9.128378770534296 13.628517469326633 14.3002090782298
V 12.371720565430381 11.3895703246214 14.252949328945288
V 12.439400844877529 11.247748562708525 11.733599040363583
V 13.243560984666312 9.548476856740871 16.03464168698196
V 9.957451345252188 11.574821146089825 15.955974831729819
V 10.059431545603209 11.505115395499239 13.427826704614313
V 15.939088353615274 13.499156771508366 14.293731564000831
V 14.992715555173888 15.226808961771116 12.500594495119447
V 15.125326043997626 15.034692444383987 9.875535573195673
V 13.743683698649862 13.364365187203877 15.812262027098384
V 12.445327151677274 15.474678003763053 14.095166414735022
V 12.5939137362709 15.533677663046317 11.659999962836837
V 11.329097388007233 13.504283549970788 7.584723988155629
V 10.882724751240858 9.377175306841991 10.099064734557786
V 10.555163630094546 15.679888724851924 13.502178161467834
V 10.9814714019592 9.489545221356629 7.657142455915288
V 8.590441244670263 9.491340347563458 11.902518353480298
V 14.691412420085866 11.471733898104556 15.090293544219298
V 13.044165037240758 9.223305064940487 8.319077786175034
V 13.622049263329522 13.355088724771687 8.279381008573987
V 12.543189903029317 11.19603253002961 16.728127734856812
V 12.573330023316581 11.405778322016262 6.704158158517266
V 11.326993896791468 13.39138711363791 10.070975927411842
V 14.793708863026463 15.231757502062202 14.831639127724497
V 14.384288149814042 11.294100511646585 7.489855010219358
V 9.011910721240309 13.643243949733353 11.788190848333146
V 8.49425548017238 9.683512891200085 9.373278812687271
V 11.669904225190814 7.372390216998886 9.272107668760723
V 9.096282150858569 13.560513853055854 9.278180756206833
