55
Energy = -419.96104208 eV
V 10.710712009519007 9.608432601216327 12.859456488537592
V 14.971516897077954 6.959821154263988 13.640150826165092
V 14.826929499170719 10.285178815311621 11.089776654610363
V 13.296001675637719 19.459791691245133 15.288682469782264
V 13.034232997234104 13.213013016397454 14.68942592116299
V 12.33468549061128 15.097785123118 16.503755898381993
V 15.298652349570446 14.755505666029514 15.557339788529537
V 14.357971563691082 16.30486380328973 17.34322446328233
V 13.526061945976688 8.509690856889652 12.249528811085968
V 10.726689535248259 16.41334384452632 13.884149887400051
V 17.76570130928567 11.418293855431541 13.733555409941284
V 11.985674864345931 15.448472572312445 9.928958990322398
V 13.351960311640191 12.26896023724788 18.457050288422074
V 16.191253466210554 16.417187886643404 13.908132127699524
V 9.207101464163017 12.319043381041663 13.568992726208867
V 13.336445684132617 15.958995842697473 14.516351752924104
V 14.506664663676531 14.507040892119981 10.560413087616986
V 11.350749782918067 12.25981486506964 12.612116363743038
V 17.379394557230718 14.020845004195506 13.974279188347392
V 15.507422357249492 10.439959851339282 13.115295691265649
V 14.658547595317852 9.06431879844334 14.932217245117204
V 11.576023318859951 16.85205580807917 11.163053081439003
V 18.270489830713792 13.537544801135486 12.33391371567605
V 13.68072648828933 11.17431966593189 16.09672455966984
V 9.093000901898582 16.901680948002145 11.637055411665333
V 12.593352782476012 17.87718237344275 15.906161814404767
V 12.492386001077326 9.382540883060482 16.128654309912303
V 13.04611484520519 10.585971443596055 13.73939669566685
V 14.45411055441667 13.413419287699451 17.157384532632708
V 12.551896828603294 7.94549455676113 13.895852228247117
V 12.434272402934427 14.665053207935491 18.318590187511603
V 15.179842159073402 17.3704811610212 16.028756205099665
V 14.41257951125918 12.997177742364451 9.480563363873713
V 16.553264933040772 15.580134083369416 11.968092235276018
V 16.101749454342514 8.018587529236543 12.783522724347627
V 17.690283555231893 10.698121417863076 11.958534225986403
V 10.184343229539202 14.565842178996036 12.11962593789269
V 13.83192091609589 12.31768694813278 12.025082617174755
V 13.740106690502458 17.51187934924419 9.827335340791326
V 9.364616833049855 16.012859938222828 10.142202007605045
V 11.776192930619752 12.560268228712301 17.06352672625825
V 12.071494227143981 10.548413571210132 11.000765750352974
V 13.143904630601071 11.002513090750506 9.488210243212967
V 12.40724369059425 14.653356326903026 12.427920002829811
V 14.261045163066884 18.219284450540407 13.721762665546644
V 15.376247418993005 12.319843649870359 14.558101992488412
V 14.794004792660479 14.324478870171324 13.192349602126537
V 11.85687539665964 17.883320139945322 13.272715848398782
V 11.957081715584394 13.090889454904511 10.379774739252376
V 13.496622833518412 18.75431960239737 11.069946919614878
V 14.194035129453901 16.572489439111365 12.101108514655245
V 16.190696634992662 12.745518775494373 11.861919741401046
V 11.074111885784182 11.484149511128921 14.936513542969031
V 10.741537347771528 14.012190853251347 14.549461297605768
V 10.589191862416103 9.196307869062013 14.758304054246219
