6
Energy = -38.55324762 eV
V 6.428440891312038 7.871165743786375 8.562119954881663
V 8.480356064349964 7.337256378494096 9.117213371266674
V 8.01046412407637 6.572482641267319 6.96527498208057
V 7.725885734652688 8.87911896439643 7.09880756317009
V 8.20392699429721 9.64330945027971 9.244363765300552
V 9.779367807771331 8.325108438235674 7.640661979759932
