6
Energy = -38.26453842 eV
V 11.260929415943263 9.697851706010828 12.091492459864462
V 12.064003390514674 13.023108617361244 10.392344031825697
V 12.056571943787668 11.672956628103753 12.417214107118202
V 9.917275733184711 9.494998942367232 10.764347333043112
V 11.686045922876337 11.106262401047518 9.901721673170574
V 10.157575045956316 11.866387515548409 11.49345593663055
