6
Energy = -37.36247998 eV
V 6.110940133951283 9.246927713050171 8.247880660671344
V 10.057189451760777 7.613180028983346 6.898476004316337
V 7.637759965499629 7.439889018372183 7.4752569937906905
V 8.590086315174112 9.32398541279463 7.953659607428556
V 9.518420251734131 7.353971772159855 8.960810285586009
V 7.339127058428791 8.275569231188793 9.717439624756182
