6
Energy = -39.02970774 eV
V 9.251768700142234 7.962648079609363 6.631106903402844
V 9.27536070223947 9.082309540081338 8.680357460728494
V 8.440294042809278 6.506276398174706 8.334825932818344
V 7.55954890292192 9.792356699318708 9.153350087137088
V 7.523575337229038 8.65691741559147 7.112991623706541
V 7.377200737671184 7.42745483427451 9.515315419126157
