6
Energy = -39.03169639 eV
V 10.378103281627507 8.972350816535807 10.906233745292855
V 10.900767363906565 10.094395910932931 8.86988299139316
V 10.867945396554235 12.356238216992445 11.580988747371253
V 10.15395234279487 10.178332207140134 12.27263043105116
V 9.760042719009991 11.317598470386363 9.83819214559268
V 12.001989529009938 11.122244514018721 10.62431586735549
