6
Energy = -37.75596698 eV
V 10.074877441368638 10.224451076594852 8.9732780606472
V 7.876193521814674 7.724986308220664 9.014344451117681
V 10.1717597090755 7.790840886346248 9.069961136142654
V 9.006764605412078 9.04777644482995 7.314487811714682
V 7.784354404434107 10.138778388638425 8.911657290688208
V 8.947350529819953 8.90805134945604 10.660393515588048
