6
Energy = -35.35408127 eV
V 9.321132251690392 10.469802828576677 10.937349021183405
V 10.520026156511088 8.749657905563755 10.082268739272656
V 12.299276773614112 9.579841229181499 8.796229256081048
V 9.590304589128204 12.981965235617057 10.64492096153002
V 8.418095064302953 8.442716534116169 11.220183869814344
V 10.99326257076133 11.031298095690987 9.877358796771434
