7
Energy = -46.95658088 eV
V 8.463878684952814 8.620859498307384 9.755437707004859
V 8.4836722480653 8.675581028083153 7.007294751846119
V 8.969172687905482 10.219721959394558 8.14895127998169
V 6.611149579071271 9.22813081431793 8.636268876136986
V 6.841117227111941 7.3226648521049675 8.282455251955692
V 9.051781200450257 6.627595498024178 8.279758193883128
V 10.331292372442952 8.057510349767599 8.641897939191646
