7
Energy = -44.32785578 eV
V 10.58534655079791 8.984182235066323 7.902693430100091
V 9.074477917726263 10.814556167818138 8.495121222120119
V 11.40545112162529 8.16780476312433 9.250785808735255
V 10.032845754481713 10.023965140448528 10.007010242071734
V 10.888952065360742 9.052076912008737 11.595481714122228
V 8.395316598299361 11.650597573788463 10.677821230592436
V 9.1704842720336 10.885607273146862 12.093248407554867
