7
Energy = -46.17644726 eV
V 9.766678558659676 8.593956294374374 9.979625813801055
V 7.908073979428614 9.04579112363164 10.618708959849014
V 9.444250486631017 7.2079635885036675 7.8587752877297685
V 10.332270763551367 8.907415629854004 7.757618682900615
V 7.360399312312991 7.942991535091049 9.116856996216965
V 8.138758549751069 10.166734643100172 8.409447010900154
V 7.823234555205421 8.913639366627136 7.011087955170745
