7
Energy = -46.11384113 eV
V 8.10325626701358 7.495955318733582 6.391181218742912
V 6.49518846576493 5.749881310822164 6.562697235871718
V 6.90135513977828 9.36541154888677 7.6401926149337935
V 5.931175233012832 7.794916678531105 7.665250623126061
V 9.123614068722878 9.016970168229555 7.609593534196057
V 7.6431323469025685 5.722295837720971 8.046828887946617
V 8.515086527854205 7.5673771861251105 8.797063934232238
