7
Energy = -46.95180294 eV
V 8.562438864027245 9.716936079052127 9.271125884689178
V 9.22970832344694 7.538382473942089 9.944126793080184
V 6.933679689685375 9.54072349504698 8.122118879095947
V 8.012598444955717 7.586766115854481 7.651050210906425
V 9.273133503799418 9.393500496954706 6.890925418608341
V 7.265962407148014 7.577236131568705 9.732979944222551
V 10.360732078900288 8.317037313056234 8.088698371185583
