7
Energy = -45.92096966 eV
V 9.821903527191681 9.010954754542981 9.625364898161822
V 8.757404239763893 7.171901613677096 9.720300279247606
V 7.746958762491172 9.434639562094604 9.162261475404593
V 9.38595726161727 8.351419678358825 7.576692040306466
V 7.390770173855344 6.965805319041828 8.383818531959298
V 7.041372559370626 9.18977839353175 7.178673186975053
V 7.656873793106394 7.676740996149297 6.154129905341538
