7
Energy = -42.20057709 eV
V 6.539362805737943 9.880041684369242 10.321825075329265
V 8.803552067778698 9.201872918283486 9.693099603467429
V 11.006221774632085 9.099775203315925 8.560279965704469
V 10.632179621766262 7.55593741195441 9.587374977096582
V 7.1124586915349015 8.82450765670099 8.293951342912667
V 9.047278945502306 7.887455300157561 7.707376034828102
V 7.169087994317627 7.857796214009017 6.141112182556088
