7
Energy = -46.1507509 eV
V 11.082858941257697 11.332466463178225 9.14966113482623
V 12.349507665013393 10.667215400667324 11.393806274628206
V 11.423086703297157 9.250500021033023 10.1736605128713
V 10.244234025288291 11.56049530322277 11.111291385225956
V 10.40040364919673 9.486676276343017 12.123561333111601
V 9.026732103154673 9.639268812562115 9.881878540836016
V 8.628141858652539 11.248236633326684 9.179604813711835
