8
Energy = -51.90072162 eV
V 10.737236756808976 9.323323131450612 10.37370726292335
V 11.512266581857686 11.154834308553397 8.752686532174298
V 12.433207952986189 11.133758777749668 10.948108288129424
V 8.867986148042265 7.639611654467674 10.462548592164888
V 9.07094502087326 9.819782314914164 11.400978620000409
V 10.916809396705359 11.067303627863156 12.291012559372609
V 11.448772441409778 13.05932364616041 10.673977552834678
V 9.87026051672716 11.60436339820332 9.863519096958354
