8
Energy = -50.01916932 eV
V 8.30569000346376 10.552898335733637 13.286292173921476
V 13.312439903076914 11.279825179970207 10.405248709333721
V 14.927936628443875 12.852098972262421 9.518216189375678
V 10.140320047164098 11.184121839974374 13.35286426337395
V 12.832125725513242 13.00702765200523 9.805016093866064
V 10.913274538558744 11.703755352479817 10.995072468517352
V 11.416542449899303 9.972256866557741 11.620618078877461
V 8.89575449057816 10.169629682975804 11.545091058280892
