8
Energy = -53.19796265 eV
V 10.163654693187658 12.280976153233523 9.147254750229886
V 9.610418320167808 11.127178736332743 11.494674026757057
V 11.467161714777085 12.274239390141286 11.1922802314954
V 12.115667217503859 10.136223034930401 11.545732208120638
V 12.34597922718881 11.668404934593434 9.299518159627478
V 10.674718226027435 10.064744580601158 9.79861977836301
V 8.776829288699286 8.878746908906196 11.112062959654494
V 10.367918958065879 8.717301693463519 12.03116921980126
