8
Energy = -48.59814439 eV
V 12.361753437803284 9.293401447732807 11.034781147663065
V 9.998313544163421 8.362665664900213 10.876080595492462
V 10.212549464978434 9.872188284256827 9.85536083498989
V 9.979535093619154 11.603856768913365 8.219398972781415
V 8.281878827757332 6.903729980855114 9.951193218337819
V 8.368492328577847 8.45526594926649 9.084691177198954
V 8.616720996010377 10.69104456611852 7.8485819647617925
V 6.521028739644131 9.161690423542234 7.46774476722073
