8
Energy = -53.97479985 eV
V 8.616229292409857 10.121855938786934 10.650847296476247
V 10.712709932562136 8.67303724142697 10.00637072836545
V 9.448800802886764 10.730927700442944 9.061463278362302
V 10.116301636169656 12.049774257631896 11.076155323038819
V 12.058130283279203 10.752204724323995 9.846373809723076
V 9.49052436491613 11.205045515980744 12.566271191371504
V 10.918781965708067 9.518301500356843 11.691120600796175
V 11.556141210769042 10.021170292874372 8.246609567727429
