8
Energy = -54.23143214 eV
V 6.655156170829828 8.328138955483263 5.602019148196851
V 8.41803777049888 8.659638196560325 5.983517729987006
V 7.749987712739676 6.407014998605667 6.937252090037215
V 5.826923846409091 6.692327087574411 7.417316110694987
V 6.892921522295118 8.914546957978004 7.960174616139341
V 8.729352653803348 8.619648157248665 8.44513655609231
V 7.2883603131575905 6.722769407781832 9.346371774467338
V 9.114413781058595 6.331070009559684 8.983365745177073
