8
Energy = -53.07360791 eV
V 9.388212118021306 10.453053881322036 9.527383261519056
V 11.165428532619384 11.797069996791093 9.240680636482223
V 12.92516302208959 11.03276579512044 9.471604731093613
V 11.187474257824473 9.27287164559759 9.278824908774236
V 11.487926101397873 10.11262258832881 11.297703957361184
V 9.40429873678329 9.289859786779521 11.401482512077413
V 9.65903508620735 11.897836617338317 11.56983533126097
V 9.82998060504343 11.015555827594165 13.111805496615089
