8
Energy = -53.97530274 eV
V 7.525755100121674 9.338890250052891 8.88224767723624
V 9.651671759939319 10.816240084218867 8.787326856432037
V 8.605491275258178 9.945777765472666 6.848205297768948
V 8.24133637332003 9.57363968531811 10.623257304790924
V 10.6525618577446 9.475927679256753 9.681448142310034
V 8.873135173041497 7.397943883423957 9.626641465907163
V 9.79221869312219 8.714787676112822 7.487967905254497
V 9.7580197195552 7.836982928246907 11.163095302402844
