9
Energy = -60.77903375 eV
V 7.818478728960944 8.236632280321423 6.303407923818351
V 7.344396224111883 6.016359309117066 6.86804950981956
V 5.563924778665123 7.804062769652342 7.525496300035444
V 10.117560746172522 8.575231589130505 6.928207220873368
V 9.60124338306426 7.017248813979773 7.696680488491231
V 6.143822360933605 5.514673802540178 8.18686567259139
V 8.585721512815045 9.137034894559445 8.672483625221707
V 6.442238452801284 9.416922891941317 7.920560286639131
V 7.5402110839151515 7.4394309201974815 9.05584624394922
