9
Energy = -60.87487944 eV
V 11.999059949095527 9.970297203569878 11.067068065956612
V 11.360177053419726 8.51571852352372 12.005953304639105
V 11.054881050180164 9.820964721024062 8.764532225991937
V 10.563102557374334 7.944473592986442 10.27663082016586
V 10.765070021428922 11.702434183015356 9.684463982665283
V 8.62587668952098 8.868465040844427 9.39008317401028
V 9.402616889928293 10.1450758220393 10.937113619604355
V 8.97489613639308 10.767890555660669 8.296520021816582
V 8.172896211064897 11.81305955346064 9.876924408009257
