9
Energy = -60.5160104 eV
V 14.453685340254953 12.983469608897085 12.123871194780502
V 13.190559908154574 11.161767323646329 13.263904938935163
V 13.166209771986688 11.278891045339401 10.657395822449152
V 12.030218941277704 12.794929633073354 11.555114508982838
V 10.837621105319077 11.39532863927461 9.850920004563996
V 11.38320534493352 10.115057504130933 12.092338418807493
V 11.520864706517274 11.923549085879461 13.782636323539526
V 9.814093354089112 11.200014914473103 12.172664850811124
V 9.730334781460998 12.80821611553422 10.350677340678326
