9
Energy = -61.98818283 eV
V 7.780494221121057 7.51402691502358 6.450788784787232
V 9.830243408336809 7.540237327135296 7.95386601531521
V 9.577635545574728 9.989223681604667 8.367593734475218
V 7.084232779720361 7.79732598538036 10.061441455513828
V 8.74856964951672 9.173761683469731 6.330952414671146
V 7.181677404035753 9.102878961092589 8.139779255589449
V 8.389349193467005 10.02411460270933 9.901582729665542
V 9.457587943566176 7.897164602675185 9.835077569169599
V 7.606864854661393 6.617921240908902 8.615573040812551
