9
Energy = -61.79714376 eV
V 10.138176476186377 10.293200479377461 7.5123021700895185
V 8.668759787758853 8.635952852718669 8.022608730788985
V 11.079445664998351 8.370057556204694 8.780688530810298
V 8.790208093515076 7.849400386337509 9.92657722232909
V 9.997247426642074 10.44213148059033 9.824457647616047
V 11.122817889201535 8.436636685643936 10.628588107945962
V 8.04274109418773 10.99765984662465 8.362538284873457
V 7.485616030123814 10.010953558451165 9.851613117690011
V 9.119846956256195 9.435266855074113 11.537213070975444
