9
Energy = -61.74671344 eV
V 7.777514099497847 8.933232470807033 8.681787804847668
V 9.35637534412612 9.859203908564437 10.456560691888223
V 8.231692454844492 7.391851787315638 10.71894532443026
V 8.589038169793728 10.434154200303192 6.999630210149118
V 9.191394964284877 7.844916143340092 7.36067520325823
V 10.20025282591132 10.130141807585956 8.01563627363478
V 10.229281205380262 8.036525917371092 9.184352439509377
V 8.337086193323643 11.100723326091746 9.450389462358446
V 8.210166229000654 6.392051883273092 9.254824103761093
