9
Energy = -61.83204681 eV
V 9.823345188896983 9.978355776638644 8.674330276002799
V 10.324531711536471 7.944792150742192 8.90045916648084
V 6.6983356044941145 8.129729975284004 8.681219763227285
V 7.719887415014047 9.5429702355044 7.217241394059619
V 8.341082914252038 7.063137190934952 7.483101244452503
V 8.453179454110048 6.745927844726674 9.672209903575515
V 7.5911307705432725 10.317105708482316 9.298516252516764
V 8.499386749354775 8.746690396959021 10.426008519823625
V 9.65709777676559 8.639267623233463 6.754890479860924
