9
Energy = -61.86013729 eV
V 8.668146964482041 12.082860912636704 9.916231746003094
V 11.047489646629002 11.356908629609206 9.569307278662636
V 8.936205960400196 10.145725385314261 8.526652824003705
V 9.591147223484649 11.977377102992621 11.529744566286944
V 9.242284989648255 9.692726352587979 10.720295120919388
V 10.915634647707389 9.358071256826058 8.603641220072998
V 11.4225818883484 9.946399419916501 11.139639132343646
V 10.866855182992854 7.698139059171863 10.494198511688888
V 9.325752195298012 7.5931540156475625 9.477670025427232
