33
Energy = -68.09064506 eV
Ag 8.570105078185613 12.935200439857347 15.05817113152315
Ag 9.11610138229504 11.315760563528315 9.611634583929884
Ag 11.477985337080622 15.349321246028607 10.539553846688479
Ag 12.299490144527358 11.595307752951102 13.905117437287545
Ag 13.24304521881013 13.683588727582217 12.252911505593621
Ag 16.260091452774297 10.584597551811395 12.033116777602372
Ag 15.254021478103981 12.436515045064791 13.874950477758603
Ag 12.057314845853409 9.861463688026218 16.266129343432983
Ag 13.981884646026742 11.910029732630418 16.363741946578006
Ag 10.691188418570917 14.003460431947584 13.63935736860234
Ag 15.617461135325831 14.29940727607814 8.469540445171083
Ag 13.105428544177535 14.268792881522428 15.053016015503891
Ag 15.700002341542898 14.121926372847012 16.057433709687405
Ag 8.728743252477285 12.124022271757148 12.38013095956829
Ag 12.804133012322794 17.75010072004419 10.777121389593987
Ag 10.976428535764144 13.125971872842769 8.14930906651335
Ag 10.662127305008934 10.029983049045738 11.768551987578174
Ag 13.466595697101397 12.974111494039319 9.458768185797178
Ag 11.997080945216307 8.702698338185783 13.742694303942493
Ag 14.51120502455111 15.617804084362444 10.655083687463854
Ag 14.510334934700701 9.800304885169883 14.159530604726214
Ag 11.862396220657585 10.611223300027303 9.231890094652421
Ag 15.802105714753894 13.145993405535375 11.088582158322785
Ag 15.269308460022085 15.250609462507084 13.43230120503894
Ag 13.35752705869104 13.728582698813671 6.839348335082682
Ag 9.815044647118206 10.496949364359123 14.459814536814848
Ag 13.53091574322879 10.822940430702467 11.534951713260417
Ag 13.704089889580459 7.736190495540146 15.763883741459448
Ag 9.021901739218496 14.154113448114977 9.876453348974133
Ag 11.071414281158162 12.57035401764968 16.259026808825215
Ag 12.542367631318475 16.2187810067247 13.066258761190564
Ag 12.30743654988481 11.36789756325767 18.515955749268116
Ag 11.074431775244845 12.656969907356052 10.99574312881545
