30
Energy = -268.79590271 Dir = /p/work1/plile1/GA_structures/Os/30/all_candidates/1003/
Os 10.37634077460801 8.948967756785063 4.934212969641578
Os 8.685331257837575 12.327808599961545 5.49713160189456
Os 6.701852842598392 10.914470808769586 5.352953765809275
Os 10.766923929752569 11.268718676450398 5.244361738457988
Os 8.052896621808893 8.965414669154244 5.46758813426789
Os 6.972223821163908 6.9070431580115415 6.031792646243013
Os 10.812478257494085 8.533813162369885 7.254770032933668
Os 8.77118302279953 12.058147421283167 7.7745552117352705
Os 6.46523438794692 10.910038862361242 7.753090296831589
Os 11.001311144959809 10.9023117396666 7.594419412436156
Os 8.87346812252797 6.836288841372867 7.487731214207783
Os 8.403876140343536 9.370724293462251 7.812502713241306
Os 6.487374231882854 7.725335467671912 8.258311186003416
Os 11.805494587751891 6.8659504464150825 8.764567212172112
Os 5.0700340216669115 9.430201787020176 9.125275800440551
Os 7.396814328578369 12.088366123867571 9.839619519735576
Os 7.855107571564876 6.17229229853659 9.667487228703354
Os 9.58009909113235 8.173641990116312 9.812965410177274
Os 10.24332657255776 5.599665370605667 10.105266997597772
Os 11.992523578433401 8.610381119652681 10.406982494468162
Os 12.088159315201187 10.914254261770278 9.829273304916912
Os 6.330514272701638 7.355561400870856 11.114938224794836
Os 7.244661003550243 9.581153593784935 10.245097427423866
Os 9.679680719027262 10.85335597256979 10.01652360264238
Os 10.608202022869506 7.1480873437187755 12.056984543908657
Os 8.288489451825638 5.881411162535283 12.088803300412279
Os 8.410320895736502 8.38712680259103 12.158081850782976
Os 10.556493358403316 9.786391849085236 12.182520774796998
Os 10.429407878977997 4.69307964085574 12.316622263956003
Os 8.241562513697065 10.981381118083679 11.996954858766108
