30
Energy = -270.17672937 Dir = /p/work1/plile1/GA_structures/Os/30/all_candidates/1015/
Os 9.870162413992078 9.081512985941599 5.133352804687259
Os 8.074324718771054 7.660905231107721 6.087884512802557
Os 12.132130206960495 9.17606865977352 6.172181376022989
Os 9.225309842290105 11.156009266157307 6.013670199729643
Os 10.269384838418176 7.9200948374696996 7.370049960574598
Os 7.2184232316686465 9.800064060639112 6.9376907142240185
Os 10.016723089208176 13.189528586307162 7.934676431165943
Os 11.461293799041119 11.17430762190523 7.280245184912374
Os 8.133382875904884 6.749290017074645 8.439000101311787
Os 5.993161918753152 7.678827403178172 7.626910049389937
Os 9.469596485911145 10.086397755978247 8.255057733118887
Os 11.90163249222696 12.464765248176846 9.462376461201641
Os 5.6124913143102475 10.538059752028598 8.609278731166436
Os 7.832572987673138 12.009539352496947 8.121586392159978
Os 12.65583976390889 8.225280875426265 8.396705156165265
Os 11.653777374218356 9.997396648370009 9.583541061856922
Os 7.01191933902234 8.747034417123931 9.631124907090198
Os 11.365123043616558 6.67318511041231 9.736849223470497
Os 9.596523891595067 11.778673701201571 10.136815918645832
Os 9.536028600938398 8.288287576631008 10.100810861633141
Os 6.567372688183484 6.510012678330047 10.554157648133602
Os 8.943510644027302 5.866466941022051 10.678931541964607
Os 7.082733554559835 11.127000829715906 10.455232585250785
Os 11.405653291256142 11.011302616573282 11.831021354031147
Os 11.39623461162752 8.418655445297247 11.744763403395405
Os 9.084371905734509 10.07897373467677 11.996197002690485
Os 11.12658004681134 5.862494968813522 11.998751718741813
Os 6.992674221468393 8.343088411735147 12.139356927685961
Os 9.228311281335424 7.465046943249675 12.515708970750655
Os 6.888668586584855 10.667641383204472 12.801984126043155
