30
Energy = -269.65048005 Dir = /p/work1/plile1/GA_structures/Os/30/all_candidates/947/
Os 11.041060503432883 10.228901260033997 7.0411099783315
Os 6.602057856302933 10.632156332411471 7.112911464772331
Os 7.842237827165102 12.644581442380865 7.234934027291025
Os 10.99129257750482 5.480261398785028 7.116442955451715
Os 13.50122266483112 9.502279452150265 7.360409950498587
Os 11.903005227382332 7.707522150612684 7.354003459410458
Os 8.67585939681392 9.525876696824692 7.492385735434651
Os 9.328400646209863 7.112462790601418 7.74049852018497
Os 9.805963466484398 12.003435805299706 8.340390095536556
Os 7.1369461650379975 14.036712953656457 8.972750629997906
Os 12.267366157171777 10.612803004876112 9.234527354725692
Os 10.577734100576755 8.76372687610237 9.254168471754552
Os 6.337209085310558 10.508040741738002 9.473770580736131
Os 11.49607515886265 4.96498973429651 9.364482305845304
Os 7.916506453457194 8.054679061590862 9.612561220905683
Os 12.502193282322065 7.164806283507679 9.706990455088846
Os 14.018568440439074 8.957545895997198 9.793630536844562
Os 8.77951874190817 10.43964986662454 10.072969014477463
Os 9.23709683077473 13.874827778781118 9.988176464183997
Os 9.893811205378881 6.510956050459714 10.329016257575127
Os 6.159091894519696 12.56678447644137 10.6027285062039
Os 5.907379607305089 8.586906720908548 10.797233606484056
Os 10.86641922870595 12.059721133157044 10.732823637409695
Os 12.67422385470475 10.321545697329157 11.604484450552178
Os 11.245287954502427 8.27384531143617 11.707289719234437
Os 8.239895249847935 12.310277066229297 11.6143461641857
Os 7.810219048593738 9.083006516225316 12.175872494736277
Os 10.201358435702314 10.384826852134454 12.41173378760023
Os 9.239264817687445 7.229099257514169 12.551179989975635
Os 8.274093211860489 10.929130482690542 13.677537255367893
