11
Energy = -795.0
Os 1.974419 1.160377 0.704983
Os -0.905351 -0.257862 1.69992
Os 0.15302 1.8267 2.210924
Os -0.611607 -2.707895 1.041188
Os 1.873044 1.887897 -1.61871
Os 0.926075 -0.87263 0.190406
Os -1.042187 0.339027 -0.674272
Os -0.677941 -2.069246 -1.355736
Os 0.869571 -0.173093 -2.221755
Os -2.536097 -1.523314 0.195526
Os -0.022945 2.390038 -0.172476
