15
Energy = -791.0
Os 2.38783 -1.881459 -0.235774
Os -0.840087 2.315966 -1.149379
Os 1.287076 -0.620371 -2.132605
Os -1.681712 -1.436303 1.528163
Os -1.215826 -0.03851 -1.971793
Os 1.630956 1.47278 -0.880502
Os -0.051466 -1.841461 -0.483621
Os 2.918399 0.216404 0.685429
Os -1.268477 0.559397 2.682323
Os -2.886536 -0.320887 -0.223069
Os 0.782904 -2.233057 1.793455
Os -0.293491 0.516424 0.41202
Os 0.430414 1.509423 -3.131054
Os -2.388549 1.795819 0.752624
Os 1.188564 -0.014166 2.353785
