20
Energy = -176.76687617 Dir = /p/work1/plile1/GA_structures/Os/20/all_candidates/6060/
Os 9.47841488595916 11.088095327930887 7.121020126080345
Os 8.823229564434529 8.904766086923175 6.815432474373554
Os 11.18679326455361 8.202579112913497 6.9006578009889425
Os 11.840148480412871 10.32414352442107 7.212761534163924
Os 7.921028810581739 11.247341392837784 9.103071442512778
Os 7.278410342372671 9.054591577641208 8.800734038816149
Os 13.2776138055647 7.368961923935226 7.79966965052926
Os 13.971392445140932 9.547262386798877 8.087628008867672
Os 9.850554593917995 8.26306105584341 9.1085159520823
Os 10.50790507800761 10.459916151881476 9.409565566902902
Os 5.7397553982242675 11.772778893108976 9.98320056747803
Os 12.163493201395706 7.48901409998054 9.946742395930615
Os 5.09359008785755 9.565820789753309 9.689057266788787
Os 12.80490625849705 9.619513260955433 10.217550299083745
Os 11.01733427950379 9.97830851066124 11.899085648399522
Os 10.36292845902878 7.791094775774584 11.607649061227654
Os 8.661219516179449 10.718688742738621 11.38765722572073
Os 8.017262543880575 8.526136403281507 11.09111961776046
Os 6.454445136995999 11.269245024082812 12.184521199580233
Os 5.802702348026884 9.061809459071581 11.887488623247455
