25
Energy = -225.32410581 Dir = /p/work1/plile1/GA_structures/Os/25/all_candidates/2580/
Os 11.80636763423664 7.5525241620871055 6.659917006039381
Os 9.263411940846815 7.643095119950383 6.84367743151186
Os 6.724763891464098 7.673712370308037 6.967197342859965
Os 13.220368920267571 9.325660342740186 7.751127049411977
Os 10.721216590603516 9.450040856222317 7.9697854698486035
Os 8.076279676236965 9.511874619028278 8.058515334963783
Os 5.562291539531417 9.617108843025626 8.187047234199577
Os 11.877164118505215 6.274292005226633 8.546488639102417
Os 9.310118519097273 6.39453622278359 8.751785731309427
Os 6.770618770616424 6.4698557500574925 8.894077304010139
Os 12.138320559916547 11.248024845792147 9.17372432801461
Os 9.577685411253611 11.363090890928753 9.309389451278589
Os 6.9634109715776304 11.42991193335859 9.292859251018896
Os 13.335411319049342 8.03618137913886 9.633319974542848
Os 10.873761906972513 13.19209770554329 10.420605134505731
Os 8.317634021510017 13.30037032180278 10.302056807592656
Os 8.131869981006862 8.287525954324027 10.040216113817083
Os 10.804454112248422 8.154549687677907 9.898722159645997
Os 12.376794806037589 9.825787411062429 10.965119610965688
Os 5.6181188416086405 8.395600975558217 10.114717403169777
Os 9.520040172892331 10.091057209032291 11.30569795729698
Os 7.001462016820808 10.244100323211216 11.224236277483659
Os 10.554868343837065 12.25915136744056 12.475620911874127
Os 8.183219111099602 12.265605324413404 12.339006886732843
Os 11.478343491149516 10.20224104767231 13.083085857190074
