20
Energy = -177.0255792 Dir = /p/work1/plile1/GA_structures/Os/20/all_candidates/5909/
Os 7.599683867343414 8.873773877636557 6.009419214155817
Os 10.18611824036993 8.683212649865796 6.351826952501308
Os 7.700806561999283 11.023468787990883 6.858442938759208
Os 6.041745891272546 8.242536283371454 7.962573322160171
Os 12.615476563776554 8.451290251868842 6.696930051737412
Os 10.261466686777576 10.773230803539226 7.216536935077135
Os 8.52255620253137 7.941691760500588 8.127038072916623
Os 6.133248753475942 10.385853360289307 8.715806812867786
Os 12.656396509236018 10.598342728208555 7.630534265789177
Os 11.323720731621126 7.691386005576179 8.544664833606763
Os 8.645371600965053 10.120586574053846 9.01686345562257
Os 11.293506562102065 9.801293236177676 9.460977292979228
Os 4.590656005109681 7.523065344638566 9.912776206723366
Os 6.933452592192385 7.473541323681806 10.194202835030461
Os 9.428751744419074 6.788805534078485 10.23115753578756
Os 4.585041806551227 9.699456178994213 10.704477446260155
Os 6.9233190382449745 9.689133061177747 10.973395193683114
Os 11.788354714252193 6.733526571384031 10.730581278924882
Os 9.34069940976321 8.867149072422388 11.226117321530817
Os 11.674629881819175 8.883659958366227 11.68068139770931
