20
Energy = -178.57529282 Dir = /p/work1/plile1/GA_structures/Os/20/all_candidates/4090/
Os 10.084148807537268 9.291069915909292 5.400648236057115
Os 9.167547607633491 7.171540507877133 5.259722518254476
Os 7.085500128575428 8.015547007747625 6.510456361412492
Os 7.983884182602021 10.0898985510351 6.648620202551451
Os 12.030291259763432 8.339269921191443 6.674493434562459
Os 11.13601658949013 6.263806130397205 6.532820016802268
Os 10.019104576373827 9.154076914370872 7.923706169954755
Os 9.099613823465912 7.024149575039083 7.779704126040383
Os 5.9337859150547105 10.914522806215771 7.964026509771434
Os 5.016729454057572 8.796092092106958 7.822007109812293
Os 6.983337631272999 7.852390105195557 9.08796866278349
Os 7.907701047874993 9.980970289865278 9.229594184243368
Os 9.020804318992218 6.913057136370722 10.356216176049173
Os 11.076631404026793 6.092517185103842 9.04268767696313
Os 4.974569309311208 8.673654239888611 10.336269444219685
Os 9.922811062561193 8.986320902842683 10.497139130972455
Os 5.875424992192244 10.746931285036055 10.4730950246831
Os 11.991320785816173 8.212716208811674 9.187361706684404
Os 6.924362924893854 7.720027691424771 11.60590489175262
Os 7.843638674742535 9.838666029808675 11.744782912667196
