20
Energy = -177.24532544 Dir = /p/work1/plile1/GA_structures/Os/20/all_candidates/5996/
Os 9.943554254503287 7.061107416522419 7.013791109163425
Os 9.511897676221324 9.137491730520983 5.9638863782113445
Os 11.43314039747196 8.180158149394677 8.551044023835637
Os 11.01089219867058 10.19651643052065 7.5276682270785145
Os 13.745130552670481 8.793315398727982 8.865022510083637
Os 13.323478978434368 10.803976224489373 7.783941739474582
Os 8.059727983139663 9.727885239960631 7.76833241592267
Os 9.500867311914236 10.897437655590334 9.545131809618592
Os 8.460814129935791 7.679632876978255 8.778258032852227
Os 5.841087974348753 9.778868920448904 8.684651404821416
Os 11.972569841992504 11.534893461334018 9.68151826652058
Os 6.24947404386386 7.7073495470788655 9.738879978690882
Os 7.218404088664714 10.8590576501318 10.403335641645548
Os 9.926970418598472 8.765821358457622 10.5219706086137
Os 12.407906526259499 9.600722064899918 10.736898681667778
Os 10.267012481392785 11.858420516632757 11.6939830735548
Os 7.616040388104644 8.815828858321671 11.404231436878508
Os 7.964663502368668 12.016149491304299 12.406202847294212
Os 10.488835472916936 9.782309780016776 12.63546681033468
Os 8.226523852299268 9.972049302440263 13.464777077509222
