25
Energy = -225.18855215 Dir = /p/work1/plile1/GA_structures/Os/25/all_candidates/2537/
Os 11.133665369536828 11.924207665912322 6.657647863970617
Os 9.77426295320288 10.00007810812266 7.6251774475165615
Os 7.178066049905364 9.962945744907687 7.278485792964293
Os 4.681509778814853 9.948196884069645 8.238813309324085
Os 12.313166436872196 10.031918437741446 8.01440305635454
Os 8.368413533590696 8.067160641551595 8.645507280459713
Os 9.53362142830867 6.235012714369632 10.004935280815143
Os 8.349168355525556 13.044481114026699 8.245095014988491
Os 10.855548409569872 13.12079342278165 8.563282896085848
Os 8.633328669984296 11.846227992124279 6.33785711628196
Os 5.904026446130647 7.890036808195322 8.268646375236893
Os 10.980886909245905 8.108903725712814 9.00736206874344
Os 13.473477507093833 8.180107948231036 9.356131708594381
Os 6.983386545226211 6.128635297990361 9.68330919693701
Os 9.481343356536552 11.230366081301526 9.58149633262035
Os 12.072726986788858 6.266395649638479 10.374724513197066
Os 6.88626082426952 11.167756191067989 9.191834332155073
Os 12.035661895012256 11.234733086082874 9.915426270209943
Os 5.580170034361459 9.22534434963597 10.346736685528365
Os 10.688701332549844 9.337770969772311 10.949952128414207
Os 9.248469266778438 7.449598337736814 11.914530079198427
Os 8.0728909933155 9.294993867529001 10.582974244129854
Os 13.192488589188308 9.388351346157744 11.25835830132155
Os 6.696332115502058 7.357822087668524 11.600684010727415
Os 11.792546581184405 7.46828189616651 12.266749062719127
