25
Energy = -222.56348139 Dir = /p/work1/plile1/GA_structures/Os/25/all_candidates/1706/
Os 9.646018190396079 11.405715933499776 7.346899429046121
Os 8.853410075708512 9.293061170595426 6.129931996312839
Os 9.841943430233544 6.811883813684277 6.909729102268394
Os 11.420497095021942 11.165631971173072 9.247103495819777
Os 10.544261244582398 9.029325703837811 7.9403620828331345
Os 11.110695266611726 4.769198283739286 7.852363531304131
Os 9.011107054977764 13.455560114787723 8.391967539594813
Os 12.098285422157337 7.0885978217021375 7.846715869748639
Os 7.199656727088948 10.498318244875378 7.632935689189887
Os 8.112092316785812 8.237113888558111 8.303444373444579
Os 9.121143623157188 5.8801056388419415 9.026153345463248
Os 10.490622427158373 13.14960312244777 10.182686395602067
Os 5.220339637705655 11.129980776392674 8.940659321566047
Os 7.244927494334012 7.008043137068709 10.29638943174598
Os 7.293807119178491 12.31572495817186 9.590488236213845
Os 6.491854426425122 9.528155854948066 10.128864459281903
Os 11.374396936722617 6.197523265339662 9.92123180565637
Os 8.92434289501197 10.325588377081404 9.551739509007499
Os 9.613333533336322 7.9773049656794175 10.451470629469089
Os 12.909107900812735 9.134861166651413 9.031190962742736
Os 8.712559914062307 12.179246695336516 11.514945008219954
Os 12.197039339960783 8.267559382103844 11.043248551629974
Os 10.728840955867488 10.15938372965571 11.438110803575766
Os 6.483473162788019 8.199331839877926 12.23503009328419
Os 8.287111382810327 9.724047716845565 11.977205909874213
