20
Energy = -175.69516491 Dir = /p/work1/plile1/GA_structures/Os/20/all_candidates/4424/
Os 7.89612230739746 9.003867044806718 5.160390921544491
Os 8.631333752170827 11.121629626365394 5.663082982383738
Os 10.31935718877714 8.07891035287597 5.552755271380589
Os 11.054895941244656 10.189133812560192 5.978836841524344
Os 6.365806343159177 9.105334975499204 7.16681400390571
Os 7.140845692639929 11.208372493696002 7.6655884289228915
Os 8.696470245198357 8.227651142916054 7.359998453858121
Os 9.473883261927563 10.41786718392198 7.859260003226603
Os 10.957090733283227 7.354957034758859 7.916359568683091
Os 11.741227391043195 9.57760996853302 8.299875764545726
Os 8.935893141513208 7.067797190934474 9.744357879009376
Os 6.7655515413882235 5.984249309831069 9.18768928652466
Os 7.801716343370804 9.24003083800773 9.747803376437021
Os 5.611562411243646 7.965746311468627 9.20591852850361
Os 11.14426292639174 8.033165031474583 10.387714930799536
Os 10.165603292269388 10.208766560743758 10.347511748316082
Os 9.551313162683146 7.461055764616312 12.135475495619916
Os 7.373135483330524 6.3340952841916165 11.51722521608281
Os 8.540324369799656 9.524453981219434 12.063240446644652
Os 6.319180841731032 8.380882462141892 11.525677222649563
