25
Energy = -222.58838778 Dir = /p/work1/plile1/GA_structures/Os/25/all_candidates/2101/
Os 10.548889311713578 8.528260831678091 5.222394543408654
Os 8.293868294921495 7.924566282346948 5.789834105327566
Os 10.344409683706191 10.411500049552977 6.550870820117468
Os 7.985948500395204 9.85254551940866 7.2203541987248885
Os 10.954169901987356 12.494101529803633 7.476588002997132
Os 8.829688505814621 12.015376185400651 8.522858814468993
Os 9.14563240398727 6.711082299011974 7.62081460542088
Os 7.151327952870046 7.774465907221219 8.903786060277815
Os 11.403486337898169 7.926395090949897 7.387640569507695
Os 11.229033244624622 5.854070827017327 8.733310678922527
Os 11.46467860107912 10.683878153090465 9.021803684583473
Os 9.52456497312387 8.793616899542435 8.983538691821545
Os 6.0072254499826805 10.106493601366834 8.467376848084868
Os 12.964183069613737 8.84427813792218 8.993144165981862
Os 11.413052473312145 7.654449104488968 10.458586583135107
Os 9.151908481581291 6.565015349920392 10.143564600677648
Os 6.783491927177262 12.145764458704729 9.615622664284496
Os 9.560038489465322 11.064468895518878 10.685704415527491
Os 11.68457818993121 9.962164668911997 11.445491898508836
Os 7.279253947768781 9.821324990349552 10.58508289104104
Os 9.437769516366547 8.69054917556892 11.712337333172094
Os 7.16863525791294 7.444021266459087 11.41415753846684
Os 7.606112766643204 11.764156411109708 12.078574171166
Os 9.740769590239163 10.70741497701426 13.10462107590753
Os 7.500590291546045 9.433346551302002 13.035248202129672
