20
Energy = -175.66636182 Dir = /p/work1/plile1/GA_structures/Os/20/all_candidates/5596/
Os 8.429848744904618 8.07308180035939 12.027773482556082
Os 9.704864792610834 10.033561898499029 11.75059991672675
Os 11.661801300105893 5.674211160413803 10.047657415427796
Os 9.723304179811254 7.007100807128924 10.393268679328513
Os 7.261265108332865 8.552062571699526 9.938035191167536
Os 10.994184338470138 8.95080200266838 10.119696538643888
Os 12.944574624084215 7.636239544511725 9.772180272699762
Os 5.320439638140146 9.847314000892506 10.157738552829345
Os 8.532512033687176 10.497301577499885 9.663919200234947
Os 6.597957499205657 11.800412857999042 9.88749953528739
Os 7.942173621172128 7.521598033302027 5.755524842581155
Os 9.213230337368598 9.465238871722223 5.48136774588241
Os 10.944589354038962 5.839269824635729 7.7981002303542
Os 8.968869726991162 7.148955084532248 7.9209499766369085
Os 6.634363106806474 8.62304374378769 7.419410858204814
Os 10.243321680978301 9.096991702712115 7.647417911643562
Os 12.218200250840283 7.783530587940686 7.525299947257874
Os 4.70509719168353 9.933886494947169 7.869739495530662
Os 7.896391173740945 10.550405968611653 7.146930536427182
Os 5.984497851998501 11.88647802110856 7.59837622555106
