20
Energy = -177.04587569 Dir = /p/work1/plile1/GA_structures/Os/20/all_candidates/5832/
Os 7.620603740124594 8.806218098720048 4.310490263518551
Os 6.903568530310732 6.762134522614766 5.175200467453384
Os 9.73315241792312 8.551542401965891 5.5692642194176445
Os 9.022529315044478 6.568156895893949 6.36046238219243
Os 11.874788649888322 8.414642058396433 7.051430497184675
Os 7.697752916306983 9.744619318782243 6.56986899715306
Os 6.972748559402678 7.776401525757343 7.412598380623593
Os 11.184787934099992 6.377587965435624 7.812346279743476
Os 9.133829853078584 7.374444599509513 8.733092641869973
Os 9.835220640694297 9.474302797669026 7.947594856658508
Os 7.581887338975485 10.364854248707777 9.12465337600684
Os 11.849073994699282 9.312282518772253 9.456912062549517
Os 9.719272013590574 10.330947548696713 10.423693134428728
Os 6.964735501004841 8.286385656690335 9.985655160798698
Os 11.190830694668612 7.255316260458734 10.21549193219542
Os 6.57163340542279 11.523929585627682 10.939368512157897
Os 9.111829757735821 8.261953301583292 11.254608103517166
Os 8.550581369504096 11.447612468511256 12.188858371898014
Os 5.952432510161771 9.429046764373753 11.823335751351747
Os 7.936081905346545 9.34496250981701 13.052415657263515
