20
Energy = -176.24911291 Dir = /p/work1/plile1/GA_structures/Os/20/all_candidates/4049/
Os 8.916086324086868 10.047339756388501 4.652612935187211
Os 10.275292593931523 8.1031543114333 5.313379489717038
Os 6.756979436213013 10.334746915805658 5.815260335713292
Os 9.980272874190716 11.359964045118183 6.296706628285069
Os 11.22787937640009 9.484705281591177 7.041192958538378
Os 8.62892484600784 9.084961720567863 6.983431452730981
Os 9.929040045180033 6.853570446017382 7.482354142354693
Os 7.934641169701332 11.580751317384829 7.488625004857317
Os 6.196130886561965 9.127429627298763 7.960605259116849
Os 7.60443482351233 7.081317575840504 8.469902757872067
Os 9.526268947681046 10.0882774389772 9.050320373504084
Os 5.3074156004108985 7.351387811687881 9.485361417109951
Os 9.059455241049726 5.079482695900738 9.005375305824963
Os 6.738824550177078 5.319199052599618 10.036222248834347
Os 7.104103788685595 10.262495616143402 9.74679344847321
Os 10.865083381908077 7.968494615175203 9.287940766195696
Os 8.519381276280669 8.198730461807985 10.305053460262231
Os 6.2098532546726215 8.440338742430965 11.28762262446147
Os 9.938057223757497 6.167480844630217 10.818114120503926
Os 7.624214804842383 6.408512168451521 11.815465715708207
