20
Energy = -176.15941924 Dir = /p/work1/plile1/GA_structures/Os/20/all_candidates/3246/
Os 9.401376420358986 5.947773240120977 11.249952964397927
Os 6.878772454140155 6.468344219906784 11.28686740506115
Os 9.837180422311429 7.989022159808103 12.160692174825058
Os 7.3113753182298975 8.510544519125077 12.19777862488029
Os 10.790574779767649 6.5552153550217795 9.248784154530847
Os 8.283096128341903 7.044070969984847 9.312026502144276
Os 5.7871713274018655 7.590894690558469 9.317941971655019
Os 8.720761084013331 9.095998455907763 10.231146791464448
Os 11.225551281518486 8.57087924346914 10.154376464345566
Os 6.214148526314443 9.609337576191264 10.22545427042579
Os 9.87193720846508 8.678060179339559 4.98151273081068
Os 7.346886971962876 9.199435865719579 5.015036299519076
Os 10.30329140898279 10.71549220776407 5.903253848012026
Os 7.779977013579492 11.236598557815153 5.93671806291727
Os 10.964057492826543 7.570438019527032 6.948168821123013
Os 8.45813852978173 8.083065273301887 6.944435067208622
Os 5.955090199586992 8.601556103021863 7.020694397314553
Os 8.894050695741516 10.132489728137259 7.870177559104983
Os 11.392239905991769 9.583510339361005 7.862310139902737
Os 6.3845118555484905 10.617462320783568 7.932860775222212
