30
Energy = -269.77059598 Dir = /p/work1/plile1/GA_structures/Os/30/all_candidates/1091/
Os 9.804624823115727 7.4429804159335085 5.108192665052504
Os 9.714682701461257 9.822056344150747 5.7601603853259835
Os 8.112004689342998 8.090341029617854 6.834935910785234
Os 9.554666902279997 12.188591226646748 6.5743732493420275
Os 11.66165006011519 10.462016927296428 7.117559268168968
Os 10.755991617603234 7.854318823054716 7.279572667488149
Os 8.233452243020356 10.412661785453531 7.681498114744948
Os 13.183975235293786 11.59026390525662 8.726979178600443
Os 8.242382775117235 12.751330170134393 8.907427666549378
Os 10.695774217644466 12.177782726845319 8.751286891025215
Os 6.769717285206649 8.806455835911635 8.932610369935988
Os 12.652018729281687 8.767460927614556 8.830559528069623
Os 8.886366258015482 7.419592541495059 9.050398720825596
Os 10.32666470418341 9.664978003985683 9.113448786336575
Os 11.42017441829648 6.64978553636347 9.428554482542445
Os 7.47085195736441 10.85767013472003 10.239063881567388
Os 7.591028350999256 8.19740687978549 11.305431264675212
Os 9.571481128270536 13.044794204186292 10.945537218470962
Os 9.71048116539513 10.508072911033684 11.394832623704945
Os 12.04776529278655 13.106469291599772 10.678038599042601
Os 12.232917982563437 10.525030242535061 10.694826710007089
Os 10.233774158423468 7.855804374767191 11.293895443321093
Os 12.648088254209966 8.130383747732424 11.306656892738907
Os 8.477777986664371 6.075864632526232 11.038569777796429
Os 8.554503973322095 11.944911151652521 13.063603899137233
Os 8.697429324229446 9.484511014691963 13.438252965834726
Os 11.2070631136431 11.978655132868575 12.75309617758514
Os 11.305522944361272 9.469971530263066 13.046319984412673
Os 6.567988702539817 10.181737018041812 12.362801904583268
Os 10.104891065208434 10.973813593794945 14.777226832289175
