30
Energy = -269.46189592 Dir = /p/work1/plile1/GA_structures/Os/30/all_candidates/227/
Os 7.277975877219354 8.02849761836459 5.041992396487536
Os 9.429574646118057 6.785297251753172 5.3607349512071085
Os 12.78714783898518 9.038540587523556 6.292158054756647
Os 8.493917013924175 10.094455511738534 5.1673398588478765
Os 9.559096244235507 11.711720194668425 6.852200991556142
Os 10.485854914294809 8.837559603752272 5.499541906560953
Os 5.834431626584182 8.726858968043599 6.952857873712097
Os 8.032380021296115 7.468852291038533 7.354063787530985
Os 10.394704509942082 6.268231329420568 7.588400224178754
Os 12.470374152676268 7.60799197984931 8.167100884216152
Os 7.833968190053542 10.086686209877362 7.62148286612411
Os 8.88900798204216 -4.539160248575906 8.595538095666024
Os 11.76397225278091 10.801100245631398 7.483022759674298
Os 10.190066623852434 8.822579277314233 7.987038220803001
Os 5.966220197892065 7.4962750221177865 8.984055397865026
Os 6.451305515430295 5.264861124542176 9.674303645989863
Os 8.764512452360204 5.798127508214974 9.288063519592281
Os 7.0621173555135535 11.80921663748653 9.148046516608858
Os 9.730349392637086 11.038106733832983 9.449462246411253
Os 8.217660581965545 8.474642047287196 9.777505035413798
Os 10.664855091576115 7.388507598519573 10.154751616800501
Os 11.850404877948165 9.646557719681496 9.710707941008232
Os 7.311015834204102 6.601310811592405 11.493372923858264
Os 5.641698743025317 11.404239128979464 11.010167763131404
Os 8.007146192459667 10.70379878012743 11.301311894312315
Os 6.046837741788998 9.086173511152085 11.032251783495935
Os 9.628951384903058 6.100525694613369 11.863487126505474
Os 10.625182551539988 10.54018067496038 11.730078853188607
Os 9.320073457430214 8.63404235761085 12.134241697735611
Os 7.050111775579167 8.336411199789282 13.065634207020262
