12
Energy = -96.1426876 eV
Os 7.68499632491888 8.964673498201847 7.78228465229103
Os 6.138204707154472 9.903967074030554 9.346318569421133
Os 8.586666327487443 10.980347641487592 9.09029806866212
Os 10.04104130406273 9.04587100721571 8.282904157588677
Os 7.2479385774904275 10.774754982438711 11.276426293865189
Os 8.430484426106949 8.75005883714671 10.236384631639979
Os 11.292850443060685 10.939889428610954 9.439706909715985
Os 11.096311717066481 8.719705507151803 10.591978978640622
Os 12.441250223596116 8.880673953706063 8.415014251368007
Os 9.654471630805428 10.675839696639725 11.380746405505214
Os 12.007922309756937 10.740219068963983 11.892940588609713
Os 13.550318815795608 9.786284929311138 10.331943970324868
