14
Energy = -115.20771266 eV
Os 11.237759843455189 9.67246573464957 8.110751220010108
Os 11.568772307579957 8.598929422260452 10.313561486356246
Os 9.616525553083388 7.2506018616376355 11.018739242085116
Os 9.977801568072469 9.760330107298637 11.663605733258976
Os 9.955120136732091 9.01615147555428 6.030932050978231
Os 10.026878663385947 11.573001241925134 9.477544528237384
Os 10.116507928277999 7.4075300719633566 7.912993876561358
Os 7.579493721042537 8.776860644642262 11.325731143800695
Os 7.844358251832186 6.9548434490912445 9.404211829574175
Os 8.94473518886141 10.829251512518475 7.474828454603851
Os 9.122992196265905 9.144579120166236 9.374751110762016
Os 7.891054504070626 8.357556649796043 7.293390887277886
Os 7.910173314511958 11.155498404714093 10.765456520416699
Os 6.94357609151081 10.292654432074801 8.716060361603494
