15
Energy = -125.93326293 eV
Os 10.626411209188829 11.43584802123365 11.135713214479129
Os 9.39817539570393 11.357226131763008 13.126012954481562
Os 12.750544664380815 10.820761956681652 9.543379878751939
Os 9.92422268475893 7.059283698812131 11.549434640084044
Os 10.982656988756485 9.23545939959669 8.33484373770224
Os 9.126507352652743 8.585034243508835 9.839576948448675
Os 13.186841979033082 8.541948221753518 9.051532163727424
Os 8.145563182488345 10.626319824788833 11.037652641433251
Os 8.832520701546494 8.607657034733831 7.427623681008572
Os 9.553300804591746 9.079069982184656 12.599183694224061
Os 12.036551320927863 13.062316272739531 10.014593814935711
Os 6.601781778497772 11.650038335270393 9.754178931187296
Os 8.352381456344984 10.738585864254341 8.462061862446376
Os 11.444745927095958 9.047332761613145 10.863271577052926
Os 10.54364474235071 11.715468299696797 8.595269854210706
