15
Energy = -125.46884626 eV
Os 9.688269474180613 12.430362302427284 9.169676919970138
Os 11.724091045811747 11.774752186485722 10.425235890387698
Os 11.473942940459999 10.574464308607272 8.289292031101295
Os 13.588403004082842 10.276250862387267 10.022771392897818
Os 9.370038145539505 10.981455154501257 11.339364091749086
Os 9.05074766988646 10.073948788911235 8.799429926211396
Os 7.443314683264999 11.663184251418905 9.937728547800473
Os 11.488889759332375 9.52727357409663 11.406753866736421
Os 9.421656929232352 8.835627521956043 12.62759843321386
Os 10.262519390118275 8.194998250903843 7.743940326346885
Os 12.175566083116617 8.441846812087622 9.303788809250957
Os 6.405033358958019 9.748172871671997 8.693740770683482
Os 9.782969357590167 7.943157817485046 10.318145121913174
Os 7.968889261960527 7.787530880344761 8.635673680567592
Os 7.637269210649881 9.208479766420288 10.802088244140933
