15
Energy = -126.59824638 eV
Os 8.936183151815522 9.010199876180923 9.111396829079677
Os 11.419218323719148 9.001392233788208 9.118331110467942
Os 6.151416102821068 9.258180793492976 9.101368114797816
Os 10.237564476504565 11.125370916507066 9.103828732778073
Os 7.476815742586262 11.168946844513643 9.095388633552735
Os 10.016470420115057 6.6442890961133845 9.126677400348195
Os 7.6928043872179135 6.516014266249624 9.120255842559134
Os 8.741088792960515 10.475412601381947 11.152853754633012
Os 11.15568399060072 10.275793769323696 11.410075845735221
Os 10.071683558814986 8.107392790597128 11.174364902213076
Os 7.3756060003972035 8.156049420609131 10.882388201783316
Os 8.753387882406521 10.453459370459258 7.052834695582449
Os 11.169140796345639 10.250703673789605 6.812687859475582
Os 10.083454068487148 8.08547941611754 7.063852682468528
Os 7.385434782250988 8.137267430876358 7.339647871568129
