11
Energy = -89.10174109 eV
Os 10.009183983251562 8.821097296621335 9.28011058940993
Os 9.959894677414605 11.379920562758846 8.506294880333742
Os 8.318383372918566 10.257368169931608 10.143887779407853
Os 12.078312906230064 10.180629061406039 9.161462270663824
Os 11.833679642251205 12.467778582567103 9.834808346337152
Os 13.44148191412551 10.798684326722503 11.13510602103026
Os 9.411793833287302 12.504936378404395 10.679303424758515
Os 11.282754249816495 9.330628729061834 11.348232135073742
Os 9.246695217358322 10.379173572284989 12.346295312132572
Os 11.337267752807545 11.684799958769696 12.051096403373208
Os 8.981524321382981 8.095955232315436 11.414374708323116
