10
Energy = -80.14624987 eV
Os 9.30075724968033 11.332890101837034 8.925256687820054
Os 8.206640332263424 9.931918626734191 7.207271524156641
Os 10.632943544333056 9.501627852146516 9.406894487718045
Os 8.246768107651734 7.850447627977371 5.9062488569012395
Os 7.3514423628926275 9.962199681337157 9.54852160112348
Os 7.445732775076693 7.82624407045951 8.281956100882235
Os 9.895712958306214 7.976618464991234 7.5566190584097575
Os 10.848979988680908 7.038701554097511 9.523600366257151
Os 8.868619380202134 8.019008166638406 10.396890870358389
Os 6.546019168030383 7.907850263748803 10.62103285365423
