10
Energy = -82.6492069 eV
Os 7.554706721050619 6.892463130174386 7.575996695431865
Os 9.937293896762966 6.892565349201066 7.576265841912259
Os 7.478705296389294 9.28002472593358 7.61310277033833
Os 10.0129777643672 9.280032621613788 7.613516166975017
Os 8.745695489071139 11.382232422477353 7.593965058716689
Os 7.5551721128610145 6.888746558545741 9.908885130802949
Os 9.935762962613563 6.888311779743817 9.909154862190546
Os 7.482445133661384 9.281168294471156 9.891390755299124
Os 10.009025243595305 9.28078995015608 9.891799918670316
Os 8.746305379627387 11.391755167683149 9.884012799663141
