12
Energy = -98.32878505 eV
Os 10.668820063383823 9.014849660423227 8.547928969312961
Os 12.337600830788608 9.02905100331116 10.256076003751227
Os 8.849441340751852 10.410578171017196 12.057247621038758
Os 9.375307560123924 11.00837343399033 9.627803451940098
Os 11.750527955705737 11.213760611237827 8.823880395612926
Os 11.213003391168135 11.001036510531346 11.305108174479807
Os 9.703604785718195 12.493806690892471 12.856064305879489
Os 10.145927342150177 13.207611425150706 10.685539033774349
Os 10.271404895662327 13.064217317665827 8.349223025031492
Os 10.833408238443717 6.973262117104998 9.97188220383786
Os 8.872513064897111 8.606261120279957 10.200014523586628
Os 10.551112531206112 8.54986401082069 11.891904146903098
