10
Energy = -73.23999539 eV
Os 16.083127082181942 13.00525163630004 14.214923431228476
Os 13.727000398903476 12.483727399832327 14.463730797902542
Os 15.129952445132608 11.622242159634537 12.466847136362116
Os 16.838009519586485 14.90603172597481 12.628541490427144
Os 5.254437952348252 13.06654833045987 13.585994430315939
Os 17.271320599629785 12.627834544153135 11.948757828263542
Os 14.547821326476237 14.685610193287422 13.38145831785263
Os 15.020814479506194 13.695854542565419 11.22714497521979
Os 12.940914664180657 12.998297756234296 12.227771879693718
Os 4.27690521917872 11.222094544284081 13.70453771842394
