14
Energy = -116.20237622 eV
Os 9.582596376027128 10.32418462799501 12.470489749092607
Os 8.71163967667106 8.670084456647173 10.989530862199931
Os 10.665834804493015 11.436147441413011 10.642440773290245
Os 10.334707041531008 9.566513199560058 9.037404778664417
Os 11.232683212772066 8.78573424869035 11.161533988771547
Os 8.252043451334256 12.054114564338516 11.199789667391324
Os 12.038410841288766 7.660064998664451 8.65397829170275
Os 7.222959292053351 10.252593324724144 9.959700542755524
Os 8.973575949059372 11.575964100615186 8.800821540249334
Os 9.909605201884778 7.093259462639571 9.52816438141899
Os 10.30727570718966 8.03826644589411 7.034227220338812
Os 9.995354677777833 10.367128730570007 6.555110652575422
Os 7.490376833185406 7.566109004364523 9.118471308186153
Os 8.098262900153594 9.431309527848283 7.697014407303276
