11
Energy = -89.194827 eV
Os 10.256685915803132 8.965460750941416 8.159803616651386
Os 10.086245056758207 7.488682598918344 10.201847550881963
Os 8.06711910695672 9.184695665805316 6.885532567454251
Os 11.520116895189819 9.570269988297753 10.240705373707339
Os 7.691462924165262 7.439930612963599 10.931374917641277
Os 8.381825168241868 7.280380342523316 8.409351629981263
Os 8.772355560368391 10.943380654563613 8.773913137289934
Os 11.30820106563974 11.157256461242534 8.349050201128858
Os 9.034285296402528 9.57848390759625 10.82853468444822
Os 10.27572897036735 11.754374935891148 10.519178991222173
Os 7.115809480262665 9.1580400100681 9.213082663510876
