15
Energy = -126.10901623 eV
Os 10.078739306283769 10.280486744472135 12.25571649596585
Os 8.184420459501904 8.649081104595997 12.571172781484043
Os 7.796334892484311 10.980671785580345 11.704573200653355
Os 9.998408724622541 7.9468707280038045 11.038677348970294
Os 7.837724206507504 9.089484905756875 10.079935865114573
Os 9.753091671962116 12.289820829686745 10.664558116508697
Os 12.118516364122062 11.013355343549431 10.936002732544955
Os 12.323337716578479 8.757022644824216 10.213230878023197
Os 10.190415092719858 9.996256314339682 9.646783121543915
Os 9.50783722616504 10.6473333760771 7.307328387375799
Os 8.502496577042063 8.513819206151933 7.812387024532692
Os 10.50784598315766 7.59788410590769 8.534335879244255
Os 8.109232267556877 11.43272677076869 9.084494509398272
Os 11.596028266536006 11.825284171852852 8.682282235145484
Os 11.923605811460245 9.505381543696021 7.87179541188677
