12
Energy = -98.2351528 eV
Os 8.10310460932755 7.072038559261983 6.758004586135193
Os 5.550048987001391 6.798482386299118 6.8822269172849815
Os 9.13912246837254 9.347920735103472 7.4536241527089295
Os 10.54358472454722 7.3521149400773345 6.531740912357821
Os 6.678011172071459 9.02952630350728 6.80258915156228
Os 11.485101234104299 8.749519490555695 8.25231623951974
Os 7.08704269160826 6.305483183471853 8.818502175530153
Os 5.76712127445497 8.311265900696483 8.88596742137218
Os 9.37500175907515 7.3683897347214025 8.952834902905238
Os 7.418705794467823 10.28696877372037 8.976201462695503
Os 9.78250797860683 9.666478659365119 9.842264783541244
Os 7.703880677690135 8.34504470454781 10.476960665714516
