13
Energy = -107.04765335 eV
Os 10.014221403468017 11.006921578335813 8.444946127599051
Os 9.615100984425153 8.851592135473924 9.641040603316709
Os 8.45847869294801 11.087486555924757 10.433216983926766
Os 12.065720617801734 10.94879734244818 9.62839700658057
Os 13.824654296088163 11.084217138286933 11.608680659944303
Os 12.043820581108195 11.924183188243985 12.796421539251785
Os 10.52960570233219 10.119879666171444 11.64754242956266
Os 9.680990018227838 12.5308783129053 11.982691699795458
Os 11.788569657023693 8.392940761917492 9.008526450978247
Os 8.505682781110846 10.592553294088288 12.832129984817712
Os 12.677016375068007 9.061317009580156 11.098173506666377
Os 9.585115350445662 13.180951730047122 9.495626763163258
Os 11.745652658380935 13.074055381456692 10.606124531894867
