12
Energy = -98.41642445 eV
Os 7.8809893508759865 11.60974359648874 9.624868215952176
Os 8.068534304056293 6.619470699488794 9.251030818358839
Os 7.868134313300245 9.104171851288672 9.790838985926356
Os 10.086489328168511 7.779575264242513 8.5439272267181
Os 9.772226768641383 10.349917329874497 8.569139325430804
Os 6.8470511703806896 7.990364468268783 7.630547042162401
Os 7.370202262716258 10.44027441944475 7.569536847245841
Os 9.581328804661753 7.821765609963065 10.974750473717393
Os 9.65581521764605 10.310663090324597 11.070508755121898
Os 8.889622491446083 8.740915293254682 6.576460843416181
Os 8.799454023190654 6.346677616431177 6.871000589521259
Os 11.53842006127165 9.244728664574064 9.885658876428623
