14
Energy = -113.95461709 eV
Os 10.743147616436556 9.158935851612604 11.771158298082236
Os 11.120963440703601 7.90770394458939 9.443142064311935
Os 8.29865342327002 10.217244853587204 11.680572195511607
Os 8.946470278188837 8.315757009420787 7.9260776686729555
Os 7.226150314665402 9.618005881636464 9.357307936343075
Os 12.140239287860338 10.346947686322121 9.863145171789172
Os 11.095972402652846 9.717178809409088 7.582432383274218
Os 10.453291046265887 11.669761652090218 11.30452590793321
Os 8.676980982968736 10.789539646090493 7.462735847734062
Os 8.229186654068977 12.009836878880542 9.911686299399431
Os 10.710182036909094 12.089717238400285 8.697151331975473
Os 8.667887928775377 7.8480899397186565 10.520254984382824
Os 9.6822053757218 10.000571769889634 9.613995390039111
Os 10.590172202699426 6.73352832732139 11.529611213809552
