15
Energy = -127.24796688 eV
Os 12.443652427099558 11.107531724793434 10.970741456196183
Os 11.575054328746646 8.846571411593393 10.585876952462405
Os 11.138225553897973 10.781034295985211 8.908729405782855
Os 11.811546694248447 6.653671577092956 9.749172936962335
Os 10.654387603911537 10.052438094431908 6.601520268675128
Os 10.079063244905104 11.286940608332028 11.290724111074617
Os 10.722405642691017 8.395073334549492 8.275313974824217
Os 9.376452965309072 6.9802090656953695 9.92063689545797
Os 9.31241987376656 8.93005446197702 11.55735933042648
Os 8.313848908018924 9.059981950148204 8.89110725613728
Os 7.511661856732882 10.479550064012919 10.838050466486425
Os 8.81846182681119 11.596147479229375 8.997305186905752
Os 8.325024483104402 10.52899763996576 6.964321614655036
Os 7.2281689951009085 7.913371430999144 10.808124782926114
Os 8.22652023701698 12.802453124651164 11.118963404063416
