14
Energy = -116.79509728 eV
Os 9.113893722968145 9.486975113550274 10.364032447486842
Os 11.730425829268535 9.082852756254255 8.28945642571213
Os 6.57520298488975 9.081638719123314 8.187862645591947
Os 10.433758357560352 11.31927844956539 8.059465145236855
Os 7.869930192765462 11.311602322756755 7.898914717639755
Os 10.404735226915648 6.905781340603805 8.130519217936582
Os 7.9000503801964665 6.914482978129479 8.079390749989933
Os 9.106432160164202 11.923284521205558 10.010332963449398
Os 11.388423002914697 10.459068279050626 10.238832915949592
Os 6.901772376684294 10.559378577694472 10.071835307628309
Os 10.92520471720371 7.804028045391905 10.31411797319203
Os 7.328956804824148 7.806032569802411 10.259620123806648
Os 9.163555201643968 9.174395498002738 7.90918077039085
Os 9.112535042000111 6.126076833653584 10.141314591204994
