12
Energy = -98.76894876 eV
Os 8.473857648083932 8.768083410237306 5.160890706444634
Os 6.462330883843929 7.355720074544326 5.237489682619605
Os 8.402328049797292 6.814231383936371 6.790486076488832
Os 6.383784116190033 9.65901834110217 6.092808537603332
Os 10.496497847345863 7.761999978581255 8.021914220982769
Os 8.325730688546301 9.169728026534663 7.668587844342177
Os 6.26405131760209 7.732944643480269 7.747093853412666
Os 6.848581363537162 5.22526109047945 8.154750462811881
Os 9.047021362466413 5.999071521690656 8.924467193301972
Os 6.719724285452882 9.388985517772378 9.711868654514262
Os 8.971550131122457 8.42400278528532 9.82692491043498
Os 6.848736037041083 6.945146957385579 9.906911588072338
