10
Energy = -80.62629552 eV
Os 11.53295843918216 8.889994869100262 10.024011600985025
Os 11.148579408734086 10.543450810285622 8.262678812274427
Os 10.627607963179626 8.179454868140073 7.854980732588044
Os 9.612370646846713 10.465795197197535 10.223930144889838
Os 9.120938525856287 8.052946059548429 9.867795301351492
Os 7.246603426701764 9.682276996689744 10.005419594926902
Os 8.714133819001837 9.809577866903387 8.000433393762412
Os 8.195956709781354 7.390201992419639 7.643335395833136
Os 6.35703219159061 9.019169562406912 7.795048634731859
Os 6.761923869125547 7.285236777308383 9.640471388656357
