13
Energy = -106.59138487 eV
Os 9.798304609515792 6.969610437336455 9.903178278217526
Os 9.441604864766001 10.718803851744681 12.244086391574381
Os 10.270949837422654 9.270113820852213 10.500775225785437
Os 8.757891801296168 7.844123743229584 12.011911901075026
Os 9.302750598148439 11.584391707070823 9.891020053713136
Os 7.772215521486187 9.737339365185857 10.741550176504038
Os 7.43054200886021 7.544429077244231 9.803700401436467
Os 11.146003227745005 8.00368205925032 8.014965858443976
Os 9.161789885608178 11.98058712083964 7.413807562638049
Os 8.323454591078676 9.870745507950026 8.22919403687792
Os 10.823985027079331 10.382964398884463 8.241913113899738
Os 8.78017849052167 7.5630692005920075 7.644806837929147
Os 9.831158890179896 9.33862205555006 6.219040375799866
