10
Energy = -78.15260842 eV
Os 6.338847047477296 7.031071232289461 8.078135398599835
Os 9.40078779736203 9.86611269699634 9.687188292442954
Os 8.59608244506035 11.675544760402602 8.331063293927782
Os 7.427602787134432 9.44110335426289 8.20094896054535
Os 7.648117873849904 7.9014649969766975 10.107718765314473
Os 8.237180478241338 5.678488190432613 7.031975118667645
Os 9.40382589559965 7.643515963919842 8.374189554902923
Os 9.646078928058733 9.885779281780344 7.120611712440038
Os 8.005529479901002 7.935297210061908 6.343865298204637
Os 8.011606251232157 5.657281296793907 9.439962588871552
