10
Energy = -78.23237379 eV
Os 6.8912311153294885 8.05743119388361 9.779981555033057
Os 8.69125761 6.427386704433733 9.764748624727188
Os 10.491284104670509 8.05743119388361 9.779981555033057
Os 9.898314704530348 10.416140870717962 9.739644429718085
Os 7.484200515469644 10.416140870717962 9.739644429718085
Os 6.8912311153294885 9.325084026116397 7.602533664966942
Os 7.484200515469644 6.9663743492820345 7.642870790281912
Os 9.898314704530348 6.9663743492820345 7.642870790281912
Os 10.491284104670509 9.325084026116397 7.602533664966942
Os 8.69125761 10.955128515566265 7.617766595272814
