11
Energy = -89.47504222 eV
Os 12.405634686824024 12.971807505941351 11.096572024994963
Os 10.085803883587266 10.09644450133881 7.679670650370556
Os 11.823310568358176 9.296057429246734 9.367222936775425
Os 10.122596586592456 13.110790499780896 11.391591869357963
Os 12.32909960094798 10.650446753685255 11.480164685362013
Os 10.838308003797259 8.584153053196834 11.551989730399606
Os 10.893035246672856 11.501527644357322 9.501672005184457
Os 8.249349602274199 8.90667865992505 11.624537040328683
Os 9.538276687628905 8.34527104274852 9.466397685713364
Os 8.595404325662733 10.464917676304632 9.704538535299708
Os 9.835467124392553 10.788191550213249 11.851929152951653
