12
Energy = -97.54288983 eV
Os 11.22383344249136 10.76176414825048 8.019330916410519
Os 8.817025441860546 7.177332244831178 8.008714526487662
Os 11.944718455134383 10.524801576335589 10.253811583183296
Os 9.701099757478497 11.791358537040272 9.874329116169491
Os 9.84664032192969 9.824232666083255 11.347260676956411
Os 7.0160758550161635 6.185416228687595 9.228225131741086
Os 7.552748475074482 10.253833210995083 10.349856624120513
Os 10.114339833716532 8.762533626222162 6.734697639618988
Os 8.322519071326736 7.8969141807283005 10.487495912483658
Os 6.788504973204401 8.606712409700144 8.679018505207958
Os 10.410859343604667 8.571794465853701 9.313447824220933
Os 8.808362773936413 10.188080121201573 8.254136396519625
