10
Energy = -80.57836257 eV
Os 6.768067792361132 7.295012990909449 10.445400893075561
Os 8.976121646632329 8.593330075451519 6.802554607865408
Os 9.216484243906788 7.911234937852962 10.546600088253726
Os 8.442236543447146 6.809598345541141 8.578423035025605
Os 10.13758777917795 10.098860037409676 9.581631354089811
Os 10.680082858705005 8.07104307963976 8.41614537950606
Os 6.85493284088512 8.566638031367333 8.266069799743986
Os 7.648667392754391 9.682844245333865 10.221614000943676
Os 10.814129833690892 10.287918857347867 7.15659189703605
Os 8.42463554051953 10.611034455747147 7.9786118035241635
