13
Energy = -107.18417573 eV
Os 6.793219582868402 8.769974201679647 8.165934300825413
Os 8.26058948974581 7.234123307301882 9.459363756549708
Os 7.575321475880742 7.320151465292458 11.777442083912705
Os 9.156871714431237 8.569670616573989 7.4227864269620945
Os 10.842367136212689 7.70780193090886 9.187808162409357
Os 9.808367339037973 8.282454823708749 11.294540279441504
Os 7.597952125577847 10.153381316900811 6.174856047500221
Os 8.39381751279499 10.694874921486464 8.523292876636733
Os 7.657530053082482 9.42289282671216 10.551171033012153
Os 9.91448535564119 10.756666976394264 6.355627434556548
Os 10.880783869868937 10.04828807868074 8.566979332645865
Os 9.915801875728105 10.634784029634217 10.694649354472995
Os 12.064290969129852 9.266334004725891 10.686947411074332
