15
Energy = -125.96813283 eV
Os 11.414761080312212 8.19307085325243 10.881588347058427
Os 11.646524323720188 8.993597233023362 8.191405792121179
Os 9.270721746125842 7.297267112187825 6.82610649165438
Os 8.8653534182568 8.474225840626376 11.517674451402758
Os 10.32908964326391 10.247630627183863 12.183722744999088
Os 11.821263305270609 10.433680632890756 10.060447173463118
Os 11.01570486162531 8.635400154558367 5.940564497862576
Os 9.284812341986353 9.768046069562832 7.390786265936765
Os 9.61241590722506 7.991473809241166 9.184529085949825
Os 8.618418698492297 11.865264674201054 11.942491686582791
Os 7.180071974168214 10.18324157188986 11.120478270235909
Os 9.364649611816917 10.709436805732038 9.829034171049946
Os 7.144866827281684 8.234498316617959 9.385145714039723
Os 7.1862402008618975 8.488700043531548 6.9494064578247166
Os 7.194731012867638 10.500535594724022 8.536733498260089
