10
Energy = -79.81289768 eV
Os 6.725612121151761 8.902304150241141 7.432073136009587
Os 8.596024208079703 7.584331448200402 6.965023116650049
Os 7.280803539434133 8.726858232951662 9.826662042343113
Os 8.2245874378463 10.542031192699339 8.490878464787125
Os 9.980266884144966 9.54352191287719 6.927644890869296
Os 8.558246625542955 10.544904410144984 10.96721791951585
Os 10.6145000066881 7.671369441259193 8.508977856137028
Os 8.423451023625326 6.55410697873205 9.12217360518374
Os 9.476665028957 8.205352793491985 10.708444941193006
Os 10.431137979123363 10.036514366698597 9.362199027311451
