10
Energy = -79.46639428 eV
Os 10.996054381281247 7.447942689068478 8.229318497728919
Os 11.160356167986809 9.961191885690509 8.7006428481184
Os 9.637965548970744 9.079678149233022 6.865043231966396
Os 8.733771472960822 10.20160015508258 8.85838689126715
Os 9.874846825249294 10.82720796311571 10.95703372883244
Os 10.13721836870431 8.436053081846023 10.273191557771918
Os 8.555672434541604 7.599867557564123 8.437453629259727
Os 8.088301397170962 9.348632869748668 11.50244309454022
Os 6.687616187623662 8.636861175813776 9.683013038305214
Os 7.0218874616827165 9.283825857791363 7.362693185853748
