15
Energy = -125.52530827 eV
Os 7.014668526424893 7.829091148567012 5.368302034824243
Os 8.059133062321598 10.062034039286162 6.236180291872971
Os 11.306129258791355 7.9595410797904735 7.591648245621515
Os 5.653864368248839 9.232181997714903 6.87084208531709
Os 8.882397203444821 7.815500590445018 6.918004735355473
Os 9.923948264410642 10.07749101039127 7.889537272883339
Os 5.417919653383593 6.7411115373024435 6.969153278420214
Os 7.61405209943601 5.742978729997803 7.164970647677759
Os 7.427316393710159 9.335424003017469 8.524417796810729
Os 7.2432433457983985 5.689007055145508 9.580059553174502
Os 9.554272378952355 6.504529624123442 8.899802436613568
Os 10.557598495441042 8.627005355450445 9.818954970425489
Os 5.80705055939955 7.629410240304501 9.186962795959001
Os 8.960348314309506 10.439051089234413 10.203985991048919
Os 8.196302391644569 7.9338868149458985 10.395422179712245
