12
Energy = -95.87971838 eV
Os 9.10825355731314 8.97122556582338 6.220220067120882
Os 7.039083156794627 7.977442086380395 7.330803666444236
Os 9.603725860400914 11.139107356227536 7.30124311496695
Os 7.251093040838969 10.559632295282471 7.174703512097924
Os 9.274666965867459 6.799821402681455 7.615152481497938
Os 7.288595047250661 5.430349014345642 7.8497653731550745
Os 9.164482436240947 4.930227133215471 9.424078650074113
Os 7.944133152080022 11.392511097297099 9.345691566517862
Os 8.928580866188202 9.144305318163712 8.711764847601216
Os 6.530816557808677 9.367412253142197 9.403035936479345
Os 10.11235273846963 7.149585644417366 9.912653835499043
Os 7.6607412529201095 7.044905465196795 9.617411580718786
