15
Energy = -126.47386804 eV
Os 7.602159646916935 7.882667705934336 5.50140863198971
Os 7.930020887230169 10.618768154460675 5.842895585105317
Os 9.652498394393923 8.968973360004853 6.190110836540745
Os 6.551690900766261 9.024999588133934 7.368048318340873
Os 9.618807944442946 6.45509289033626 6.242851335856037
Os 7.625166358482359 6.613925241417793 7.756520226176597
Os 7.809497476916266 10.97584505854074 8.202641981541701
Os 10.909575772568544 7.496621197946884 8.097966615652831
Os 9.553606997840955 5.4664190372024954 8.686554441471868
Os 7.527120698659789 6.160506328044486 10.220273820463044
Os 8.861555772223339 8.770078406230251 8.570537248886966
Os 7.34623781409263 8.630543533850279 10.577608011743257
Os 5.672479870251193 7.621949725422879 9.144381448345271
Os 5.935809398382003 10.300488850836178 9.543729664095668
Os 9.717656268758626 7.3270051235634455 10.36835603571619
