11
Energy = -88.99026754 eV
Os 8.960843320754067 9.026399457926539 7.520458316907324
Os 8.933467654082493 10.540983471212027 9.804664039951772
Os 8.961828954255447 7.407147295124751 10.3620704764836
Os 8.974149884347561 11.494405332210762 7.566435970459378
Os 8.93471382786777 6.409915109176476 7.493993045527466
Os 10.984350039597716 10.116009680125343 8.502999081663983
Os 10.686634324659945 7.637902627889992 8.595981241955347
Os 6.91385308206433 10.109852968028093 8.48084557003588
Os 7.208137162757215 7.650151411937765 8.620479073560244
Os 10.69133477721033 9.035625379573279 10.747117628533706
Os 7.195423476300574 9.016343774589071 10.749692058818601
