14
Energy = -115.68459173 eV
Os 8.430281052856877 9.785165819428542 11.756332799848629
Os 9.472493749337113 12.068863108855954 11.601426587283118
Os 11.25441950272474 8.05515283630161 10.30002254710984
Os 9.381923503030443 7.47921743910123 11.771582596894518
Os 10.71583787013362 10.54549127989349 10.157929658088822
Os 11.573572057485435 10.156199932221023 7.866042959862493
Os 9.740179744042228 6.292000530600229 9.321365052361815
Os 10.625300855211618 7.949377310690365 7.798853332669844
Os 8.25326724736236 11.224101920537663 9.538392965556818
Os 10.846327249350166 9.423082695215001 12.366207877403717
Os 8.993866568691796 13.682844199266915 9.956035587546648
Os 8.900571513900072 8.625910900136542 9.547900991329433
Os 10.125655125523204 12.290172340097818 8.4063087039209
Os 9.15205411707109 10.12104723364922 7.45742721679021
