14
Energy = -116.20359081 eV
Os 10.928538740603884 6.730673063515087 8.473870368217884
Os 10.251709372608934 8.95082990078965 7.637252947826528
Os 10.558601688874448 11.13688225632415 8.825747139695181
Os 11.488198157631833 8.910000748157252 9.806654923871612
Os 10.085818921828611 7.030312572575785 10.67133133463489
Os 8.6125901244732 12.658751587237463 8.403287928571086
Os 11.956402809017249 11.099700482023664 10.882233204411893
Os 11.077738127896298 8.971202556379916 12.268043835183486
Os 8.506638605376404 7.768000884726459 8.820027162741265
Os 9.943521155772535 12.91040466022418 10.458589053548495
Os 9.928262875911535 11.129678713534169 12.212763052123801
Os 9.038796622984162 9.321357726021043 10.778878845622051
Os 7.869105958890775 11.641197538192229 10.645460406403252
Os 8.126562873559818 10.222728479176181 8.602322255906897
