12
Energy = -98.81956417 eV
Os 8.242587184219197 8.99368412562894 6.855854615804447
Os 10.781102915770504 8.972108846410732 7.303403871738714
Os 11.429576777840614 10.633378084017062 9.00632636973446
Os 7.464376422787979 9.13319495873269 11.475949792961398
Os 8.766864935447904 7.10694073061716 11.179664047954187
Os 9.423192745643115 6.96281481955071 7.482091435880085
Os 10.337630677491715 8.310331816903128 9.55336046135845
Os 9.415059855180644 11.131141325221174 7.724824595779689
Os 7.073115866491958 10.669061636034217 8.22790681699641
Os 9.011423233889548 10.409539378766867 9.957142860490862
Os 9.960050340197965 9.12400307142963 11.893675461714635
Os 7.874973045038971 8.333755206687538 9.119753669586531
