13
Energy = -106.58812377 eV
Os 10.045593429296549 9.435610896340894 7.228772280432159
Os 11.859736180650176 7.994978332238727 8.141862689364904
Os 9.538983236637032 7.096653122501671 7.444764676884647
Os 10.234641542758798 7.021430067835646 9.78274021699702
Os 9.162721594621596 11.372558247689406 8.60854690395226
Os 11.622712068198432 10.969248127098258 8.306720878704
Os 10.44575619500977 9.434699234345931 9.74500418004672
Os 7.71079865405379 9.24944135915323 8.314170526785162
Os 7.748256612580489 7.008708116638963 9.245383828522842
Os 6.680716205916066 11.316258268187042 9.003225791052058
Os 8.483117986161426 7.959313124294173 11.368647825097884
Os 8.149191975499653 10.22286135733587 10.627320503406185
Os 6.222022933420072 8.671426350686138 10.335752984015755
