12
Energy = -98.12210963 eV
Os 10.340416146452702 14.665203016918657 10.195795460471832
Os 9.499444202249103 9.897006700373838 9.143503670636578
Os 10.393502563320755 12.99977614760123 12.047185544041646
Os 9.864105855132772 12.256038826769167 9.696329981978947
Os 12.22187105165874 13.16158555019958 10.220175945088698
Os 12.42967904199305 11.594143629158271 12.174916417486491
Os 10.015484350550576 10.509137732725467 11.564378351383459
Os 13.51763397686 9.718417315931053 11.006941040586046
Os 10.578985364688164 11.388195995514709 13.879167941308875
Os 11.273778750620355 8.59780710998566 10.531821041064713
Os 11.839863809329696 10.77483098022308 9.541636996527856
Os 11.811630020503356 9.312968444775938 12.850232455118382
