14
Energy = -116.34445068 eV
Os 10.305648977807195 12.794894142241239 9.08886989385684
Os 9.036443171760393 13.224757840101317 11.392785340281781
Os 9.986282272631199 10.628056527959098 7.939875124774513
Os 12.1765395906884 11.065395299263075 9.160996878400788
Os 8.707845839875278 11.1360180025628 10.236983318273824
Os 11.099917385344616 11.786872986378087 11.217218446816664
Os 9.222813489941185 11.186213658037111 12.782456852045982
Os 13.055533023200935 10.264770150438217 11.408589258642746
Os 8.270273846965747 9.013599103171634 11.54986757055513
Os 11.328121569702457 8.668973683359104 7.548497574251296
Os 9.736973645158828 8.841260967062492 9.620203096298246
Os 11.56421715736658 10.891214441132844 13.531342073972663
Os 10.757098205487496 9.251908976162829 11.966975247617983
Os 12.182649465343541 8.601067662211694 9.7965851512403
