12
Energy = -96.79576863 eV
Os 7.652477668471725 8.130461720657873 5.279667575974388
Os 6.743457399952455 10.197948300611568 6.165369995875776
Os 9.208746734017277 6.9855847725360745 6.811331127138503
Os 8.936386896970765 9.52165719436596 7.162220959221315
Os 10.804718044782781 7.984374195260198 8.316902567811315
Os 7.088529812702397 7.9764970847881305 7.709103051933992
Os 7.060753865897306 10.392485420113324 8.591335039065639
Os 9.305118661590578 9.44605801275788 9.700400201215094
Os 6.9537786550233704 8.659073264396078 10.269025271545168
Os 8.715869357207557 7.058349252393759 9.454506971247147
Os 8.726045460425738 7.863323015841579 11.828288691079964
Os 10.89746613319603 7.877536456515712 10.805197238130136
