11
Energy = -89.04795647 eV
Os 7.027450597298895 11.769171378483485 8.06132244405141
Os 8.89257230214474 10.07484008214868 8.112491955386485
Os 8.905145741281283 12.18192783282606 9.433254934329169
Os 10.875426908135328 10.236584053076442 9.688327269499633
Os 6.6545994452072685 9.691929145064588 9.126152569342663
Os 10.770262217078848 8.324246764148464 8.042788795482315
Os 8.468032683545491 10.162674965352718 10.619236053456003
Os 8.68313924773191 7.895972177902169 9.403038165700965
Os 10.202345498779701 8.46080547817472 11.296154380175603
Os 10.69833987743042 6.51391524053144 9.765527382911845
Os 12.35218583232341 8.280845773031563 9.976620534525898
