13
Energy = -106.7079044 eV
Os 10.885576700577019 11.635273700555404 8.505663781593814
Os 11.222616155391783 9.063467799868567 7.9109269196267284
Os 8.745723270493315 12.625712332445099 8.407239134680676
Os 8.269922495561394 11.373928799459762 10.351582353277472
Os 8.996206879827318 10.05105768944796 8.39949034616651
Os 12.62108336229566 10.205306894383263 9.595180485101167
Os 10.699592065508112 11.158761214222164 10.971768526477016
Os 10.403292539599908 8.747355135792992 10.209083487824811
Os 13.300752015033133 10.99247465344265 11.691297111118976
Os 7.944253259574901 8.735270655018727 10.223899621909565
Os 11.810373467537056 9.278773630910772 12.277375821660534
Os 8.91137778636962 9.834229980607928 12.212890039842678
Os 10.54890811244466 10.71695845354294 13.634023960088062
