10
Energy = -78.43729756 eV
Os 10.015108101044357 7.166199617017602 7.41819797130774
Os 7.690929118926739 8.508240421468459 7.324923716768342
Os 11.525951650922263 8.32975352653451 9.043470633763958
Os 9.940427364863316 9.676724204727984 7.855006844578236
Os 5.7896461153094 9.888252591260686 7.912287672799689
Os 7.896955360176541 6.183485445250921 8.109445492305923
Os 8.948902865170883 8.020051878567287 9.515249773741246
Os 10.057754466921628 10.117039314156848 10.302013721364629
Os 7.8178045717401545 10.230252536881446 9.232166084387249
Os 6.4288395096647895 7.978536181931849 9.383629473856947
