10
Energy = -78.60879658 eV
Os 10.033224085365712 6.681760654855584 7.099052214976035
Os 9.877934042570057 11.184189927507225 7.823734269805481
Os 9.154694888410843 9.896095666227826 9.70512163026051
Os 9.291311103030617 8.953209133517367 7.198310581106993
Os 9.731742833716506 8.297815490203174 11.351166006886395
Os 9.245228436075422 7.26342539856898 9.280135015409718
Os 7.455375460983064 10.847295067457033 7.794515402453274
Os 7.3153329876664746 8.281039612943646 10.958369816228693
Os 7.594415144828432 6.853288780243262 7.146412991005509
Os 7.11156581392215 8.64712226831868 8.63840548605994
