15
Energy = -126.28539274 eV
Os 10.167342118764859 11.32585956397178 6.460473499122306
Os 11.861340053871663 8.231938472455212 9.803614915355512
Os 10.025838619258506 12.304449109312792 8.61210350138765
Os 10.363615403323129 9.756050847388224 8.099006984662319
Os 13.531403864151741 9.794568119670357 10.388610249860857
Os 9.941982454655747 7.488369975771008 8.475659255544048
Os 11.35292649669807 10.90385428964642 10.145290367495006
Os 10.436102071277105 13.077288045895752 10.963418424884349
Os 8.715769534909453 8.909867301967154 10.025094537387027
Os 10.51941612122584 8.873124234660331 11.70267666144351
Os 8.609981162330799 11.495646499963664 10.476955423313324
Os 7.062209890629438 9.945541264608318 11.412974443866908
Os 12.317180278464296 10.23657229923387 12.421490511097824
Os 9.056366439320172 10.453499321648462 12.735073395394274
Os 10.842532147862764 12.004069922943186 13.08250980277337
