30
Energy = -272.49371287 Dir = /p/work1/plile1/GA_structures/Os/30/all_candidates/1382/
Os 6.4113586236985025 9.55543484593124 5.396419748747986
Os 8.350987342132264 10.863046838880587 6.37486845575497
Os 10.44883150327574 9.815426776477693 7.34838182246211
Os 8.479420017205683 8.328458693809363 6.368363099232862
Os 5.973787367529925 10.712007334607332 7.5086767410780615
Os 12.492001244218308 8.442034459121228 8.388838939723687
Os 10.570899182822076 7.09077645996918 7.419831122096803
Os 6.199221716662409 8.056631745117608 7.4503307144154185
Os 12.598510749120615 5.947280976195545 8.526995618187314
Os 10.15041939139717 12.332883233657128 7.4961250387927425
Os 8.171885422557425 6.859403416454493 8.546894179200137
Os 7.936572415899113 12.123618026741338 8.603052467182724
Os 7.93833621413945 9.501829316855966 8.57148256505075
Os 5.5818491547341695 12.623224816551872 8.90113928110387
Os 12.725149710882066 10.651712122141767 7.452154246582864
Os 5.909634500536784 6.8169775852523635 9.697549042217187
Os 10.242499256162834 8.315131170710238 9.670983450535223
Os 12.258978592885155 7.167899688515376 10.66584113565048
Os 12.410283659654612 11.784915324305603 9.484008302163671
Os 9.911218685142808 7.024711075666412 11.859538955704002
Os 5.416029479138696 11.346215346173118 10.9032119871811
Os 8.118654342951201 5.590323100272301 10.77062666344614
Os 10.301542905476055 5.746274968278008 9.539134583819747
Os 7.749294555628888 10.747532197932527 10.86554033996737
Os 10.084177091729057 11.04349551771774 9.648810520169807
Os 5.670678584465691 9.26781363406956 9.73682752557008
Os 7.763344223057 8.111144604930265 10.84243318383616
Os 11.851358771254795 8.325245198163085 12.81327120581957
Os 12.043631537940975 9.764617490375 10.770596988941117
Os 9.744271734133717 9.548762011559836 11.882900051800096
