30
Energy = -268.98715939 Dir = /p/work1/plile1/GA_structures/Os/30/all_candidates/1452/
Os 9.179542627252651 6.246213466086479 6.067288388841992
Os 7.315783411876351 10.0039359886489 5.9582837151491574
Os 8.733534151973046 8.360756652836796 6.945814621195565
Os 11.992691646883314 11.264235418031909 6.459524109982263
Os 9.47909111127984 11.033984677706743 7.008157879340127
Os 7.313639771380913 5.387407008736889 7.261290494094552
Os 5.465009638014675 9.029276411157959 7.151297969274813
Os 10.446076036225064 6.460031541436447 8.096167172500115
Os 11.164207077031415 9.09757888896225 7.168714841308131
Os 6.833298238418813 7.556953066535924 8.30788501220351
Os 10.950755925566744 12.731647439786641 8.285942020929703
Os 7.302851479226715 10.323347295296099 8.378697245383762
Os 8.542964028330967 5.2883606369290375 9.211673322314788
Os 12.319570754315407 10.623454266310933 8.859682434242096
Os 8.704108522082903 12.156284036032607 9.320316457074588
Os 9.736715647264674 9.763796760385802 9.28268204088431
Os 13.963188035667923 9.238842282909713 10.00356107568433
Os 6.633635345056174 11.343483105619223 10.650552773553818
Os 10.023626447880394 13.961631758765598 10.625713060352384
Os 7.190209678541709 6.479529219640648 10.88155688765268
Os 10.96125327902974 11.79379440737808 10.646922035980468
Os 7.438613608013086 8.970033755902895 10.614281230973923
Os 9.56368444278457 7.350424923878698 10.352147978475644
Os 12.142036062563724 9.598633565141286 11.461449945511355
Os 11.891058684971117 8.049759627069541 9.330498072560749
Os 8.616509335891202 12.164225470700604 11.827303646878276
Os 7.224891743012165 10.131197772824567 12.802396292880422
Os 9.582706403756054 9.918633587445441 11.882910970971992
Os 10.848244170332924 7.7448685557963675 12.338922613374683
Os 8.287410320982374 7.774586037652812 12.665273316036759
