30
Energy = -269.72707284 Dir = /p/work1/plile1/GA_structures/Os/30/all_candidates/1424/
Os 8.832884105601075 11.529514845799422 5.317759602928348
Os 10.000488344537041 9.350631635293128 6.011312861533761
Os 7.473873552167585 9.713123357810748 6.335725937368665
Os 10.508829577138567 11.528339288917254 7.242709449714495
Os 7.947812198544127 11.916060549795631 7.624700095731364
Os 11.029487147878921 7.092929589775516 6.8769629968054184
Os 8.564043725652118 7.449826587036437 7.3356351738137935
Os 6.063827289125009 7.781604303644127 7.474462799461667
Os 11.584443879801713 9.215086235754134 8.009163453036159
Os 9.088901521324605 9.77223288369458 8.301487444632178
Os 6.1764859618451355 9.990894670963083 8.548928006056952
Os 5.8215526895865155 12.314262280215464 8.819438885015192
Os 9.859811055349951 5.604030440324119 8.512515831987317
Os 12.371393841235447 5.5275335580507425 8.276452946229268
Os 7.265082591925137 5.991699288210444 8.830719360301662
Os 11.69982621962263 7.289263407868542 9.688229964286908
Os 5.941848591519376 7.732963905052784 10.019147211649502
Os 9.854192864622155 11.948101618324428 9.635444183762074
Os 12.179561439082429 10.978083481907156 9.609022211003147
Os 7.598011950129545 11.942052855203018 10.505778562345421
Os 10.252462025726034 9.513268834999383 10.520825912375253
Os 9.081320876347531 7.198756117551422 10.171479220483123
Os 7.603093811051692 9.448748646186605 10.581044826964785
Os 12.441696393404458 8.85283534305228 11.472068898135506
Os 10.944629977322583 11.391649783338902 12.009834900778287
Os 10.358340993962706 7.626414449859261 12.2195336461608
Os 8.714010930091602 12.079058992279343 12.623123474453953
Os 13.34910342532096 11.111091352297022 11.742471028111803
Os 8.946281184192662 9.67756463462811 12.706477370223737
Os 7.578668487900125 7.56434371417612 12.109510396659296
