30
Energy = -268.48789402 Dir = /p/work1/plile1/GA_structures/Os/30/all_candidates/1287/
Os 10.456190729934384 11.915703839652192 5.5965351351748085
Os 10.401563012094648 9.479896418422204 5.977996938235013
Os 10.10411684317872 7.057848092404466 6.250595466592696
Os 8.125206428468946 11.90102585785993 5.917514297227222
Os 12.320436237546238 9.176913776724124 7.3476635720123085
Os 10.827196233695728 12.371689982801456 7.933505013370535
Os 7.989787326988954 9.597770564358129 6.79359302876914
Os 12.39369546851713 10.859796978547724 9.009719989787726
Os 12.032557217360289 6.952925561980854 7.883364061303873
Os 7.760854065268053 7.275713357314295 7.143300320288833
Os 10.038909395377761 9.825356672685123 8.410058401694688
Os 6.79624767582409 9.991365658703643 8.931218533970958
Os 8.390368618274039 11.962626509742112 8.235905168734991
Os 9.674175140117157 7.403807311716194 8.683017211017415
Os 7.259459390099784 7.641110048580666 9.550494656096966
Os 8.419015119842182 9.558039943017105 10.690179875728354
Os 10.473955151938075 6.218295884148553 10.65075456992186
Os 7.501946768402824 11.93695975929769 10.590049130033913
Os 12.742340575765162 6.968620121083302 10.186956814575318
Os 10.81439539245246 10.388951496416018 10.966081844603353
Os 9.866984604270732 12.583983946195417 10.436647363738478
Os 8.689288399108127 7.449618636649437 11.816978955126972
Os 13.045801702917558 9.240929064599511 10.864018015123106
Os 7.995790145339859 10.577939293812964 12.918670648005154
Os 11.186461489189961 8.143360996577407 12.131352398465987
Os 7.40494744148762 13.010366433279927 12.708902407475447
Os 10.23432131846066 11.149023549960939 13.165119194319868
Os 9.684314869375964 13.508168686697678 12.62946543014446
Os 8.33419592613196 8.464274782603102 13.959786865283604
Os 10.64061370687912 8.993053168476223 14.225691087485865
