5
Energy = -34.34073871 eV
Os 8.982387023084005 8.021506708305456 6.916631841966943
Os 7.747712515305784 8.99670777578374 8.904340693917975
Os 9.122086623779014 7.022703995556072 9.114645913491193
Os 6.741556326822325 8.8212647039653 6.738802743377648
Os 7.024334501726962 6.77008736821471 7.936775122136169
