5
Energy = -35.39586547 eV
Os 6.689087581360594 7.497004815544787 7.440613868325599
Os 7.604475794210927 9.634553889387439 8.461132022926732
Os 9.02619166214426 6.6319888667778715 7.851909990296356
Os 8.823653113089815 8.57231503146034 6.570189678450547
Os 7.851456849194289 7.6590023968294485 9.671019440000771
