5
Energy = -34.67562289 eV
Os 9.559036916782999 7.51746815403892 8.301298972647595
Os 7.4538173995584875 7.1249226906213785 9.253890615778502
Os 8.629285502896574 9.667680104235407 8.11009251389046
Os 6.494079782582126 8.747853718967884 7.7620611296125475
Os 7.8280931313598305 7.159939163917623 6.672274164276597
