55
Energy = -521.93738778 eV
Os 13.639606724062153 13.995874581389938 13.442330236243368
Os 9.334552719361822 9.888291554932765 12.499940458087224
Os 13.589708797390712 9.893644191858787 15.78025816416527
Os 9.201164264518937 13.86459420544108 14.785405368689677
Os 13.822795456432154 12.551161337031914 11.172578983494589
Os 13.534448923106035 12.599874432331855 15.851868603622949
Os 13.577399563768685 16.51198114221347 13.471166697113022
Os 13.661293104807163 15.20176695921683 11.143192183985375
Os 15.63245554858113 16.517147788273356 15.011887241260897
Os 13.651167775702433 11.149374526178475 13.471772673974703
Os 13.685151919003564 9.897490656248545 11.196745176259906
Os 11.237024349074684 13.868450447893922 16.45574296204366
Os 9.213450348559224 11.25918282104655 14.805341946682525
Os 15.8564663831669 13.855619905489682 10.515857807199861
Os 9.147074346642084 12.578905783380183 16.962875891322845
Os 13.61062140864216 8.633876737826577 13.55504776700109
Os 15.865975172718773 11.250809162816342 10.541308288592234
Os 15.687030370320244 11.210939893259246 15.158949993854815
Os 11.24372693765128 12.567076051413954 14.17558170672619
Os 9.407396177555166 13.938855428544043 10.202533042553478
Os 15.66469875081118 8.682754169740958 15.09850519239189
Os 11.37566813878695 15.203600422687215 14.17086815165887
Os 9.419092168284793 11.114982713971418 10.22949067904614
Os 13.568140927618796 15.302270801097265 15.721605215263747
Os 11.39915402191538 9.929298509619198 14.215703413713676
Os 11.580198731157402 12.52967326938554 9.465952100892652
Os 15.677109358669096 13.99001199699267 15.128511001454827
Os 15.78823496353023 12.574794245292509 12.889528487029551
Os 15.987467746566189 12.535534301391374 8.33835845528765
Os 9.516178304938654 12.507564950243085 8.014465200120584
Os 15.745399985630272 15.221592352563892 12.831671918048364
Os 11.524849494952868 15.222168716231689 9.56181266912926
Os 9.60521446326789 15.006979996077739 7.860850747179346
Os 15.767213099858575 9.931104223570538 12.88851499478507
Os 9.428363377926411 16.45912852920036 10.225304090377865
Os 9.624311426206228 10.003830706818196 7.9070350042848565
Os 11.42259136083372 13.996249540081724 11.869217154457237
Os 11.546961423308554 9.836538443769266 9.61077776314164
Os 11.781064359117181 13.892273579564627 7.335302050212877
Os 11.455085304781234 16.49874091776162 11.799640810445593
Os 9.459152425208924 8.595593068936958 10.29289726340199
Os 11.788898220015675 11.128971989538439 7.360947177118343
Os 11.434674385249753 11.09835488685137 11.896619687615841
Os 13.874340507534656 13.800586176167212 8.861284373913398
Os 13.747564700807564 12.509347373299592 6.64183664252343
Os 11.48945156397278 8.596696065279055 11.870584309734037
Os 13.883178028440813 11.260455778740473 8.886731891614192
Os 15.56421830255795 12.622854285059832 17.325083752739957
Os 9.281395762458999 12.543698565918318 12.457966520387638
Os 11.250208295588251 11.306899156173065 16.478336669096855
Os 15.379982873813072 15.130958312579542 17.451404577502768
Os 9.312293812788507 15.200096564610085 12.455801524698273
Os 13.238601192258786 13.916318218483646 17.973778029160727
Os 15.398863870461781 10.118092474543106 17.509325382796945
Os 13.249792681815405 11.325191413171673 18.002026228101393
