5
Energy = -34.17233398 eV
Os 12.190098979345317 11.641585768032131 11.370152057706537
Os 10.357126994373798 11.524889185009032 9.822164501322105
Os 9.913961097463659 12.143257823530673 12.144170462098943
Os 10.416846116829877 9.8424800825042 11.679464882640072
Os 12.006751956696958 9.732784647256143 9.868961901091808
