55
Energy = -522.35383541 eV
Os 13.339872351776753 13.669169061720467 13.124032805293844
Os 9.01732348698974 9.58783452434447 12.219156360891832
Os 13.319711779465518 9.549819919790387 15.419426142650966
Os 8.915803942133573 13.537680193049344 14.540027470869315
Os 13.488565663034576 12.245564066984821 10.826383297953653
Os 13.270327278459275 12.252036894972917 15.523034061679022
Os 13.27927132631297 16.186040550560868 13.172638107701605
Os 13.331241220897393 14.898516535386001 10.824713223031015
Os 15.358087257000877 16.17169331375473 14.684015172255844
Os 13.347183112363433 10.827807787431011 13.128250830878217
Os 13.343919533507776 9.591468119640304 10.832686613032402
Os 10.986146431570953 13.528201936196167 16.177717346518744
Os 8.922190568225956 10.941883159828073 14.543864705387113
Os 15.51778111896659 13.547889938042616 10.145619878355427
Os 8.903108096895755 12.243097212368932 16.717423986491255
Os 13.298543266824694 8.311134210561859 13.184456996585023
Os 15.524008919413017 10.951033934675188 10.149426073521282
Os 15.410835735924923 10.870504710725443 14.77387002387177
Os 10.95108624463673 12.24410042802022 13.891096698249912
Os 9.060579824924671 13.63745756779477 9.949545409448259
Os 15.376930045718382 8.340114267882099 14.695999918466521
Os 11.089685541605192 14.88317989053426 13.906370901950979
Os 9.067494170734074 10.829091484566773 9.95362124790897
Os 13.306265650465958 14.954187504633351 15.411376228652951
Os 11.102745927300635 9.605480479075668 13.914370405209425
Os 11.221005042340238 12.237450944250732 9.162765698452704
Os 15.404022688706025 13.641578999295398 14.769658785871425
Os 15.48477698193516 12.252766991319866 12.504406384865836
Os 15.600635617836577 12.246433824076995 7.949230548160097
Os 9.117483930552538 12.230065787021815 7.748417594845757
Os 15.441708304373543 14.896757564700804 12.486396221073937
Os 11.166167950637684 14.928799604839545 9.287816043386698
Os 9.21468363772137 14.722268528561013 7.603004541448464
Os 15.454754110973017 9.608983882337292 12.494430673144121
Os 9.087199915967295 16.161445979719897 9.996376136690666
Os 9.226837332875874 9.738258380735436 7.6104457921992115
Os 11.104235842755623 13.679479966176821 11.579030011661317
Os 11.179663022519474 9.546505082161348 9.295994881349456
Os 11.374080864811853 13.61544769908723 7.031823650461365
Os 11.14343177852558 16.18867782641774 11.535180789874882
Os 9.106779787739537 8.305535965723 10.008124789850383
Os 11.38061093026211 10.853955757679508 7.035970914097034
Os 11.111314821778649 10.802373939528277 11.583394663887908
Os 13.498672396112529 13.512152450752495 8.527654431766152
Os 13.332035241193715 12.23830017517762 6.298415396808857
Os 11.162579042338537 8.293205675397786 11.547129859214454
Os 13.504859441238475 10.971953889655024 8.531331493808244
Os 15.33311362361583 12.259129755673646 16.95738085262185
Os 8.96014461703135 12.23632258486716 12.206860744059536
Os 10.992121532269097 10.967104360163955 16.181636078526413
Os 15.142626788746014 14.75344386147872 17.12494092694497
Os 9.004302640713977 14.885467458613839 12.21130530248239
Os 13.006515200791508 13.545099230790056 17.668952374815387
Os 15.154666168935123 9.764521887511728 17.132523405341026
Os 13.01274927271991 10.964011276911586 17.672764128601386
