5
Energy = -34.28274618 eV
Os 9.245964128299073 8.830422952544227 8.39337245232953
Os 8.617766831145817 6.606156187730963 7.997544924936124
Os 6.92396278738548 8.191146432526171 8.804852320888477
Os 7.761678505808289 8.47250895499551 6.496951448435914
Os 6.266439983633482 6.704892468200255 7.097254692950491
