5
Energy = -34.22922793 eV
Os 8.004052158944287 9.642581677284152 8.941391383991645
Os 9.816468163566102 8.093713972674525 8.371407800593941
Os 8.57863597996586 9.23164731383795 6.653707834761743
Os 7.41799607534016 7.491191589246142 7.916292714245093
Os 8.245493899735603 7.590144617557234 10.166957936064973
