5
Energy = -34.67181619 eV
Os 9.331362920082809 10.866920282595876 9.198201024167746
Os 7.732317625515034 8.313481401241258 9.107385696736783
Os 10.329614873475489 8.01799762392332 9.09364925235865
Os 9.105067568085147 9.172743724103544 10.808316762285301
Os 9.200185336154389 9.274504822412782 7.468370403193245
