5
Energy = -34.23655609 eV
Os 9.660062581897922 7.60059202055817 8.421067830031031
Os 9.220014835304912 9.682593543487194 7.116754876149885
Os 7.430389033877294 8.217129254040636 7.950389259928779
Os 8.833526948439287 9.910964073754332 9.437142644208535
Os 8.118969514978913 7.845486531296946 10.313355681521806
