55
Energy = -513.32134855 eV
Os 10.906300308637332 15.837090737100961 14.922885001287444
Os 12.45509776731818 16.02025347796807 12.684901218861937
Os 13.134907105777206 14.63325176135489 14.706315089613897
Os 13.467226153917117 12.42088748801965 16.11020652663618
Os 10.831677199267757 13.414806731629525 15.407179082837859
Os 14.781502475211898 14.845357602133179 12.632026561775437
Os 14.944505087482794 12.725254785848964 14.159827050180702
Os 8.620125997526298 14.097035338364721 14.403860468467023
Os 9.8635090232216 15.74203098009078 12.737779381998589
Os 11.09409553582734 15.875852124985183 10.458675750605192
Os 11.35112002873001 13.820473468236656 11.90554385105574
Os 13.830842994502383 16.162063514617877 10.619229628673747
Os 11.487080132330725 10.911949105406713 15.712429583753707
Os 16.742058125931514 13.2024608051309 12.316796702082677
Os 12.467281376859122 12.292481231626624 13.814323910705742
Os 8.347113741674917 13.872910084705262 11.896068104449114
Os 6.948835547279582 12.411225133599679 13.422512127358456
Os 14.001366024742321 10.332223077660286 14.32244613533255
Os 9.05362577331676 11.494538725040393 15.439098006026056
Os 15.399896485249565 14.03392905728982 10.327856490234653
Os 13.647274960501107 12.679826041715195 11.535181030852144
Os 8.676120452438512 15.592328148393628 10.061041366047467
Os 15.460038900237812 10.99380149867459 12.234766054192484
Os 12.887373439766975 14.114958845228493 9.593823101816676
Os 9.927721054860916 12.239301086917628 13.22151274617042
Os 10.845976220077157 12.351147519423598 10.023621358593983
Os 10.5564591826434 14.304882356978625 8.465150664932228
Os 8.426780625302642 13.2540055963071 9.437187994620158
Os 9.765640545750433 9.00602668585652 14.647890197857805
Os 8.1251942849445 10.278933405174497 13.332890906844968
Os 7.53470054009651 11.53136722363948 11.058680272960183
Os 11.699829978402288 9.8152273349317 13.38944754683794
Os 12.664600759670918 10.40760128708162 10.681001509432734
Os 9.918986902348475 10.463855121487812 11.410862019483933
Os 16.658642647880352 11.743049631655023 10.19658291322662
Os 14.341568340887198 11.90818206190859 9.178938439757628
Os 15.015412011610056 9.605877659557793 10.102925553199459
Os 8.889621789163167 7.926455069633793 12.253188531165497
Os 13.817954669329898 8.78209603094876 12.277753409783408
Os 11.040649431450602 7.102649589438245 13.598276128073508
Os 7.162205308457298 11.021652491581706 8.658948861547072
Os 12.057468869419756 12.302547168150806 7.7935594264720125
Os 9.377802111337173 11.582826476163318 7.750291819884366
Os 10.831184941616959 9.86320740888131 8.96967761039286
Os 8.061015611575906 9.131203255845524 10.284827659280799
Os 11.24990750189043 8.251019755875246 11.371310595829069
Os 13.213148841012188 9.880451756331597 8.130593746567667
Os 12.98056019659717 6.4792534102759 11.66791782055724
Os 10.482099851555343 5.897216267422628 11.497626421338618
Os 12.938050641730468 7.783456392456061 9.469803126254519
Os 11.090496492143563 10.285061847264947 6.483845838847103
Os 8.704918534644104 9.086534729297222 7.854759660983384
Os 9.893995044712462 7.366988178647816 9.355969766391874
Os 11.362594198390191 7.934405644257916 7.4201879258023595
Os 11.728451912448698 5.6491414714855965 9.352610981765153
