5
Energy = -33.88892328 eV
Os 11.072100504530853 10.567347816917747 9.648738064896465
Os 9.97736369327833 8.45704859082806 8.530657370640032
Os 9.383662315175615 9.261970844665301 10.838061738382402
Os 8.79136020073582 10.611294936314321 8.836089077448097
Os 7.798248448634398 8.141942765736163 9.154169316936516
