6
Energy = -43.26290361 eV
Os 11.68430010524786 12.819288330807284 10.043877838808008
Os 11.313641337614841 11.495139383869459 12.041394991492751
Os 11.355654407037399 10.43370899180521 9.744551333077183
Os 12.013419191864324 9.196410318511033 11.725079654617193
Os 9.655888661370353 9.734380863920444 11.429143555045089
Os 9.460123015612513 11.904092000500965 10.421996096797091
