6
Energy = -44.26555991 eV
Os 12.078815391428842 9.336895803632178 9.901842413736414
Os 10.271708614333773 9.433976870819233 11.623794026758945
Os 11.496920104547563 11.44139848636102 10.530596059073664
Os 9.916217604699488 9.065378318110852 9.133512066518096
Os 9.526099671960658 11.363331110514759 9.275342409317107
Os 8.397135084418556 10.703910587596312 11.167862665518681
