6
Energy = -44.21119669 eV
Os 10.227266699803653 9.223837162556928 8.813937579744373
Os 9.152889488211994 7.538643307797914 7.060341046950244
Os 8.787155196885193 7.236800724054174 9.344826111926954
Os 8.748146239319835 9.606549872996313 10.581921762803134
Os 7.063348096531912 9.01296037523352 9.170374104797588
Os 8.303393354227133 9.63817559303235 7.300155834633725
