6
Energy = -43.24739123 eV
Os 8.329021273017755 9.509868917189065 10.838560219615967
Os 8.698155639752551 10.54667823707773 8.845653562294851
Os 9.058279297839569 10.261261505943152 6.590792089788431
Os 8.838345489158371 8.297183732230064 7.756053690339881
Os 8.649202670784893 6.046881986559197 8.18023923171637
Os 8.39605117596176 7.378568530141086 10.042197058942826
