7
Energy = -52.23668879 eV
Os 10.559845695569708 8.237871160095665 8.942492330654666
Os 10.584000164522326 10.480421867541754 8.171647167577461
Os 9.138715081076896 6.545847930882871 8.23584686812226
Os 6.794824500270445 9.826875125110474 9.519613745931778
Os 8.99153427440999 10.577511769292983 9.900336012770614
Os 8.53232090106463 9.0898990069981 7.909412345198737
Os 7.857466828331304 7.705328681723602 9.784350144487682
