7
Energy = -52.50138067 eV
Os 8.123196641556003 9.364570094825746 8.224478177299682
Os 6.187429506876794 8.49711336389845 6.92404379360326
Os 10.275199710361052 8.751742380165506 7.127079163358911
Os 8.320856918987307 7.447115283397723 6.6437518211762185
Os 8.05644676212538 8.551020907622009 10.5681568637421
Os 6.886667233961694 7.304487316562974 8.88251202129309
Os 9.535503226131425 7.46925065352748 9.015278159526638
