7
Energy = -53.50405133 eV
Os 7.17583033697494 9.872286777324534 9.280838876982413
Os 9.622126150475733 10.277494779867515 9.133032745294898
Os 10.025654485294252 7.880110800191589 9.081036481060226
Os 7.585199524801659 7.443883531720811 9.233204590835044
Os 8.696361827354 8.846496689097496 10.934230008429278
Os 8.501768551247087 8.886091446565604 7.439311400894319
Os 10.894109690113845 9.294692195669915 7.325799825477607
