7
Energy = -51.60868166 eV
Os 11.396997417723554 12.512811558787252 11.77478556323077
Os 9.585250991089378 12.032902321146345 10.067041521147887
Os 11.022232049911336 8.486788803016687 11.279754626925445
Os 9.785042564457626 10.448839803324589 11.948264960265648
Os 11.614889488463294 10.537762228588242 10.247255982457158
Os 12.195834160471152 10.409959422394072 12.630537366371277
Os 11.697961109955626 12.96483267123532 9.42957439778036
