7
Energy = -51.83105734 eV
Os 8.463062483837055 6.9140186961974655 5.564343458425717
Os 6.121211892914698 6.519687147153341 6.350963580447036
Os 7.07559430712388 8.801802703275625 5.898401566844467
Os 8.01744873162761 5.294968847989093 7.406859963027975
Os 8.125630020131045 7.732429952252932 7.909086505434536
Os 5.736779321219178 8.397088280777927 7.923355438878852
Os 6.344895129458988 6.224626258665693 8.831611373254121
