7
Energy = -52.12951049 eV
Os 6.671968461479981 7.552699640810185 9.119298
Os 8.926758752833054 7.103778602702231 9.119298
Os 11.217159633346462 7.08021153512148 9.119298
Os 7.964843276156492 9.52824090274584 9.119298
Os 10.341866210023468 9.293252372432868 9.119298
Os 8.200069842649656 11.751025630157393 9.119298
Os 10.512419751085236 11.525877243604356 9.119298
