7
Energy = -48.65348331 eV
Os 9.820619113032379 7.895414624146143 10.922855307795784
Os 8.6945013 10.057576191030488 10.627352345298423
Os 7.568383486967622 7.895414624146143 10.922855307795784
Os 7.568383486967622 9.493587975853861 6.466147292204221
Os 8.6945013 8.6945013 8.6945013
Os 9.820619113032379 9.493587975853861 6.466147292204221
Os 8.6945013 7.33142640896951 6.761650254701575
