8
Energy = -60.69307705 eV
Os 9.108949444095629 9.165854728466071 7.813669578569144
Os 7.495528211058666 10.536593329906816 9.070643748544391
Os 6.881553616036429 8.222050096309475 8.302728473763905
Os 8.522442790533038 8.673138165772025 10.322376616281918
Os 7.938804298055073 7.171588535469482 6.439569348354935
Os 9.934815627587696 10.644111013036587 9.624859227417346
Os 8.976043927302488 6.806640726331221 8.53697339347306
Os 10.794795577127543 8.31568367484439 9.406109104752131
