8
Energy = -61.37635219 eV
Os 10.703180314288073 12.143864322269451 10.329482648045168
Os 12.77109002926364 10.839984892571248 10.62436653331088
Os 10.60502607633592 14.476845591766496 11.178155473002654
Os 12.797913537352619 8.983195663488278 12.262171535956792
Os 12.659201199709045 13.162932714749775 11.471741322522572
Os 10.638649927474225 12.60736355929941 12.810052049686814
Os 10.72675591182282 10.302100401417492 11.960653527633355
Os 12.704453957770337 11.315747824205019 13.112926227131437
