8
Energy = -62.13925172 eV
Os 9.132513957017277 11.167416715771953 9.823811010903293
Os 11.172692367072845 12.15016405199497 9.002955590640536
Os 12.781980896204697 10.799435961038096 10.202036698248373
Os 10.794156791956672 9.58804355692719 9.059767566277914
Os 11.276680660570962 9.37065548438563 11.41479536848048
Os 8.993638846176417 8.660990689712138 10.429806153374757
Os 8.970523581753174 10.245202846160328 12.249894298390657
Os 10.734000051901328 11.712896057459725 11.537140922203314
