8
Energy = -61.85843459 eV
Os 11.353825537674004 9.720085838809624 10.289902659093228
Os 9.89211021480328 7.886559189447668 10.484534058763535
Os 10.475898114285041 8.715834463461768 8.173053155109717
Os 9.857966581297152 11.015471259221895 9.02586157623224
Os 7.789009243546874 7.169327667327217 9.77342628157601
Os 7.943542825012399 9.493988032897905 9.895561815593542
Os 7.746172679299413 10.909398569950893 8.049973943966076
Os 8.29699585500608 8.452578146843168 7.657931196128207
