8
Energy = -61.74466107 eV
Os 7.57026109254164 7.126996295083476 9.690585288089403
Os 9.979412274015985 8.637071383288886 6.370536587461734
Os 8.15682183024549 7.367797260053361 7.063093604692694
Os 9.63637199165225 8.336430650511225 8.869564248932937
Os 8.890854775347528 8.170074638250467 11.296998884194185
Os 8.694226184600792 10.235546393624576 10.248066475160986
Os 7.387899534124774 9.220975004319397 8.457300117984786
Os 9.266429335170846 10.48738539256792 7.586131811182459
