8
Energy = -62.34070706 eV
Os 11.297071087497981 9.072875327003446 10.802934552017703
Os 10.946046660124097 10.468719111332117 8.862194031099223
Os 12.745683579583467 10.985335137050937 10.671621115922257
Os 9.181919125846495 8.875130642625383 9.316155341206297
Os 8.878081415139636 9.276484117456231 11.685229297703966
Os 10.534585422782417 11.013738149054708 12.027706822131753
Os 11.093501408720908 12.679910324833926 10.161632053134653
Os 9.062254999500272 11.316316548047304 10.128222199228519
