8
Energy = -61.64229959 eV
Os 5.647555765390617 6.7771881531816796 6.295167910821002
Os 6.6335112464381245 6.103986218004069 8.447338078475033
Os 8.870836924791934 5.089807298412793 8.527862087956654
Os 7.897816699655751 5.778385107413682 6.316751559884003
Os 5.4131094725290385 9.201916332394191 5.766139342854587
Os 6.388331832980794 8.508589533423422 7.9658081915340295
Os 8.640291138131893 7.505425837477365 7.989754272134459
Os 7.654251172824589 8.180405772435535 5.836882809083099
