8
Energy = -61.23590651 eV
Os 10.476373570140524 9.990715540960824 9.326372018767934
Os 10.177121890142821 7.742769241199704 8.732156179562553
Os 7.787149463789024 7.690702176290158 9.473184363813738
Os 8.11659057312767 10.138541965057641 9.749022647373865
Os 8.879389775270235 5.943152477139094 7.940994033992356
Os 8.81824514806215 9.507978679691517 7.503326263982742
Os 7.327192537335861 7.523526862497232 7.086087478205381
Os 6.337491813602656 9.449551504530772 8.174837063475238
