9
Energy = -72.08355218 eV
Os 8.283234754420187 10.504663895771602 10.54259314026848
Os 9.65693698380096 11.370962963133499 8.840041330610253
Os 10.41922317662239 9.078583856364409 8.24839034113884
Os 10.19328488815752 12.024565920783282 11.22635368413859
Os 11.627666478318067 10.386963757732401 9.974434504322819
Os 7.944495668803219 9.613875130322754 8.198298768873574
Os 10.265026332924212 9.536186633793005 11.692465240374053
Os 11.536123486363746 7.890092857532468 10.212400815871224
Os 9.059540471515096 8.223367652884752 9.966819861066817
