9
Energy = -70.5479206 eV
Os 8.85307359322638 8.237689570871998 10.097470562264219
Os 9.798745034234527 10.34504765687114 9.271172371238698
Os 10.799941770275218 8.227251255492273 8.528831523401164
Os 7.568723053435141 10.328203865041887 10.410745300493327
Os 7.6626885051936355 11.204161688530453 8.13048019500374
Os 10.258800882627908 6.082398869037943 9.459042245885275
Os 7.021710664699114 8.749097988134505 8.543641075609022
Os 8.609455315365908 6.964563963224087 7.952511931906739
Os 8.961807540072227 9.396841040466144 7.140643456258836
