9
Energy = -69.67280885 eV
Os 13.637358506465702 9.487189946233622 11.280547537966095
Os 11.824829297694704 10.033871730470432 12.794610288814999
Os 9.459313058398346 9.61469820273296 12.145480514979424
Os 11.223505009811362 9.814726941395904 10.407860714429233
Os 12.798919260235008 11.665191109619473 10.928862052887576
Os 11.086567542758301 12.131714627536903 9.325610851094504
Os 10.340547312498385 11.884330380651559 11.694127650000915
Os 8.846216509041046 10.819506573869862 10.044421521071156
Os 9.077015566499089 13.231929643854539 9.898559353005359
