9
Energy = -70.57628094 eV
Os 13.130768802263173 11.901305904571839 9.581926791481466
Os 11.0855396540411 11.264179706274538 8.520795170728682
Os 9.819521641154957 9.21624044794392 8.981449127098694
Os 9.963093786102965 10.36788714294078 12.054163980037773
Os 11.719351971349115 9.79292325951523 10.433333181237119
Os 11.188654688150367 12.181202206414103 10.94610620096574
Os 8.949442973713653 11.295552053859007 9.996460631114305
Os 7.990374485880748 9.23181244569474 10.823282688715059
Os 10.088791532598734 8.041515231944759 11.165705241546021
