9
Energy = -70.57454925 eV
Os 10.29730199047417 11.761320740098713 13.773575915964674
Os 12.474995150242922 12.731200902470672 10.203317353831734
Os 12.510495610498957 12.070822907466003 12.713585467641435
Os 8.980504720741457 10.91222147171024 11.937336420765805
Os 10.78621154912961 10.906639097718422 10.242870675602006
Os 12.871617821832615 10.965461913073472 8.622645486180067
Os 10.468164792940264 12.960802943287087 11.548492836382843
Os 13.10351103999502 10.347176299975418 10.935257608140539
Os 11.232117097585832 9.85018762502753 12.425807234771995
