9
Energy = -70.6981972 eV
Os 8.421235343656578 9.556980796833566 10.567498378482775
Os 9.735470461059684 11.494741823859503 11.382807263181627
Os 11.68189458121976 10.09079093318613 11.103699358942999
Os 10.262281248886753 7.906601756374552 11.022533720327973
Os 9.64452656622036 11.672970247884544 8.937830302317858
Os 10.453454233439077 9.373176727767968 9.155269994067833
Os 12.127764609023036 11.07666585258827 8.676530069186905
Os 9.639870275747263 9.566568751651289 12.754035617565666
Os 11.530836271229392 12.709518350631273 10.304212210490908
