9
Energy = -70.68811316 eV
Os 8.773964584765508 6.008920060977253 6.657536078253099
Os 7.3287184672116155 8.420606475719403 9.905403996890515
Os 9.04928921445174 6.918197673017871 9.015483976753021
Os 9.288965897241631 9.261790215128416 8.33842837276617
Os 6.726339986900928 9.611125371125727 7.789427281735528
Os 6.920746925436366 7.126614209029272 7.81571997610481
Os 8.263960740359897 8.46689533549524 6.257778210298601
Os 10.546236289225217 7.628696975805272 7.059112697575402
Os 5.069314719662369 8.524690508956532 9.12864623487742
