19
Energy = -132.81692767 eV
Zr 14.605156139387544 13.748612499178742 11.348153747824279
Zr 13.093537435980474 14.862433603797855 9.507658925526925
Zr 13.156719427788026 11.302347210396977 12.513167236545426
Zr 13.121355572340391 11.9023067386244 9.61666171305028
Zr 13.043222126306038 8.954445191805515 10.566428753894584
Zr 11.722694882773832 13.572829448960682 11.763840775463041
Zr 11.986835562815795 9.157452586177488 13.446201371678209
Zr 10.102123784001243 11.566138553011218 13.509813446648293
Zr 10.685314314024481 13.217726210555277 8.88529165332439
Zr 11.05982042349153 7.188138969893311 11.825651193918741
Zr 10.427286298504644 10.34167915805632 10.860422015714958
Zr 9.17052094078858 8.83508502969758 13.415778866821162
Zr 8.919132390039092 13.203907157554296 11.231995900915559
Zr 8.34548036921618 11.827690936169198 8.840566938479352
Zr 10.908934100271138 10.367797022897243 7.928323091644228
Zr 10.633773168430416 7.725962981004407 9.111865443719935
Zr 8.36912648915243 7.730972916023182 11.004579954991295
Zr 7.608137911600663 10.630488416097414 11.550982042452771
Zr 8.262605380991083 9.22048134885945 8.755189228801296
