15
Energy = -102.3257542 eV
Zr 8.234812428467755 11.887519934926328 8.298238521093216
Zr 10.04311918505344 13.103707425690986 9.947752590443887
Zr 10.982595671803946 11.756845721496132 7.49172148389413
Zr 12.690435422131236 12.361940417752827 9.66204663414563
Zr 9.134621749641802 9.638254049907397 6.8340120382206235
Zr 8.103062193290203 11.105862945656465 11.302440417946324
Zr 7.227431674199871 9.324302374006733 8.893825900960938
Zr 10.19625238262049 9.91138306617001 9.834562831005062
Zr 9.283937655385634 7.2812546167363745 8.615414505630026
Zr 11.278365351637024 11.580524060111472 12.147502321482234
Zr 8.06788700852466 7.954708615998516 11.13210684861887
Zr 13.247297566728008 9.949006625013135 10.423771867212078
Zr 9.698177819432923 9.160276743470815 12.975121569522129
Zr 12.407076905353966 8.896251245085542 12.659902001547259
Zr 10.766130511099512 7.124238277228298 11.162330128258496
