15
Energy = -103.02926273 eV
Zr 10.20620074006943 9.974059883390852 12.550009911597602
Zr 10.772466165484218 12.333330843965683 11.528992683915726
Zr 7.981394781375462 11.381073709009417 10.804980102410854
Zr 7.993656164906636 8.437491811910856 11.817020766169835
Zr 10.8293680491553 7.562736596838473 11.281089944309436
Zr 12.112366235551361 10.090553863149477 9.993438824441263
Zr 10.339675528482033 12.511047875266835 8.94340972361065
Zr 8.198174095015052 6.637339452524563 7.437304073632602
Zr 8.70187280122913 8.996202348736647 6.381903204840257
Zr 8.119733218417869 11.39986619556607 7.677951964157848
Zr 9.45858291020758 9.446676342476353 9.452403749668992
Zr 8.635368502729152 6.411920025440414 10.019152805052427
Zr 10.967541029559838 7.5394104074851676 8.139597800425456
Zr 10.946063476162367 10.50499038937626 7.123815443164221
Zr 6.810717403481144 8.846481356689498 8.922110104429525
