10
Energy = -64.17623934 eV
Zr 7.637026920925862 9.081775101966045 6.742677255646374
Zr 8.008618825534525 6.3735502231777295 7.406340336606419
Zr 9.312242867859046 10.950286290253546 7.636850057707269
Zr 10.264965123765933 8.065643744065257 7.994217404222159
Zr 7.736615758613963 9.454453850682476 9.638223699506433
Zr 9.652725063236625 11.684459567644943 10.519116922511001
Zr 5.917757549030399 7.32587183171236 8.703545801668884
Zr 11.64378022017604 10.472296166199135 9.176720037456876
Zr 10.205962077616496 8.778369800178755 10.93842431959973
Zr 8.545382435659652 6.738370266537633 10.168961007493396
