11
Energy = -71.69660366 eV
Zr 12.149099738008413 7.645365906965879 9.793791065401265
Zr 8.2000860602173 11.859846190946259 10.238016137358334
Zr 10.894075499625378 12.142971237922419 11.154071876311013
Zr 7.700052491280327 9.383570282325552 8.898822198994017
Zr 9.86997692109861 9.296070242632519 11.006805996643807
Zr 12.679557019466325 10.454364771880643 10.12019959897991
Zr 9.84762594680458 8.011435626499367 8.106156691065028
Zr 10.27931770962017 10.942099740080216 8.412792586310067
Zr 8.828555721217771 11.28822777176826 12.958071191370136
Zr 12.496196220881169 9.119865103626307 7.519682116031706
Zr 7.000906609358387 9.709139992955286 11.672701216376387
