18
Energy = -124.8833962 eV
Zr 13.097427406842735 12.024919840157285 9.349658900146457
Zr 11.774094516579718 10.956911813087883 6.998292100085907
Zr 13.655374761153501 12.249555485762642 12.53158827789413
Zr 12.633901484492677 9.063172628767349 9.288576327469277
Zr 10.677338895069669 13.34691656272122 8.269952133080807
Zr 11.543108496064791 13.61164290172584 11.07713820093695
Zr 10.17136157706676 8.669831530474793 7.505630817763943
Zr 8.807778162990816 11.304790623502509 7.231381071163222
Zr 10.26061182180671 10.792336893325933 9.549222157561282
Zr 7.82918982397851 9.249464691725283 9.147608080688455
Zr 10.108451115652242 7.793158858024967 10.308188885329171
Zr 11.514290516102173 10.457212321252724 11.911662457865278
Zr 11.05187543886216 12.902995824475767 13.72505718657758
Zr 12.359699484335414 10.445879469466316 14.55311195946331
Zr 8.84481764211107 12.282027401195878 11.626313042564425
Zr 10.826652694933376 8.147978348796396 13.379904278826812
Zr 8.47681462746401 9.270311849612538 12.057719004266614
Zr 9.4728815831361 10.63823907424958 14.232989169302385
