18
Energy = -122.30995485 eV
Zr 10.707842624350892 14.189959323217721 12.872484096904632
Zr 10.528824430062041 11.25486451178858 13.108118356563796
Zr 8.647220205657785 15.14933220620601 11.140287690345
Zr 8.410019015396607 10.088829681325977 11.723109986172119
Zr 13.897094419246178 10.591359856055776 9.380656672437263
Zr 13.227777294259978 9.69572624128437 12.185338775276895
Zr 9.46366969456938 12.50422771589695 10.296464804214423
Zr 11.232897182026967 15.01139675550807 10.083338558025615
Zr 15.234218115506904 12.012428412414588 12.092740259360571
Zr 11.039929341756812 9.996892613518268 10.2099137642176
Zr 10.546035707509503 8.488298671050355 12.79783201815232
Zr 13.600336161884313 14.742638077743019 12.17363805908515
Zr 12.625256429653827 12.550427016156876 10.865790626377187
Zr 8.01602533690831 12.9377626592268 12.805622851927742
Zr 11.68311140416851 12.239266291064814 8.275499874134548
Zr 13.073904294667658 12.419425912306378 14.049816425259653
Zr 12.34848206664038 9.699402354271283 14.977814131134293
Zr 15.037812920818851 10.355724598712946 14.34011313098883
