16
Energy = -112.4291618 eV
Zr 11.019983195259003 8.664965902270058 11.010723959193843
Zr 13.318457023527907 11.2004122830423 14.420317335220583
Zr 12.21570601454527 10.17526252305015 8.989003550802241
Zr 13.797636467808255 9.543205936342321 11.687674869835906
Zr 11.403955937582458 9.307074006064232 13.688219020484503
Zr 13.500073666560295 14.356004544250181 10.899391507008746
Zr 10.398119167152462 12.397636243421447 14.122930068600969
Zr 8.943883375763173 12.879396046105517 11.408028290740866
Zr 9.537182118601988 10.799965964789862 9.60817850161771
Zr 10.933206107105281 14.6978071041732 11.984560133374192
Zr 12.948050669040972 13.910932631720357 13.767971758355172
Zr 11.293111496037302 13.189300573771659 9.253621923092966
Zr 9.043925737157453 10.289422889386524 12.480461444876545
Zr 14.239438299760502 11.916209885227687 9.697674375615053
Zr 14.933548121113725 12.239750398248262 12.37975095861688
Zr 11.834872369414734 11.703097573865996 11.69569511422791
