13
Energy = -89.13110149 eV
Zr 9.423591653963681 9.427335116253193 9.421215388516512
Zr 9.412014400547372 10.972010785829724 11.945100643257286
Zr 9.45260915547098 8.039247591030659 11.844343350477404
Zr 9.408082913626602 10.8148551249886 7.0015041015539365
Zr 9.385180209225268 7.883419472241764 6.908023162790173
Zr 10.976621157670074 11.781032885084409 9.432104215323822
Zr 10.886281223945547 6.987988586038761 9.377415449508478
Zr 7.964848396411057 11.869049484818202 9.48162433235756
Zr 7.883464986112461 7.059008638283992 9.405790352661429
Zr 12.052078031968485 9.40999539531502 10.796658826209686
Zr 11.871175408854793 9.342031013908832 7.834180155387776
Zr 6.961919242771214 9.50139421282784 10.996685603057857
Zr 6.807242647286773 9.397741193378879 8.040463918898078
