11
Energy = -71.49255325 eV
Zr 11.902146990311511 8.40168193235295 9.702475113551866
Zr 9.461505118994403 9.459044002526195 9.449402787838634
Zr 9.197929280982692 6.940960009650229 8.63451124662156
Zr 9.244855276437567 11.983918557619111 8.618207424733466
Zr 7.322006620834052 9.47351361475278 7.863718129461708
Zr 6.930163724254072 7.8128144454955795 10.182460702622329
Zr 11.992104856762737 11.116885140862255 8.743759919187887
Zr 10.46412064324049 9.446250456882803 6.978324731777086
Zr 7.510764740594034 10.526818091437466 10.929422675455307
Zr 10.699017173120373 10.932532513283254 11.311480494549546
Zr 9.376096773897917 8.006292633997736 11.686947674485427
