18
Energy = -125.85200246 eV
Zr 8.882296801404028 7.586995415561459 10.316918729102879
Zr 7.5807388536277935 9.177966104786389 12.060038426713245
Zr 11.577344051324703 7.256841073449454 10.219085298025698
Zr 10.322379088773001 8.430493010817766 12.898370332375002
Zr 10.229273545155234 8.617031233612211 8.040686953896211
Zr 7.989336821024426 10.203734802815472 9.190065598334934
Zr 6.655468124408403 11.662935754371887 11.35033272727612
Zr 12.969058631455063 9.532687102984053 8.767080229943032
Zr 13.154333116822993 8.726988108604514 11.83802512242002
Zr 10.756016119138634 10.220707920669517 10.58600542541352
Zr 10.47030308962187 11.489179808523803 7.851404019524122
Zr 13.751497618580002 11.285515966290339 11.152859398237911
Zr 11.941299492455158 10.905371172779715 13.319317057510112
Zr 9.16974637629404 11.55280846486167 12.798984070611551
Zr 8.738138412557204 13.010225030555876 10.044260147789295
Zr 11.430309743986081 13.148549134928826 11.415033594167664
Zr 13.00475325246436 12.517315056094398 8.872890631647754
Zr 10.84896281464938 14.260819473821272 8.743677555829622
