16
Energy = -106.8764147 eV
Zr 12.863895836585854 14.269530942732292 10.326447086450626
Zr 11.43627968967202 14.53858156409268 12.879419119315727
Zr 13.762107807712535 10.742562825175387 16.53927278718945
Zr 12.455922952011715 12.836747324356972 14.980064652942866
Zr 10.407172479457097 10.115089413261844 11.240375378656102
Zr 10.01910706171028 13.07575940599385 10.718364490989558
Zr 7.811314695308005 11.169342986743093 11.415412155842965
Zr 14.486962390679262 13.099173213133788 8.24346447942333
Zr 9.863877755269142 12.073268055823064 13.50289494003472
Zr 8.912951594398907 10.99328419128418 8.990780055003967
Zr 12.531245284250547 11.758225945278758 12.12445077507098
Zr 14.325164583476646 13.967738315012442 12.924935114959505
Zr 14.99872875049272 12.116060920326007 10.665818593327232
Zr 12.023852101097004 9.986069675034903 14.446049302728612
Zr 14.726720981611054 11.163415195791021 13.997824996663402
Zr 12.019775843847592 11.69811988929583 9.100975136883415
