10
Energy = -64.93113944 eV
Zr 7.449969022529385 9.798662566461886 7.232637774352167
Zr 6.158928887032974 8.99805221268934 9.607432536040886
Zr 8.796155473980642 8.343470612535679 5.456969999977569
Zr 8.396621802028745 11.239935439750981 9.262651353373283
Zr 6.4119184384566585 7.176479128080792 7.214568519845761
Zr 10.72091776659032 7.047880227878374 9.668000367460218
Zr 8.8801999999165 8.852227120880269 10.341966135531221
Zr 9.176423490145979 6.706379392242765 7.525481036798907
Zr 10.365859524232228 9.44035413954592 7.8132218905683075
Zr 7.622284980542717 6.375838545390146 9.856349771507961
