17
Energy = -120.33244597 eV
Zr 13.936784696771715 11.746840398754989 11.027050250844836
Zr 13.066407017005716 9.983119873027425 8.656663834705437
Zr 13.352192206446414 8.728950894297133 11.164716803669776
Zr 12.898496751949287 10.104029038483105 13.43270166387797
Zr 11.2373372053089 8.057204533282224 9.473109318262836
Zr 10.073938405766057 10.548031863438121 8.00725373887852
Zr 12.124913732786428 12.807825021347805 13.30117650711305
Zr 12.327469057175184 12.569100027250151 8.52192624400086
Zr 11.861008630266547 14.024614918252755 10.923158346055153
Zr 8.727915593062704 8.785044979241023 10.116120465653326
Zr 10.60460592686215 8.2578607925927 12.491915092245145
Zr 9.751892862029516 13.334297796743261 9.266978542726745
Zr 10.291524008176175 10.880693201789356 14.104294638967476
Zr 9.244074018910135 13.141338627426931 12.293476662746274
Zr 10.973461046841672 10.917911675834269 10.957890692799907
Zr 8.240681987330357 10.222530786237634 12.507107115712687
Zr 7.976410585656232 11.47973967758087 10.038510561538562
