11
Energy = -71.56428298 eV
Zr 8.170177642103456 9.321259333758919 11.099589263320448
Zr 8.171429767757799 9.316310298266556 7.865629680725779
Zr 6.907894850452462 11.405928328496747 9.47959890410978
Zr 10.117219462710343 7.706999582228403 9.485484058328792
Zr 9.672904642527536 11.354046426355254 9.480251735679602
Zr 5.63891731193555 9.013776787539092 9.482135643748984
Zr 7.440718479656004 6.996801002727511 9.485288190354973
Zr 11.219123402158107 9.701862118529071 11.297011205613282
Zr 11.221101881798294 9.696607552265693 7.66970797470371
Zr 13.043063947872776 8.513588347016139 9.485823748722416
Zr 12.709953889260548 11.285325222816628 9.481984872924704
