17
Energy = -119.44139927 eV
Zr 10.948973135425941 7.963119356636489 12.501418500422536
Zr 11.660667152159158 10.983293063932575 12.86979904608798
Zr 13.062275516956651 8.864488511093855 11.137900546244666
Zr 9.04303513186411 9.651005747290172 13.495837695761379
Zr 10.728331089025556 7.574182629079203 9.552198513326989
Zr 8.43989213805327 7.903564892174946 11.255446642343625
Zr 13.213110585578214 11.657974747761678 10.503049418010523
Zr 8.857896989435012 12.259353353170757 12.453011881267104
Zr 10.654298423962885 13.282077474298834 10.391706326614122
Zr 10.238960046088835 10.37108436973138 10.441614555291002
Zr 7.0142907081023225 10.310137403623827 11.417076515786128
Zr 12.160929266753651 12.251742132960606 7.975701855089409
Zr 10.971666595842665 9.685463829186665 7.514337636253437
Zr 7.817470623150013 12.376031739173682 9.807134278930224
Zr 13.59956039926883 9.695922440674394 8.538043123628317
Zr 9.458312138085306 12.094424826142745 7.745586350244984
Zr 8.22704576303357 9.427522648597652 8.664231589057533
