15
Energy = -103.16706469 eV
Zr 10.648497196150295 12.556606687766097 8.651568886338522
Zr 10.356572456604415 13.492858451162132 11.81895302027091
Zr 8.192052064649529 11.830613953424917 10.263376371910814
Zr 13.041137962438926 13.085403893901614 10.585177671178032
Zr 13.43060778489843 11.649664889419586 8.391244573062652
Zr 11.924299040623035 9.498632408004076 8.202758467065717
Zr 9.185849782517247 9.659434037153282 8.67883282252434
Zr 8.474718570796659 11.352447187186264 13.019768215646053
Zr 10.87963815661524 10.905330818855317 10.912282092407649
Zr 13.488762402605492 9.845856104180758 10.858802724006033
Zr 8.480204767454774 9.07770509520581 11.399737214711774
Zr 12.926252376577585 11.830633335389065 13.013522456702399
Zr 10.660866085745049 11.865103182159869 14.392187185016667
Zr 11.198790464850257 9.256987126587868 13.171381401583172
Zr 10.979187034137933 8.028109329574681 10.435009423059242
