12
Energy = -79.58620346 eV
Zr 8.727982492388987 9.20631171923131 6.036012099627092
Zr 7.607469611507199 11.380766268792804 7.068073856733185
Zr 10.349778688682202 7.7812711479566525 7.579252601278518
Zr 10.295944369179418 10.679854668505888 8.064569402793314
Zr 12.341300891122234 9.038432008371212 9.418774399979577
Zr 7.828675576617824 9.020144926471888 8.839629277295536
Zr 7.911638749744182 11.839101858919113 9.657837137863986
Zr 10.359710666339218 10.835059081988303 10.96586452485554
Zr 7.7572208320391285 9.69439638609272 11.715560042069558
Zr 9.896956224999697 7.834751986601634 10.495602218645466
Zr 9.823330366091046 8.98552672652841 13.210640017881436
Zr 12.209893089077333 8.814284778328535 12.05808597876556
