15
Energy = -101.79275629 eV
Zr 7.572425541639673 11.154101135373528 12.127121486082213
Zr 8.447497303190197 13.204828583036226 10.349093869686486
Zr 9.922198826661221 12.144795900290688 8.104541077816442
Zr 9.479501684898024 13.05362659984071 13.098876287652192
Zr 8.437561994827634 10.315557304901589 9.573526631123414
Zr 10.84671461106081 11.572359441024107 10.937729337859059
Zr 12.714067223580583 12.387572654493313 8.75180754605132
Zr 13.689806513311623 12.256704595618233 11.46610090284579
Zr 11.225438100023089 9.640942155692901 8.601646919474321
Zr 12.012865633261274 11.763464683585395 13.742643159282373
Zr 9.852813943409789 10.070306738792238 13.399308740090023
Zr 14.065709099087156 10.098623776010603 9.669255947366732
Zr 12.577049337513245 9.40770513521875 12.255548953068715
Zr 9.914558104081582 8.352833810986828 11.088517786143827
Zr 12.614600745830327 7.704248217499695 10.05612653342417
