19
Energy = -134.02937683 eV
Zr 13.40452688243864 10.480068658629683 8.167705704679008
Zr 11.50160636825362 8.503194633911813 8.550719074142307
Zr 10.573856454576736 10.916502202652312 7.6816536941505955
Zr 14.625274201714717 11.720352104767324 10.441007099060332
Zr 13.345100527559248 9.083569725826049 10.854758734909046
Zr 10.831622182259597 7.5833833946841285 10.986887477391424
Zr 12.140095960241238 12.894395396124999 9.297131666209891
Zr 8.725069747309178 9.248084923675496 9.225305935547002
Zr 13.221836814948885 13.724353570914921 11.89730968909289
Zr 8.89598024834638 12.510663020333224 9.299427040732018
Zr 10.672184199700235 10.770897725980634 11.01092773359044
Zr 8.744437443510877 8.533689266804252 12.216494445438766
Zr 13.518786221939932 11.123960293878866 12.927605632952966
Zr 10.523269248952376 14.308640853950891 11.127800680695527
Zr 7.389361681161575 10.796702799303933 11.218244385246804
Zr 11.426119984338584 9.244588934386643 13.434501689385142
Zr 8.494295639843457 13.100551804926823 12.212473380667838
Zr 11.063657345687748 12.499647580310274 13.58408236558866
Zr 8.819088256666745 10.749906011038632 13.783519368589014
