19
Energy = -133.03980701 eV
Zr 9.253733667845983 11.6229030840471 12.80992850745757
Zr 15.026632677837112 12.664381312594847 13.292285976977531
Zr 13.304990792720512 11.395789583703275 8.904955321340845
Zr 11.30620542922611 9.299856759626278 12.837788311993908
Zr 13.565870811880739 13.517113746066332 15.603927652158362
Zr 14.194521733931053 13.941175562504466 10.416170134047869
Zr 15.22476710688686 11.23840258934271 10.846740741274651
Zr 11.574826658924913 13.307698265852915 8.894436550357426
Zr 11.607328013953826 15.280325176594497 10.792102641415587
Zr 12.933605417626413 14.947517354573728 13.259593404941324
Zr 12.219558409327346 12.192638203544973 11.880962969809474
Zr 13.053674374756264 10.84993866037861 14.914006301468397
Zr 9.936133066719936 14.583410874520977 12.913513192695419
Zr 10.288312015482413 10.556802754446784 15.205629744613335
Zr 10.842994575120665 13.305409233058644 14.916084432748201
Zr 13.021688220032065 9.244964923040333 10.573950277170605
Zr 10.50599368973994 10.608328481977253 9.966793805762693
Zr 9.373272538314364 13.264393392284482 10.517772453613574
Zr 14.31030923706588 9.72336847923442 12.997776017545995
