12
Energy = -80.12849765 eV
Zr 12.240925185276463 9.746998036007723 8.177039315046681
Zr 12.420173703006887 8.613711540127778 10.822781851289069
Zr 8.453105123349474 12.245142265269113 9.934219546726208
Zr 11.681497453626493 11.484158070949256 10.621135680733891
Zr 10.63855778235495 12.210020941247379 8.037263469404206
Zr 10.430069498828994 14.092951031886773 10.248353417526886
Zr 9.715616964020269 7.6364136417857225 11.46790428379343
Zr 8.258323749093307 10.127090729794302 11.895917358315634
Zr 11.108154345886502 7.1555264188178445 8.928593951781307
Zr 10.875254663819739 9.802219100814753 12.930765435105643
Zr 9.624863064987402 9.615234570974183 9.323597282465599
Zr 9.74054001122229 12.467983911018006 12.570927117536476
