14
Energy = -95.12887137 eV
Zr 10.28478589188545 13.04294728268011 8.6336353753949
Zr 8.183871842992525 11.098781842163962 8.084672575606461
Zr 10.83448397127596 10.504625251743029 7.341194160491676
Zr 11.454131500951139 10.834420200575359 10.230629360646411
Zr 8.356700263729163 12.582125839028958 10.606714655746172
Zr 10.999055703941048 13.353891407965705 11.501720272893916
Zr 11.940721117964756 8.307234290190534 8.730654334024432
Zr 12.193063088087666 11.009882906730475 12.986364521882818
Zr 9.17956499120802 8.265417074306932 7.998088873332844
Zr 12.619872114467361 8.436835892959353 11.543754910157343
Zr 9.379637173329138 11.471389858703368 12.909968369667567
Zr 8.65051124350592 9.576964773606536 10.51470831827978
Zr 10.250662860323343 8.858216130485898 12.965676328273194
Zr 10.191890081455615 7.125171303336632 10.591070232607214
