14
Energy = -94.35172626 eV
Zr 12.974914815570884 11.543580480351812 12.873466896607134
Zr 10.413896019875061 10.258342644020013 13.22766148204223
Zr 12.188426826211103 9.146552361167648 11.232835306069578
Zr 10.671610749158738 12.961030316589616 13.649806179922706
Zr 13.643015262147172 11.294478182750458 9.938161815504696
Zr 13.409663043869719 8.823521477210384 8.63671856848226
Zr 10.82260220651634 7.754112981222972 8.892266541544005
Zr 9.206284073650323 9.351052715180373 10.78985459298368
Zr 8.41298431216352 9.34853250975664 7.979245550376212
Zr 11.138626238286479 10.582610103061196 8.345802444288973
Zr 10.995597750178487 12.269067913475798 10.84738150453396
Zr 8.276390939294851 11.901499796437486 12.031443999244397
Zr 8.723031125007175 11.98728458872048 9.114754735834941
Zr 6.639860267956998 10.38265371396545 9.906461114846476
