16
Energy = -107.35557595 eV
Zr 15.198203942716852 12.108736285614532 12.246346447147173
Zr 11.709842573000982 14.463974764061202 10.857204950459435
Zr 14.616041679863095 14.501554011664817 10.552353660842178
Zr 13.03650396005077 12.025623699642765 10.256841838880666
Zr 10.90518774752669 8.796575450713553 12.310676252098304
Zr 13.60048048201378 9.793481127336584 12.504483391705977
Zr 11.969810774515816 9.391369749199876 9.816349730284877
Zr 13.266140266040944 16.643236390364965 11.674461739405851
Zr 10.681485878101569 11.48742016203024 8.425441592593959
Zr 9.103200392674808 9.349437982488428 10.054725681772902
Zr 10.050288654160626 11.704108807919711 11.030001674447293
Zr 11.551618870909786 12.317398520214702 13.27752899358227
Zr 11.7145742421836 9.8724665022184 14.84548028417926
Zr 13.773748587781157 14.353866738571119 13.26082134030706
Zr 9.078252573542988 10.446984434912824 13.427925485583263
Zr 13.887836099470928 11.664276081652465 14.761226289731836
