17
Energy = -117.62188244 eV
Zr 7.9711613771913 10.13641389630063 9.39924745336066
Zr 9.914500586800404 8.310518700839117 9.914572804717961
Zr 10.802775346158208 10.798821610173809 8.150171989122569
Zr 7.595376816466256 8.600109000138119 11.796090940838972
Zr 6.864268105323495 11.497439325456613 11.671028016500337
Zr 8.806570918178966 12.70194115971048 9.726183143840625
Zr 11.442144033777486 8.439727907894289 12.342535318503318
Zr 12.648293140755994 8.730360254128046 9.580015813830448
Zr 9.291717733142619 10.601972034329291 12.435838231880709
Zr 11.419005524965211 13.602534372991515 9.366483403826336
Zr 11.348671824805159 11.05304689164822 10.815750153338545
Zr 10.163047098102918 13.513329173154647 12.122830793077298
Zr 14.032114915786861 9.45453434526978 11.873721781269737
Zr 13.76382581496033 11.60463765344186 9.542792090322486
Zr 12.304587389424432 11.423006920792439 13.500933227136702
Zr 12.934639738946728 13.81631900673399 11.679928713638054
Zr 14.81958605462111 11.991738820335193 12.244794512037865
