19
Energy = -134.23064603 eV
Zr 13.66060414516489 9.996629939108505 9.415056147573056
Zr 13.17218334197404 10.130766012221363 12.539317915343805
Zr 13.438176002369465 12.518206232300189 11.058958757992702
Zr 12.268711749136951 7.845690965878544 10.923346875483537
Zr 11.345014980048736 8.228356524268793 8.398768333279433
Zr 11.666477305961315 12.637502531146623 13.071097640177292
Zr 12.659501769996773 12.745228805793756 8.53575447391704
Zr 10.635111408988644 8.655651852798002 12.927982664459533
Zr 10.525429197588576 10.749461957859715 14.654424948105175
Zr 11.606870082132222 10.571592097083913 7.191116640503898
Zr 10.852044623893711 10.752728176011518 10.356030971371545
Zr 9.35732222392789 7.758591474377273 10.380612566818138
Zr 10.653561334104122 13.812709427465109 10.63145131050084
Zr 8.123057500816875 9.348880036793604 13.571110701182684
Zr 9.931429676193817 12.707072161504676 7.942068859245209
Zr 8.815638511106279 12.12296522195548 12.592704095961032
Zr 8.805523573484864 9.880627351650547 8.2243513864365
Zr 7.613504929251747 9.93809557351948 10.951049167495052
Zr 8.111710018968667 12.34053086137774 9.842448693318604
