13
Energy = -87.95914287 eV
Zr 12.063385383658135 8.23810913209594 8.621714937191241
Zr 10.092145737416704 6.332084576841219 8.44491972441205
Zr 10.283916668136571 8.281192087673702 6.274577413555578
Zr 10.256490095630504 8.339033576529307 11.091933920151927
Zr 11.479153663714603 10.662467583840936 9.605823738226825
Zr 7.7113144814051084 7.0499520157279685 7.015572076740532
Zr 7.533981928481555 9.839593046286575 6.339533295308228
Zr 9.028928325427199 9.172179407114239 8.738332832540202
Zr 9.338135160865491 11.262465330908647 11.097875235106011
Zr 6.008824738394591 8.902050604158772 8.587985306364073
Zr 7.654019029456792 6.870597156211817 9.98788548588081
Zr 7.291263584929073 11.511099890624015 8.998037407091397
Zr 7.200853032973985 9.523779560688494 11.144362955422265
