18
Energy = -122.24572483 eV
Zr 11.568310349212188 14.626590272330924 10.552302214667279
Zr 14.842951595518684 10.10877148059134 10.36641981458155
Zr 13.820432197754185 15.874877680900704 12.125368474360691
Zr 12.09417924557711 11.681381070317606 10.255542206245375
Zr 14.337754193468303 13.423443453740374 10.576209015720272
Zr 13.688507972617762 8.195733413525199 12.993839779886333
Zr 11.637265186158498 10.26786017556609 13.647030851555131
Zr 9.23713213690989 12.799912174829132 9.98191208070499
Zr 14.213522203074545 11.127864820544493 12.67066868494477
Zr 15.73120553223768 13.802855396128663 12.935437419884622
Zr 12.875578142422846 13.569867576911827 13.329386411001424
Zr 8.80521041807151 10.027348709108168 13.626365217242801
Zr 9.781012880492112 9.929881450131205 11.070510483545917
Zr 10.662366863298535 7.755558059801414 12.950688094543683
Zr 12.27019035938967 8.860685887183289 10.775334102882981
Zr 10.197608132401701 12.716862084290465 12.676298553803722
Zr 10.828967407632174 15.682855724971061 13.173373265672367
Zr 8.814852056537005 15.021498576898223 11.51804895744065
