18
Energy = -127.0446227 eV
Zr 11.75905476210479 10.06998556606878 7.217440409205113
Zr 9.415286578967924 11.803318042326001 7.048332633714243
Zr 9.096172849272346 9.177100979744393 6.675696447686289
Zr 7.8986240289348935 7.6447820488314715 8.560198520879073
Zr 7.0785101625760385 10.465108059454428 8.628958697227583
Zr 11.523390091800243 12.496514341156004 8.931676153855877
Zr 13.056801880279991 10.252412561946466 9.743983211721591
Zr 8.728468286091092 12.960957090563008 9.356916323484533
Zr 10.842320805606994 7.343526455632571 7.986607744819742
Zr 9.862514093669711 9.86017263392253 9.854917310942591
Zr 12.160274046431407 7.701541544181398 10.623320677451407
Zr 10.348400872247549 12.55382582118072 11.667066359084991
Zr 7.532433392660358 11.547774511536756 11.324404425853738
Zr 9.5434833981741 6.570934265452531 10.41388933452005
Zr 11.929741067726278 10.12395024142568 12.353650779122972
Zr 9.18512023415287 10.366746024901794 13.106556677605312
Zr 7.397534952434354 8.621836747077621 11.28249583587134
Zr 10.089348409842582 7.886992977571073 12.67136836992634
