10
Energy = -63.95301215 eV
Zr 12.894115480573198 13.510873073919964 9.310150177461894
Zr 9.09691245751199 10.080204946014431 9.582073458012268
Zr 9.482006916799463 11.859447254230414 11.94141375398636
Zr 11.038323580471952 7.901070077817919 9.319525232286129
Zr 8.24383454157535 9.56466224937901 12.360531163623532
Zr 11.147942213366276 9.394636026470588 11.82775529799454
Zr 10.270276562392166 12.927000613114942 9.38045579080127
Zr 12.313112108909223 12.260174138033758 11.610730993686738
Zr 9.042956272519776 7.396033210028595 10.981287271010347
Zr 12.018531271418096 10.651382863294945 9.239187283478419
