12
Energy = -79.73698816 eV
Zr 10.348326985710527 11.665369970189321 12.517613988883179
Zr 12.675820719601553 10.648920457593327 11.295910898504419
Zr 11.394491724832339 9.063700735613333 13.427657682980493
Zr 10.64537950265198 12.000777446189078 9.553815754475416
Zr 8.575347363536455 9.733196339529995 13.327173084521208
Zr 8.064142299361041 11.32083450611247 10.73807267371301
Zr 10.048851009666807 9.021283409359238 10.899834507814884
Zr 8.28505826661569 12.409849795114486 7.810017894219555
Zr 12.750827901968641 7.912399881773133 11.145715185851936
Zr 12.01176993757938 9.582861613170996 8.660237293176225
Zr 9.026852619288666 9.754751735333405 8.368094876028108
Zr 10.483327265906526 11.431879116213382 6.650407377089897
