12
Energy = -79.28610649 eV
Zr 9.845202256807077 8.678445184816884 11.782994370053231
Zr 12.914171109076557 12.227888473529061 12.816714416435085
Zr 8.421521012509858 10.117503592352012 9.686457787279384
Zr 11.260538810798325 9.371573570362422 9.337050160243935
Zr 10.655733005975465 12.341446339796196 8.65494640557329
Zr 13.219220569304047 11.37009651179662 10.042788209801355
Zr 12.370439859356258 13.920286675330516 10.586511373616291
Zr 9.774541962029542 10.228375211385112 7.149440613168892
Zr 12.50779864664967 9.515163457721995 12.099346009399639
Zr 10.418157258060065 11.73737018336813 11.343783396804698
Zr 7.933622791274286 10.608647133679144 12.434701503923582
Zr 10.468804850525117 10.636750068849972 13.893780424326422
