15
Energy = -102.0382264 eV
Zr 12.910226179648072 9.769577896965162 12.38277023274981
Zr 13.373401733014456 10.419647215577093 9.683300488739258
Zr 10.238381461054962 8.802835659356905 6.617924901086103
Zr 10.1499026084632 9.085835099003946 13.259044403733398
Zr 11.347976533776485 11.68759465164912 13.873546411644435
Zr 12.906723624636179 12.596156608748654 11.620649620620476
Zr 12.773565365860645 8.99094506927014 7.14544028589054
Zr 11.089590152733955 11.208466614119226 8.076791766609482
Zr 10.975549408389464 8.614592604414794 9.517780225136253
Zr 10.077399647922093 13.60890492521904 12.109178594855587
Zr 8.47289548886188 11.486445213269299 13.266642230252268
Zr 10.50037616430469 10.947272767299578 11.005831522679264
Zr 7.914816481837747 9.422378973691435 11.33160669812746
Zr 8.486711463701745 10.06846802751161 8.658172692687375
Zr 7.8597194498319425 12.241861722938395 10.546626468096889
