14
Energy = -95.64213935 eV
Zr 12.05050782704715 7.615863730921985 10.213815928096938
Zr 9.506008694768557 9.457896519975383 9.69538085775249
Zr 9.769909827321179 6.371129745396867 9.128502927517076
Zr 7.838610418144057 11.913707160725185 10.65646631688261
Zr 7.985374863769864 11.53152391878221 7.830057221700306
Zr 10.529608746285996 10.637795437561403 6.9342655343869275
Zr 8.312697668122174 8.511300442738456 7.314864420517423
Zr 7.276096893027449 7.261689839938223 10.047968188732629
Zr 6.350956537407777 9.830994199987014 9.345257832548171
Zr 11.390671636154991 8.054507378664312 7.529263543844064
Zr 7.2826092966879115 9.345606005139299 11.946919782350456
Zr 12.418006009463966 10.284000096275303 9.04134760753288
Zr 9.513288236247968 7.284656666493703 11.812679779702902
Zr 10.348095345550579 12.471770821327798 9.075652022362403
