16
Energy = -111.8490413 eV
Zr 13.233686726794087 13.330474297097657 9.278177526929024
Zr 11.292461674168509 11.314005046663015 7.901739976291024
Zr 13.536168242202896 10.670533228798888 9.701135448677844
Zr 10.276958081704738 10.245105035938881 10.607219560042743
Zr 10.612501946745514 13.566308177097614 9.918215681653333
Zr 12.191344554948898 12.21638569103104 12.005431656555256
Zr 11.694820986998057 8.348453900373212 9.259047377474221
Zr 12.939212604107546 9.323347796099737 11.955715740624239
Zr 9.027826608580039 9.470991854818998 7.974402635245552
Zr 8.889767280547414 12.190951761135379 11.94624258343777
Zr 10.719007997030252 7.6230349495836185 12.185945480528645
Zr 10.769852060554745 10.232142037031908 13.59201586778946
Zr 8.728004566365863 7.664786122060796 10.16350052232212
Zr 8.579406253541503 12.174168999495278 8.841872787702062
Zr 8.302179626104941 9.15686825213966 12.644751185090975
Zr 7.213299049395981 10.145086400330369 10.215384565558283
