12
Energy = -79.09198205 eV
Zr 8.86642948603441 12.245799411830959 6.270928314135543
Zr 8.452930562783896 9.412197850775273 6.341174501415898
Zr 10.930739439479627 10.775516323278572 7.096524305186052
Zr 8.14486824386505 10.911173047736947 8.662023026627448
Zr 7.4907642729558885 8.104027030806778 8.965859290401264
Zr 10.249873886214672 8.5164290067748 8.591283392529466
Zr 11.618952395562145 8.695266687805432 11.06449006200303
Zr 9.292689706977765 6.8585222324058455 10.908017634877472
Zr 10.758509118180259 11.358045360732316 9.994373603122982
Zr 8.652043929080506 9.656494796088403 11.276613766904608
Zr 10.051813087021785 8.078427024999437 13.329074122186444
Zr 10.829979308547683 10.727694663468952 12.83923141731332
