18
Energy = -124.83622425 eV
Zr 11.52320874020905 13.06367036928262 6.823098348489473
Zr 12.754122999615056 11.308937473470655 9.044536515223552
Zr 9.067778531396415 13.703864476516188 7.420009907624713
Zr 10.897930166975806 13.256594451078982 9.731943663476782
Zr 9.886547831870322 10.928800980703022 8.049931469511822
Zr 11.936944725359583 8.627223270600117 8.613781796286483
Zr 12.390587524068584 11.756466018865776 12.332130317414862
Zr 13.600663298383237 9.441987849404443 10.885772300881161
Zr 10.411421237802355 10.393243476257046 10.966445262506817
Zr 10.044926700264735 10.776047297136465 14.01793680327081
Zr 8.087147630804397 12.181086462324686 9.91803559517452
Zr 12.844461732082047 6.841144487562596 10.780042170717373
Zr 9.571492765016956 13.055426341369653 12.34902350559603
Zr 10.22935822695349 7.221207289333186 10.81023737491649
Zr 11.863428193020676 8.705640701454369 13.121158155785594
Zr 7.630658241202933 10.867816647895491 12.382134786504302
Zr 8.018347174591339 9.077744945454656 10.073858815687604
Zr 8.883162295949477 8.399630110705113 12.855711875901017
