11
Energy = -72.25146727 eV
Zr 10.826809223014893 12.620394347652748 8.692244152248332
Zr 11.23366203070734 9.91677184865996 9.740689819443261
Zr 10.050136586947934 11.952583242174246 11.229911238464029
Zr 13.196427447514859 12.21376747795152 10.157140631920761
Zr 11.264465244439263 14.442537679998289 10.956837929196956
Zr 12.812218230659182 9.862319075697568 11.968839322796674
Zr 14.749579385536903 11.527856537275573 12.707446176655397
Zr 10.218443718824343 12.934375382668367 13.818367809575891
Zr 10.214650499414455 9.81331042491862 12.978848004029102
Zr 12.824137725070965 13.35773941971484 12.90418430834214
Zr 12.308893575967081 11.057768231385205 14.54491427542493
