14
Energy = -94.62094087 eV
Zr 9.353796706636025 12.284297151659047 13.4435919704812
Zr 11.957707350585704 12.493539478236832 12.161449881243666
Zr 11.149856721933965 10.007165437122373 13.38087560452282
Zr 9.741633901986814 13.886825302250676 11.047028308526071
Zr 11.865215347769894 12.598509365893312 9.370824670698434
Zr 12.488332312564932 9.964023912793072 10.568768234077757
Zr 12.29081990905719 10.181411409941655 7.553231762962633
Zr 11.12378083571129 7.94621416723862 8.983435282212115
Zr 9.557745314608082 10.949470650199055 10.934366748303866
Zr 8.325404718166187 9.504692559461587 13.029367148692263
Zr 9.675553039512543 11.066497694264307 8.19526058826779
Zr 10.309038155844938 7.993827391527971 11.633921060624818
Zr 9.819724102350504 8.742806176846955 6.733739714175131
Zr 8.357209499562394 8.596426897894824 9.4400288677826
