15
Energy = -100.36825433 eV
Zr 7.958859895690126 8.22055712874409 5.392110880114371
Zr 9.318582921570416 10.815933215822358 5.870027368224956
Zr 7.116967466819301 10.056947255652917 7.300618825792311
Zr 10.163954766460721 8.759581346445374 7.421070748273406
Zr 8.4301296210378 6.736119075296487 7.85290094156255
Zr 5.765952166799511 7.514346590277107 7.707724674704709
Zr 9.431652997250957 11.053887078403646 9.091986216787157
Zr 11.98265916782259 10.249000902494288 10.106952390800652
Zr 7.024410919231327 6.450196982092902 10.183369261799614
Zr 9.886972786768322 7.960480839006908 10.297106244660638
Zr 7.244194549303469 9.127482466751664 9.82681618507851
Zr 10.932493973717104 12.724176021860737 11.175511870252338
Zr 12.06156003985015 8.471723416753477 12.389964931970727
Zr 12.409433845833261 11.143283267884506 12.829854317530591
Zr 9.775961890588404 10.220071421256861 12.057772151190811
