15
Energy = -104.76823073 eV
Zr 6.993706514324696 9.281629407437999 8.380471376429188
Zr 9.296909291119654 9.750159966718282 6.660217893657234
Zr 11.805225933640845 8.79361402789967 8.102248948358634
Zr 10.624393799593781 6.995019386454601 10.430685715162316
Zr 9.957267257441778 12.814549632483075 10.210363590279423
Zr 9.369429008503039 8.53075100470522 12.616947320853166
Zr 12.354124790243572 11.13896136449964 10.171491422640043
Zr 9.67948032050346 9.787527957298844 9.726558101210564
Zr 10.989924937242172 11.711256088169996 7.726268013675782
Zr 7.7534805603245935 7.538126940026683 10.54525489796992
Zr 12.133868411309182 8.906732281354754 11.994804144587278
Zr 7.6903496594725205 10.717960247963306 11.130503256665108
Zr 8.087670222153882 11.899533139169188 8.211165641214626
Zr 9.145999724392624 7.302611163092892 8.006430786194139
Zr 10.482930841891118 11.196328664881756 12.451350163259212
