12
Energy = -78.36541155 eV
Zr 8.835010009892699 11.116404522286528 10.425179814223643
Zr 8.602860585912708 6.369251992329284 7.0410173564826115
Zr 6.319352057895952 10.45759784647165 8.708752197302104
Zr 8.745654333811036 11.321086298913926 7.343415067586616
Zr 10.37183274111096 8.373936630061047 11.31363016616623
Zr 7.581580166542754 8.82463321773585 10.732902894937029
Zr 9.903362113114966 8.68159889924293 6.718007141019816
Zr 6.510308582894678 7.4322675546393375 8.47822967958098
Zr 7.120253290735774 9.045229162322496 6.188953620221612
Zr 10.938995594744968 10.007130028310172 8.999199240093063
Zr 11.12872422838957 7.033832411871899 8.725715494294173
Zr 8.741348331026588 6.136313399742233 10.124279183801143
