16
Energy = -109.47128652 eV
Zr 12.839808435117444 11.000715263096188 12.859894966717516
Zr 13.385704521833613 8.659593539112432 10.84079288281669
Zr 7.769301107563572 9.987822156013294 12.17991531018557
Zr 11.185024581129573 8.146093725194675 9.139494149735302
Zr 10.587257742305438 8.751976234357766 12.088619133731395
Zr 9.917948250249571 11.287332328891328 13.42534823806087
Zr 14.663145379886462 11.100578043045477 10.448139745320011
Zr 11.10862528058838 13.509657055809075 12.393493179188058
Zr 7.636989578526085 12.833604138361704 12.336436819513743
Zr 13.367650438701453 13.343322235782992 10.96856527835023
Zr 11.60518619644776 10.980159551902075 10.311668814148357
Zr 8.627737521986502 8.982784851997708 9.748744064179018
Zr 13.187090502343397 9.862497829917297 8.157319355723436
Zr 9.234289737164326 12.122650933544584 10.322819765366484
Zr 6.720717692060558 11.23469389411381 9.832500910679336
Zr 10.013440957235108 10.485885955985305 7.780703531710954
