11
Energy = -70.20444938 eV
Zr 10.369474433776004 8.451821007924961 9.377771354645104
Zr 12.815958607727238 9.491443580006868 8.635754816488733
Zr 10.4186495814035 10.160254240882356 7.132475469735405
Zr 12.70763541402625 11.655736715629951 7.010568979522149
Zr 11.071058678575179 10.037145423899457 11.818457106594083
Zr 11.33830735984188 10.11010183789775 14.790180466856649
Zr 11.074158221104414 11.621846018336525 9.547032252884518
Zr 8.509126206685218 10.162735770286387 10.16135731870713
Zr 11.086978518464056 12.473291565873595 13.352256384463187
Zr 8.913714058506908 10.62096131921569 13.726977698650229
Zr 8.931243443751855 12.369911318169548 11.580444255609084
