17
Energy = -118.2692071 eV
Zr 10.215212485897347 9.818186378147304 6.786154806880947
Zr 9.076320798898559 7.572067652920677 8.402239164186938
Zr 11.795495078194968 11.760217368713873 8.483343314881646
Zr 8.935062712974547 12.344145889928406 7.637541068973497
Zr 9.507984301954973 10.217590064751144 9.599279023048625
Zr 7.362344684314158 9.825163081792027 7.59298021995579
Zr 7.078265419866162 8.789377448499087 10.365263354208963
Zr 9.556950696921671 13.090001978873428 10.387833038933243
Zr 11.387902689575998 11.289641307931022 11.618480896558522
Zr 11.938008227936217 8.6710608454318 8.854071070498144
Zr 9.714578266755057 7.705491625435921 11.216312244384039
Zr 13.847456123955189 10.372107011646436 10.359500471196384
Zr 10.469329259868141 9.394939587629864 13.664470875225648
Zr 6.989296790355251 11.715707618807572 9.764541979616922
Zr 8.405826537096518 10.95753955292839 12.252871151554018
Zr 12.374741839235755 8.233284674857996 11.737253216942738
Zr 13.32970916181998 10.227962987324794 13.26234917857431
