18
Energy = -127.22795967 eV
Zr 13.286333577686053 10.311940792648999 11.118526895348701
Zr 13.941975687819948 11.75063936699638 9.036364497575919
Zr 11.875022504073224 10.661666168218714 7.522157993102255
Zr 12.386413657423924 8.218532004901284 9.077841278719646
Zr 10.007227630752269 8.679437395913757 7.599185047856898
Zr 11.447981368359342 13.004899105593816 9.00292213270499
Zr 11.580138391754515 12.720919255582434 11.921669942222767
Zr 11.49405399738344 10.322973061496294 13.327423096705
Zr 11.928476515973378 7.906682787898946 11.80492031890343
Zr 10.167432168210382 10.210953670889541 10.394925487700476
Zr 9.557361222001237 7.197911280214301 10.165441966459104
Zr 9.454852356604524 8.43141443224698 13.005881929336208
Zr 7.6316024741604345 9.066302577622093 8.781685846992774
Zr 9.17705288276663 13.246532634813798 10.501214671408327
Zr 9.055681404065892 11.627626127030146 7.856841186111777
Zr 8.788212395807653 11.444148001511318 12.86088761827844
Zr 7.3701196702571385 8.980955966810654 11.531262320341009
Zr 7.198709400400213 11.442000464985698 10.295743731454253
