13
Energy = -86.38307461 eV
Zr 9.99861858821284 10.656435365433818 6.4146401635328525
Zr 11.52813056955733 11.549140864100488 8.692149572793966
Zr 9.863386821626476 7.789007310023496 6.101896425538629
Zr 8.702129093982643 11.382663182608342 8.916071541682195
Zr 10.855451720031915 8.773086582822899 8.516902569216596
Zr 7.667978644155106 9.017188063517299 7.192096847793042
Zr 10.542617431660393 10.301950328404468 10.984629127549349
Zr 6.034121150593645 10.208833939101634 9.027589893456536
Zr 8.872858736745332 6.477385145492582 8.503333435676717
Zr 7.9694386639150085 8.99188059206681 10.634937404375833
Zr 10.32653671963797 7.298388834897566 10.970176404067884
Zr 6.130802677870041 7.320872112675318 9.054197401074527
Zr 7.7870634196847375 6.166200952348548 11.09625264632328
