14
Energy = -94.33901089 eV
Zr 8.530629899221486 12.385372678764506 12.1718036003697
Zr 6.79334268948045 11.83892315490832 9.887316638814463
Zr 10.228436745586515 7.865396298553885 11.95045273570378
Zr 10.523179183539314 10.599919847440956 12.721750082081678
Zr 12.84292210916533 9.275182382257409 11.554818234290959
Zr 11.936722994886118 7.286925200321882 9.683416516326872
Zr 13.324145193641536 9.926179873422278 8.78998176691777
Zr 12.322719524864224 12.053873215658209 10.599529508773504
Zr 11.508100507381766 11.811823739700147 7.833173521921518
Zr 7.942488010920843 9.600093423604012 11.279540528855211
Zr 10.512248477215778 9.856443490526175 9.729175982349762
Zr 8.94887948112695 7.498748305944536 9.404954484875399
Zr 9.536475749199523 12.731400760421407 9.577159950281201
Zr 8.119485917082647 10.418858904236574 8.116981041037905
