12
Energy = -80.6818143 eV
Zr 8.094616406270855 8.958794162145809 6.259431783284103
Zr 10.904639834352992 8.898475299077845 7.079378601625274
Zr 11.29170986367903 10.421141946035686 9.500487545511522
Zr 7.037992222156909 9.31445228870756 11.38891405481832
Zr 8.697836146514335 6.77469827168008 11.199124911773188
Zr 9.47973945583014 6.5181039601289665 7.404655185320157
Zr 11.149268953540941 7.4380196265024185 9.672238209847125
Zr 9.274953853506332 11.290076318469543 7.51299252774439
Zr 6.633938358820217 10.722618629303106 8.533698021676432
Zr 8.68149821193522 11.492493956341397 10.412134987718368
Zr 9.93877774996873 9.205752660488344 11.7524276053888
Zr 8.594982943424542 8.745326881118828 9.064470565292577
