18
Energy = -122.23681817 eV
Zr 12.83674541038917 11.42206101813847 12.61704663938066
Zr 14.039890841591271 12.024763985744643 15.381656084283724
Zr 14.564533301139669 14.019460719408077 13.33660555981449
Zr 13.857827333508986 10.01887241424222 8.98060628809232
Zr 13.163929258197596 14.684382824764148 15.909455581566478
Zr 12.005149362428051 11.97120970647602 9.597575555728632
Zr 11.776740359831154 9.279308126784011 10.900752073913852
Zr 10.260942915974208 15.707986320118954 15.118950961372171
Zr 11.45143472985525 13.271269816441885 14.115272092327345
Zr 13.543167352463632 7.457228005346078 9.826416566070062
Zr 12.57671684811056 16.111939445485365 13.483501073931345
Zr 10.115283770939193 15.387493175260701 12.23641563164278
Zr 14.623255686246402 9.160096539755571 11.77419198051166
Zr 14.866672104856342 12.219650303485711 10.657422551573163
Zr 12.462084201644839 14.214123285753063 11.11072352812854
Zr 15.736719478274702 11.381006679635847 13.278090777584605
Zr 8.515257215067521 13.86588850590203 13.87340995132693
Zr 10.00844444875095 12.43601620554977 11.698035181602988
