17
Energy = -118.04800139 eV
Zr 8.905821319024236 10.863300840808865 6.319553019557904
Zr 11.708039722760876 10.598594182000108 6.816151076274472
Zr 10.342522160667828 12.650698250677564 8.27252448317561
Zr 12.494812528736254 8.366702705082517 8.135091112862995
Zr 9.958622820283644 8.199730217873983 6.684454722227905
Zr 7.577870894143839 11.898511803156877 8.592082119963793
Zr 7.300669288706866 8.963622946697605 7.88106619248292
Zr 9.868670160192751 9.880273969344627 9.09793305095161
Zr 6.905656682661346 10.117620298901294 10.53251517623358
Zr 9.422466137828215 12.015176055926302 11.014859359032613
Zr 9.095597553943524 7.648907555351755 10.257811971280026
Zr 12.156292470156398 7.943709885061478 10.74872207097932
Zr 12.344791897250714 10.918642420656347 9.893353878089375
Zr 8.382857127701902 9.684772678484508 12.765306569339375
Zr 11.05196897262039 9.814719164742415 12.323151673019332
Zr 9.810657946651451 7.201856085444664 12.913038763021719
Zr 6.9033967719709 7.463875395090096 11.983099216808162
