13
Energy = -86.50142248 eV
Zr 9.837385948768702 13.24544177475227 9.36458481503423
Zr 13.11225188013307 12.894154895269562 10.379248419581987
Zr 9.026037364475586 10.485595269879997 9.040723542157219
Zr 15.427699326204362 11.772386630312054 11.280734826955698
Zr 11.589839634642694 11.134582034732826 8.645752803238315
Zr 7.644937502101789 12.081986759933185 11.031280509080663
Zr 13.021560920475242 10.512838375337607 12.214079665024657
Zr 10.381346897785699 11.690592765702362 11.637570370898251
Zr 8.388435706715663 9.246453779878209 11.442745875083734
Zr 8.266496692393574 10.943178383303882 13.630781021883076
Zr 13.944772078848674 10.074457776404905 9.612589095952574
Zr 11.219590131091362 8.808933334270757 10.501993125586623
Zr 10.488047095451519 9.265014897081995 13.339995147557909
