15
Energy = -101.98844909 eV
Zr 10.23980220204347 8.323049084142848 10.202349385899039
Zr 11.673652063144214 11.770381628892196 6.975617098830925
Zr 7.747527231168626 9.728819772984288 9.548676655386554
Zr 10.603230886365774 8.613741806907347 13.134650642610481
Zr 13.342419397346042 11.964341365350588 9.337847552039209
Zr 11.474870321442769 14.005036768123873 8.809956563434548
Zr 11.205713080499766 11.314442050579917 14.005294195314958
Zr 8.657658639139193 10.045013104364664 14.484749278158228
Zr 7.9077902859017355 8.563192795888769 12.065506191323655
Zr 9.734110503299119 9.3817575146469 7.4747385922933915
Zr 12.45637193399501 10.159083683934412 11.560557289801789
Zr 9.281107848938738 11.189930620767145 11.948825884403401
Zr 12.389502279686766 9.366987874352754 8.572475000138299
Zr 10.311937151192158 11.391562045814695 9.409967359503604
Zr 11.942391042359647 13.01739758414384 11.556635129595758
