18
Energy = -126.00156801 eV
Zr 13.575069158862117 9.696705156557297 9.874348548045583
Zr 12.697090249316002 10.751019181604876 7.307691677709453
Zr 13.099569537565653 12.567325058993744 9.781646303408772
Zr 12.284782640810581 11.022545398247315 12.37265006330804
Zr 11.070698122007217 8.129963108220245 8.737037357417952
Zr 12.236083197883964 7.969007179136613 11.59576357408535
Zr 10.90060309610784 10.92352521069111 9.389301596183511
Zr 10.893933510018531 13.185808358214626 7.822226368941875
Zr 9.723256896377508 10.477281980109662 6.9062159490087085
Zr 10.375728155650341 8.55133170499408 13.750190151171845
Zr 9.882302162874437 9.81360012913615 11.352298453340424
Zr 8.299149919916445 12.247037449977203 8.724378646085166
Zr 10.140896887329596 13.077623440520963 11.139757673921448
Zr 9.503374290797183 7.0543448312046255 11.195926136269359
Zr 9.234488064965417 11.338631276440028 13.568977475252034
Zr 8.06250699141084 9.20634726471182 9.211437573970969
Zr 7.57194455987595 8.930069974633504 12.554027111072427
Zr 7.454589033518866 11.535927423839906 11.274739848576635
