13
Energy = -87.15412494 eV
Zr 14.546509626121171 11.630679587619762 11.759400382618107
Zr 14.547975002326446 9.921271419893356 9.60051724692368
Zr 12.77793673430919 12.065132801153533 9.656684656213502
Zr 11.683932985247932 12.413228486580824 12.407984224652408
Zr 12.35362069038306 9.684430588358651 11.540384462179958
Zr 11.675888787379561 9.46779146430002 8.69179996459463
Zr 10.034331206038935 11.552287334430627 10.07708518901287
Zr 9.895557375440427 8.357150003258258 10.671914522356321
Zr 9.909667488011655 10.219740760244752 13.043117703964905
Zr 8.45846064659229 12.593841186967266 12.27262436666165
Zr 8.450773004462611 9.68000316951478 8.551271579154614
Zr 7.175169049312467 12.025848766076543 9.73134287198223
Zr 7.6329448548758165 9.909264665769383 11.378691375882726
