18
Energy = -121.76369153 eV
Zr 15.94542139449419 9.072665476204513 13.128253196708222
Zr 15.221686391241906 9.27140307365781 10.502726825882826
Zr 11.949933436649703 15.732073060366293 13.669780671130605
Zr 11.009297438332332 10.750296801015603 8.420163734145852
Zr 10.798562711598889 15.800548258444271 11.275526077298322
Zr 10.801858831281786 13.337980581270386 9.709110774905263
Zr 11.072699512646393 10.94165831575588 11.365727800540649
Zr 13.665740041651699 13.504865947763076 14.55566790926434
Zr 14.667885493073799 11.579529440913221 12.41869026412061
Zr 11.791707054961535 11.19744825347676 14.169588928200444
Zr 12.67225856290104 12.10777871201872 16.81931061877027
Zr 13.471045128809537 11.496306483252805 9.634765098235912
Zr 14.290072340085553 10.307973813525761 15.099411863598753
Zr 12.373220410483247 8.764093351253315 9.645403943085702
Zr 13.142306642790835 9.016020664810373 12.52855578743609
Zr 12.914638996379374 13.738808616290846 11.614558262725424
Zr 10.89872858548118 13.721542926317591 15.64953183682912
Zr 10.19614523446164 13.470111860740461 12.7804148203887
