13
Energy = -85.83833297 eV
Zr 8.089088020570108 11.713655878053416 9.527405103893583
Zr 8.08908035117429 6.070479915728965 9.527406382126072
Zr 7.779523962397762 8.892071092472976 9.823300201265294
Zr 10.694916039752641 7.37102088270192 8.63720207389128
Zr 10.694919874450612 10.41310468521941 8.637194404495464
Zr 6.313332918619472 7.510417477765436 7.65756598832485
Zr 6.313339309782924 10.273719594249682 7.657573657720917
Zr 9.694174978776088 7.424258445961457 11.463672610766519
Zr 9.694180091706547 10.359841557306682 11.463666219603317
Zr 8.93698104802297 8.892072370705465 6.795822803568934
Zr 8.649498420376531 11.695091065421373 6.848706673219904
Zr 8.649494585678562 6.089048563059095 6.848699003824087
Zr 11.998295620458732 8.892044249587054 10.70861093376512
