11
Energy = -72.54776141 eV
Zr 12.80276947037251 8.038491898866214 11.563054597625685
Zr 12.331834781466773 11.068240779802647 11.757473287536284
Zr 11.189319979027948 9.483826297047017 9.506191050222679
Zr 10.3112824575645 9.00628906623335 12.362900457121508
Zr 10.618986385345623 6.789254997757135 10.625095915867893
Zr 8.504941767754785 8.822314827691615 10.07091819928156
Zr 11.493558834416541 12.33517007460534 9.23064605419414
Zr 11.197764165005585 13.913781451976774 11.512816544589796
Zr 9.423078571369045 11.521744803227293 11.280779820539436
Zr 8.861326109262084 11.277853778702738 8.52626063994535
Zr 9.249416609128309 14.010798907355642 9.666268758925906
