12
Energy = -78.65785912 eV
Zr 13.487141261644615 12.707607588068967 12.947939469243959
Zr 12.25028183327123 11.49180484899991 14.92159573937222
Zr 12.543366263338768 9.949854963230694 12.405539815119345
Zr 10.618089800199243 12.132514338736831 12.542943968518616
Zr 10.308629361727254 9.815920585738965 14.347568507003222
Zr 9.556203995389714 9.466976993069103 11.694123651869145
Zr 11.707982385992612 9.569279042204075 9.722403365332937
Zr 12.638283573155974 12.267383599200214 10.337810090530509
Zr 9.57550574381003 11.95417944044336 9.795202408909487
Zr 11.27242124938655 11.293722904373869 7.577413486235204
Zr 9.216276364435933 9.42517057649376 8.485723613879326
Zr 8.586690043066515 11.724995304204882 7.089098530129274
