16
Energy = -110.60771387 eV
Zr 10.024777760276308 8.321806532342144 6.2883782272176685
Zr 7.283711704439596 9.726680131973337 6.868252330762707
Zr 10.10437740867095 11.018959312837548 6.721526434205269
Zr 6.129618013891813 8.029809952619326 9.069157157130944
Zr 8.002994012427695 6.787654805944027 7.522324550341455
Zr 10.633777622696694 6.617139738217859 8.390613763567172
Zr 11.995664767197217 9.407996416727357 8.391162400120646
Zr 8.084659640307011 12.295884831141612 8.063875158611928
Zr 10.664215363741691 11.943184584087641 9.300484051447963
Zr 6.412502164661977 10.769717478543257 9.556952784796579
Zr 9.116192162137041 9.207063313254364 9.22846026986206
Zr 11.605656235466789 10.248728035733523 11.22179558837228
Zr 11.329971988664656 7.520579471503359 10.835320094929644
Zr 8.475833998551911 6.579472034350578 10.568224493512636
Zr 9.398573220493903 8.775833840114423 12.38721307846569
Zr 6.786100857944488 8.798116442179362 11.634886538225667
