13
Energy = -87.05744759 eV
Zr 11.014507250444726 11.498036666019074 12.225308371154975
Zr 11.023906804135645 13.51031131513486 10.481737204733871
Zr 13.38789281823272 11.377078481221979 10.674315643394477
Zr 8.308641656412355 12.574359633174454 12.103315568995944
Zr 11.506853964461447 8.784218770974956 11.040906559292294
Zr 9.021118904239199 9.680863827904131 12.149140052878636
Zr 6.8197687259511035 9.87326141982646 10.705468077386362
Zr 8.760030496738686 11.853585190036943 9.602986489478262
Zr 8.853565543724084 7.291744155677121 10.456483510378808
Zr 11.340339494337526 10.98662766497546 8.720623374160498
Zr 13.521728478743517 9.157037263784433 9.037767996357317
Zr 8.853374381900045 9.305186475974063 8.707170318202506
Zr 11.22093479567608 7.774872317885301 8.384224404599273
