11
Energy = -71.84890258 eV
Zr 7.453518191034875 7.937105438224223 7.845494353514364
Zr 8.460258398757016 10.853767506634819 9.501811783223427
Zr 9.831021314138349 7.515047768469638 6.227919405614369
Zr 8.396908976031089 7.102962808029741 10.596901913083032
Zr 9.422874400516836 10.074367346409609 6.815577414039552
Zr 9.6789442870423 9.38051332368742 11.51343734604927
Zr 9.249514380484522 5.814053479399648 8.374228118030867
Zr 6.503124598795052 10.453309623172617 7.743504159988127
Zr 10.667119568983153 8.201358825961671 8.925061201774495
Zr 6.510280617760524 9.121892297629838 10.449112527778949
Zr 11.111491266455799 10.830677744637839 9.292007776903302
