16
Energy = -111.83686795 eV
Zr 11.137913426639306 11.644863887854848 15.413989354891006
Zr 9.927840701212784 13.809494398316698 14.0293970062208
Zr 10.57466404149811 12.755432232201915 9.497459736567334
Zr 11.071325062501522 14.68734314270143 11.56373939027637
Zr 8.688307561834236 12.935338723939958 11.561047981132075
Zr 14.913143497592374 10.693303911034594 9.754749844613707
Zr 9.87466285005384 10.073352801316386 10.927092283393874
Zr 11.461384498300434 11.794380703217833 12.339169826113661
Zr 13.068634136631708 13.502055581112899 13.739583603594726
Zr 10.955389056853466 9.192135197370074 13.783051580694304
Zr 8.843522325879265 11.112090358396662 13.729395465127604
Zr 13.381229074373891 13.294188347728246 10.46236899245095
Zr 13.458148618407202 10.471421465422592 14.348136273431846
Zr 14.859553052217363 11.563435291514741 12.325959776723039
Zr 12.970500123133421 9.20151578439157 11.674040632414364
Zr 12.258434670473823 10.678694003210534 9.219565506387472
