13
Energy = -87.1404408 eV
Zr 13.039388576087081 10.806536026933946 10.4659942884139
Zr 11.621741475217176 12.036976819897806 8.202383454190471
Zr 12.310697374186168 9.208701963409467 8.131411091415208
Zr 10.925192084323742 12.830727652882436 10.907045054748455
Zr 12.080244588840744 8.149445967597218 11.317302881930047
Zr 9.494474394319093 10.38073147668936 7.12926101844434
Zr 10.466796224672311 8.12561375322057 13.887436541982375
Zr 10.229346664482376 9.955956796726957 9.845334346820863
Zr 7.396964086046092 10.05876937215701 9.376817403026207
Zr 8.796388015818666 12.506479233038368 9.016947859584123
Zr 11.17813898972545 10.544415923279022 12.727995320186073
Zr 8.982786006006645 8.381130645979272 11.72013666867584
Zr 8.46519180287012 11.394604650776657 11.752436802412413
