14
Energy = -94.07658957 eV
Zr 7.736076251025972 8.985946552353589 7.049394477147263
Zr 9.414952910049164 6.713600034706468 7.3955692434704225
Zr 10.443464301257736 9.585728331991254 8.001850301469304
Zr 6.530972005398443 6.788676878077674 8.524461344970158
Zr 8.296269094241579 11.524428167093605 8.75286040747902
Zr 11.152960919506452 12.382886174829942 7.967210851170007
Zr 11.8495504943992 7.456190873044501 8.977295696080313
Zr 12.857511215948376 10.369223340402804 9.321655528347021
Zr 8.879768789862343 7.676478246247699 9.892260395947511
Zr 10.62208566892943 11.713974209825633 10.550821860996088
Zr 6.186542784402224 9.53758915756018 9.322914110631494
Zr 11.109441070459598 9.036901940683633 11.225909867814828
Zr 6.378246609610197 7.715835555690776 11.33455210034377
Zr 8.217629779404602 10.188012431987804 11.358715708628086
