17
Energy = -119.49513727 eV
Zr 9.761403773708112 7.606290233008825 10.493987515412078
Zr 11.618683520337266 8.305530145510927 8.179282075294804
Zr 12.945311303959292 8.19437176420986 10.462919112047341
Zr 8.840841848494053 8.968941800885627 8.10430663093378
Zr 11.62936746643498 8.180594372429647 12.90867357421252
Zr 7.520317581413866 10.198345571705676 10.567898370955197
Zr 13.020087112731678 10.928082959608927 9.135984230041306
Zr 9.011223398408363 9.19215802201567 12.923232075802849
Zr 10.893804101119915 10.655885381866387 7.010066403705231
Zr 13.095032805992632 10.495924549155065 12.066437420295438
Zr 10.425798140110356 10.424169614593819 10.366544556764886
Zr 11.00569351101245 11.019687176793768 13.867142539073969
Zr 10.817341561023069 12.966534285915404 8.60417815890165
Zr 8.285484283438553 11.72077733752666 8.07375714648843
Zr 11.448034439344076 12.908102872938828 11.434101469396506
Zr 8.645840557084545 11.976620555224208 12.766434295252907
Zr 8.590253565775244 13.125235273769126 10.382884124207775
