10
Energy = -65.21289726 eV
Zr 12.10751834805988 8.660461279568729 9.471257073694595
Zr 10.424513959144097 10.550340501702612 10.741305675873775
Zr 10.205648097425913 6.561176938369232 9.125444727561755
Zr 8.977452848361084 12.847639103387268 10.103937805583758
Zr 9.970066364897413 8.93594529159781 7.565130077136301
Zr 7.949492339477172 8.228959271091155 9.597882320528425
Zr 8.07574180080969 10.84496684421681 8.4934837683695
Zr 7.803482966815353 10.401929905010745 11.447975766041372
Zr 10.991081345659788 11.513163668332764 8.267242316213975
Zr 9.947406929349881 7.907822211656756 11.638745483930135
