10
Energy = -64.95568012 eV
Zr 6.913669294325898 10.214876176390323 6.580458000869408
Zr 8.510118279230806 7.800289941575061 7.18120695111245
Zr 11.078423601557406 8.520861658814708 8.47641759191432
Zr 9.588651719446403 10.667663909649546 7.329268476522507
Zr 5.678107932862314 8.200187701975702 7.734458727365842
Zr 7.168190971165038 6.700225236461386 9.610941572946812
Zr 10.29640230758003 10.54676132515642 10.18318223433458
Zr 7.619447474348761 9.720413316380297 9.360527886015742
Zr 9.936782021530993 5.957239391545268 8.947533186161913
Zr 9.450244661368464 7.91151960546781 10.83604363617309
