12
Energy = -71.22014861 eV
Zr 7.535447558370735 7.540972958826682 6.052450348494012
Zr 7.470606873809094 7.466214816412909 8.891225754721308
Zr 7.552240794919578 7.542354682436489 11.728296138378573
Zr 10.2265662092907 7.5440555429529255 6.0474738130602645
Zr 10.3094010369511 7.468579117306548 8.888098514056592
Zr 10.241054107697236 7.545922982817005 11.722338365471606
Zr 7.533309498640816 10.23095531825954 6.051840387139711
Zr 7.468728800695024 10.303451840913697 8.89004048118577
Zr 7.5477118795934715 10.232881325204959 11.732753791842775
Zr 10.223309200912565 10.235157994088082 6.043940600203843
Zr 10.305573849633026 10.306977943886006 8.882004074224849
Zr 10.238954189486403 10.235379476895273 11.722441383205885
