19
Energy = -133.2005704 eV
Zr 10.0633232625815 10.979989947316648 6.260395697996709
Zr 8.664444644180818 8.609145347731479 7.128028746113325
Zr 7.737132824574884 11.512626261614141 7.65316492280728
Zr 11.746340493663409 8.900100802425097 7.089845671141638
Zr 10.01598409046591 13.071935051874345 8.249434723120695
Zr 12.394504227157492 11.530501916644416 7.911575708241836
Zr 8.038579677984563 7.006018248408417 9.261669181419006
Zr 6.790380805642053 9.690814387883627 9.436356392509726
Zr 11.051903586203544 7.070880299914069 8.988518947424371
Zr 9.904662909839576 9.975827491727667 9.476389742745337
Zr 11.608904183396763 12.37476235495368 10.492889007679096
Zr 12.8742083805711 9.494891546619954 9.772726555743215
Zr 9.618924753030544 6.0568854193811665 11.334417458460706
Zr 11.642514465741424 8.079140935228681 11.772798957960124
Zr 8.444356433728132 12.453950528461908 10.489434304654964
Zr 7.424685265072259 10.517253055609423 12.173903731290103
Zr 6.688087838548672 7.626166988216974 11.569055751997274
Zr 10.41612509477821 10.841564727203734 12.4141247049778
Zr 9.069763886994487 8.402371512940336 12.720096617872723
