16
Energy = -109.1377691 eV
Zr 13.826520824428291 12.042032013631928 9.456805728127884
Zr 13.364777396680227 10.300792386981207 11.745605305148896
Zr 12.073110984237793 13.157517687212314 11.576421152670093
Zr 13.262339267611083 9.194114304017845 8.931747490182735
Zr 11.601883470394883 13.643973807326082 8.620699406530258
Zr 12.336010704912562 11.206847855692267 7.119082314796065
Zr 12.525704727407287 11.94451663826577 14.258140978944827
Zr 10.94670341773453 11.069920489787235 9.708056418726164
Zr 10.6281511607332 10.345050917193236 12.829414100032682
Zr 9.99418131485361 13.324256101059152 13.696589854464936
Zr 11.314488300182662 8.27393974064533 10.80968594090394
Zr 10.511936461259808 8.939724571784021 8.072696317392177
Zr 9.052016540547575 12.594116697881084 11.170455063861557
Zr 10.092888376143096 11.341365820640952 15.59450924080241
Zr 8.050541921052119 11.174997424533537 13.55375013765225
Zr 8.637703855873296 9.624776759162968 10.829337797514237
