16
Energy = -111.8486939 eV
Zr 9.493351838757567 13.001628535666375 10.79486795815844
Zr 7.8193299180658915 10.584854248855772 9.296067906781534
Zr 7.961701677204595 8.306897415920844 11.496518546411801
Zr 10.89507967121514 11.624424181188957 13.051387191356437
Zr 12.558261827452105 10.85944123297124 8.57891010271199
Zr 8.967787444865687 7.660867988952949 8.9330032906772
Zr 10.103747057883108 9.668012947629402 7.3487017479941645
Zr 11.905466181421144 8.036065687222363 8.87727216963928
Zr 12.68133057181226 9.512720504011178 11.597940215052546
Zr 10.252131123430466 10.024791003967461 10.449916343761805
Zr 9.899696512264889 12.279648855277143 7.963160714199642
Zr 12.509956593592563 12.451593188792216 11.066045508068402
Zr 11.844929382767464 13.907455972983291 8.892448116418022
Zr 10.632437165516176 7.116634759871597 11.245379146008336
Zr 10.11198055493708 8.95039586316287 13.335049479057995
Zr 8.166371996865646 10.985683523641045 12.433867999304674
