18
Energy = -125.53808577 eV
Zr 10.865867705298625 7.828645498726348 7.388733013319271
Zr 8.428786018428111 9.49843591218972 7.259193862405486
Zr 11.046684908111244 10.669147092700129 7.344930615419998
Zr 12.757769747134603 8.809262255623102 9.619025727171291
Zr 8.415865478850947 6.88146673307163 8.548824047301972
Zr 10.907348791614023 6.540986331436157 10.045764543164815
Zr 10.12022345926117 13.95825170507612 8.838511872204295
Zr 8.871363467872895 11.659448616464397 9.567919019109498
Zr 9.966136620084882 9.318068264065301 9.882175144755106
Zr 12.22679564567882 11.887727496153211 9.356765645502746
Zr 6.9327128936395255 9.130045838053507 9.67570494444146
Zr 8.490493242873995 13.53153654459738 11.508938517552682
Zr 11.354736452515722 13.544178034448585 11.393895166216849
Zr 8.378267157091196 7.215502967711872 11.403008198361867
Zr 8.04159570617541 9.930907118215206 12.202000914653835
Zr 11.071882773052035 8.398908495536853 12.345540610948305
Zr 12.830439371075126 10.7348525337819 11.862952180873455
Zr 10.202121444207496 11.371719445114373 12.665206859563344
