19
Energy = -132.45662346 eV
Zr 7.926423253818481 7.548286586101471 9.147486875734101
Zr 10.506654968384357 7.788583479827904 9.287629705436792
Zr 9.302704340698229 7.886657246423188 12.01585510815526
Zr 9.147236932846642 10.279876844023352 8.057850981653905
Zr 7.44369294890843 9.774351151382623 10.408517494999126
Zr 12.378633433874327 8.53143601740251 11.498123517846151
Zr 12.101986554528661 9.743669663449452 8.453654138679298
Zr 10.687110508312998 9.6423886390928 13.833252727962206
Zr 10.466802398549534 10.543504848786275 10.875383695981352
Zr 8.196368982596027 10.565347984211709 12.864237772193832
Zr 13.09247000974034 11.614819330182304 10.481930607413286
Zr 12.958910821102425 11.022249538056162 13.36918505054875
Zr 8.508455162762045 12.485904332028397 10.30055358413276
Zr 15.312464336077978 12.599612919500531 11.836443051155326
Zr 11.051631866345415 12.454993909143365 8.414886414319021
Zr 10.265713080102138 12.569836078300051 13.158100647796106
Zr 13.943803092215175 14.22611690318645 9.931386236330386
Zr 12.965243332618119 13.866784221477738 12.62407113284421
Zr 11.00965086486737 14.040530739294743 10.649136889634727
