15
Energy = -100.99492563 eV
Zr 13.196558511627794 8.183936546402018 9.116711733439644
Zr 14.344631204343733 10.517975233745268 10.10020778941565
Zr 13.859332159366001 11.303372746298384 12.993512686760434
Zr 12.046797277351034 9.465248615890442 11.456410486987124
Zr 10.545422722129532 7.97997048304424 9.222450357661854
Zr 12.666705052097212 13.561721121051715 13.682503582504992
Zr 11.758754128015878 10.670568349762425 8.637457227478409
Zr 9.035103708328176 9.506918684585845 11.443644321446584
Zr 8.765507275585724 9.920949051925438 8.477369188952254
Zr 10.811760854807666 11.307147070561534 13.248798665558851
Zr 12.491671392056988 12.715068414961387 10.860408900196358
Zr 10.333178567943142 14.078002725327018 12.54486808850905
Zr 9.749965714053895 12.246522972683598 10.233743607550629
Zr 7.058791097495931 11.16683976538966 10.093161929633345
Zr 8.036979309435628 12.090669842156005 12.527662050894051
