14
Energy = -96.79057269 eV
Zr 9.473502345398106 7.7906955292972375 6.6787266941232515
Zr 10.065408233530691 10.650045482443968 6.751836702168713
Zr 7.350832587954054 9.811784610202649 7.241907628561845
Zr 11.86347945515211 8.675386182433265 8.069616544371513
Zr 7.271642178985158 7.18356720102912 8.512247074576974
Zr 10.1099439438127 6.559121186895161 9.262832423506664
Zr 11.586146541075568 11.508647492425137 8.878702183964759
Zr 8.62196404316029 11.93988704907448 9.211136946875838
Zr 6.500308030199549 9.477773097176811 10.098755489965049
Zr 9.31146406494431 9.32643865031506 9.320526696111623
Zr 10.571579391973827 11.531912118096544 11.444226854241517
Zr 8.200283599908389 7.367430195379701 11.276879434302552
Zr 8.460756599346041 9.979647664488857 12.24213995970635
Zr 11.012140198302543 8.597114754485956 11.40991658126697
