14
Energy = -94.28941856 eV
Zr 11.538686586690856 10.774822887480568 14.040428144158124
Zr 13.41666336360549 11.445785166397464 11.4260874537004
Zr 10.549056592734445 11.980372338256668 11.830055963355498
Zr 12.26036522994233 9.01267656771412 11.765339345286385
Zr 8.528852370708387 11.372051170611295 13.465864875413203
Zr 13.116385165562367 9.296493466244074 9.083763083740777
Zr 11.04996947948386 11.183109235791969 9.297891180675956
Zr 9.718931339425984 8.864992341081228 12.84008054247507
Zr 8.133915096159244 9.91005549631757 10.900176459878589
Zr 8.396867941548539 12.487841386698832 9.679899531475778
Zr 9.595430906366065 12.11104586163106 6.97981456508651
Zr 11.022719516275655 9.541466434245544 6.989781037442708
Zr 10.36870120240602 8.185675006759983 9.656699689569383
Zr 8.436715464252462 9.94071838901724 8.152853797688891
