18
Energy = -125.8856327 eV
Zr 8.244032213280882 9.05596495593268 6.542257175944722
Zr 8.226905220579562 11.765466800711987 6.635653954143754
Zr 10.913084979594043 10.265078799891038 7.172905278724949
Zr 5.755128577770151 10.38537738292022 7.052979578174951
Zr 10.042036807468394 7.032910631151198 7.56272596041246
Zr 6.403451109305999 12.822978534304035 8.43587692483845
Zr 12.628308894415836 8.499095649881342 8.707143690439171
Zr 9.446083929736913 12.075225023554317 9.197739825766414
Zr 7.029560247678478 7.465908151741854 8.530381900374985
Zr 9.766643307638892 8.751598057765005 9.63955898001973
Zr 11.901614188182208 11.037113263450543 9.85238660781458
Zr 11.538752756705266 6.3607870946143175 10.230294787621323
Zr 8.732341571315901 5.869049894713975 10.150688753328364
Zr 7.00938122984577 10.294146157797138 9.607065863066211
Zr 12.149265004698739 8.85138922209372 11.591145200950756
Zr 9.46878982494386 10.449274630406835 11.762655732635611
Zr 7.325313351961211 8.073691263131968 11.381528788045438
Zr 9.856047835063258 7.381685536123192 12.38375204788351
