17
Energy = -113.99207952 eV
Zr 14.980013392679968 9.891816717959866 9.214581580583502
Zr 8.858177391584574 11.912691264825611 10.084453424580339
Zr 12.425085462587527 8.75664349743123 7.903109127888471
Zr 5.847768864864579 11.662826734856452 9.631886211529059
Zr 12.136072458634247 10.992757826467114 9.255344256744186
Zr 15.213497460146487 8.554489750869912 11.910798642372693
Zr 14.004591742545388 12.769459958505012 9.748492790965557
Zr 6.869237550447705 14.124095752716583 10.755153986825762
Zr 10.312916889408179 9.165642630893453 10.479848342521223
Zr 13.112605233843837 7.926227453521253 10.325069412941655
Zr 6.60410763498747 11.815852880246354 12.328959086540191
Zr 8.963963153245812 13.558864126553171 12.464938073598704
Zr 7.307166915370682 9.532154859039725 10.627020655007238
Zr 14.377207433117318 11.127252132949678 11.799801167014731
Zr 11.472324317944977 12.063792662715374 11.81488286087536
Zr 12.24865263319756 9.377152947487223 12.658393869063591
Zr 9.075337936781262 10.57700527434976 12.805992982335153
