12
Energy = -79.46468232 eV
Zr 11.58811176686577 9.039006850842917 9.698465053553432
Zr 11.471425191075003 10.893239504740038 7.668128823673727
Zr 12.051397555889572 11.57803287358924 10.659652888426873
Zr 10.154262110319838 8.06106627444304 7.5604209364081845
Zr 11.092301170404497 9.168257351985707 12.404140123782945
Zr 9.918407779764275 6.995715888070245 10.491524440970803
Zr 9.581856070216947 11.605919549198578 12.141750495280633
Zr 9.815582196272912 12.671758110612409 9.214609234101214
Zr 8.644512708426086 10.499025040985444 7.29646108809406
Zr 8.264316643437166 8.775417303603659 12.036733653661921
Zr 7.686315915650714 8.089259698477747 9.0416929978242
Zr 8.149088079836597 10.626418159081904 10.003426636097778
