13
Energy = -86.77746486 eV
Zr 11.300533511758083 8.25905723746195 7.854128963306653
Zr 9.146094090096073 10.056964892036131 8.945460720464789
Zr 12.256436513283955 8.606407573464905 10.640108213326394
Zr 10.832315769760786 10.546393527189808 11.503789194887865
Zr 9.18066384145191 9.05548537124168 6.132006641096492
Zr 11.081686400060972 6.205306027335219 9.681492961829354
Zr 8.68645579321069 6.952847784946829 8.107945029736467
Zr 6.561640954680879 11.284276452579935 9.361887766169184
Zr 7.727655927557919 11.469550209966041 6.739463013280109
Zr 6.626655478354256 9.042317093557523 7.445079628778391
Zr 8.105630352220654 10.343683740678152 11.78682983900193
Zr 9.473700353937373 7.895340487373493 11.202648550918529
Zr 6.8123051335276035 8.451358393451365 10.129389214698966
