17
Energy = -119.19099407 eV
Zr 14.84137594257183 9.166266554507997 9.14866494207844
Zr 11.670114557174916 8.887219840871515 8.6640353199042
Zr 13.396299548724166 11.34036555378775 8.624847469788344
Zr 13.254882598041677 8.42552129450071 11.161439440180706
Zr 12.022804390148565 9.68933218539076 13.424455250761254
Zr 12.383627548602979 12.725120658110388 13.109403760503065
Zr 9.875531124259224 11.670077628235932 13.94910640548425
Zr 10.949233675703791 10.967685726399742 10.995003142464672
Zr 14.008089723713088 11.245975903331638 11.507194158430258
Zr 12.226506952708398 13.468121277533356 10.134606493206915
Zr 10.579794776198257 7.902440242277411 11.168704233578564
Zr 8.855818646124012 9.320623884474415 12.610610550606822
Zr 10.000772892939057 13.858703932228716 12.041565421052972
Zr 10.764014575298614 11.556153197352018 7.971248923086001
Zr 7.961463318078384 11.785144710002555 11.744111078526476
Zr 8.765625565830492 9.77995881605005 9.501646526177446
Zr 9.05108624559603 12.911578414843975 9.477357090440256
