18
Energy = -126.06636762 eV
Zr 13.369993240658827 10.586437396793784 8.953860190071433
Zr 11.34686016533094 10.815654439110126 7.303020212218578
Zr 11.293409870333294 12.928482028804483 9.473178991524518
Zr 11.590265643213312 8.051771669866628 8.961068818694706
Zr 8.791443744053842 11.823607971062444 8.15362909652101
Zr 13.399406569655904 11.75515963547552 11.382045693708093
Zr 13.17670414444052 8.849446704974591 11.205785081226349
Zr 9.418918273896548 9.041457571175092 7.203887545254269
Zr 10.477503533025804 10.30961538634183 10.450123098440798
Zr 6.800755329505959 9.32985319389208 7.286882819113156
Zr 11.031039416163242 12.66006646453775 12.49143820199543
Zr 10.427382194449143 7.895085016758851 12.074942278525675
Zr 8.582044975101022 7.8288611311114265 9.661760945831666
Zr 8.50773103318678 12.34293486218523 11.195151764521082
Zr 12.096940449503633 10.103779652272078 13.420474549863716
Zr 7.7406230556501585 9.292268586120795 11.985037919070175
Zr 6.9075209562550075 10.32725686875341 9.719587522653702
Zr 9.441684102954028 10.534555234930668 13.534962007749176
