19
Energy = -132.73355251 eV
Zr 15.006712840714956 9.796371117860208 10.05497856071094
Zr 13.932575435510726 8.359601801893144 12.371962019614239
Zr 11.370973365029846 7.14831504834115 12.401403795503635
Zr 12.647327584743161 11.361842819305052 8.927332008748829
Zr 12.119839376825382 8.86729964844992 10.126998399651017
Zr 15.097095290697897 12.483450779024453 9.953542176535308
Zr 13.463521484905748 11.339910669916287 11.981949749709582
Zr 9.516715933196094 10.355971912447908 8.68082392813333
Zr 11.631999540557354 9.770929583405234 13.444294366884407
Zr 9.328784055383343 8.440558590189108 10.99802477425287
Zr 12.385489998685124 13.798693893197665 10.753933131764093
Zr 10.3131144741587 11.484504552637487 11.009386089399838
Zr 7.345839972463692 10.40969400797974 10.924324045389808
Zr 8.828607586696435 10.196261326574904 13.409034838271204
Zr 10.478989744599664 13.327744588999533 8.618523140608895
Zr 10.806195128961006 12.73541820287308 13.361160615526236
Zr 7.871760376447134 12.737934846249793 12.495223856598155
Zr 9.624045838635771 14.49362471714255 11.135101562575292
Zr 7.852639030176206 12.835863405397234 9.571252203053932
