26
Energy = -187.88509335 eV
Zr 7.666876122448567 9.975311606557757 9.05788485839255
Zr 9.240726291483524 7.674142443547946 8.896232572507428
Zr 9.867978427024296 9.960288305145221 6.949523325062451
Zr 8.838171561399548 12.58242668580965 8.935474528746361
Zr 7.122327210343261 11.49320090787544 11.511180394361464
Zr 11.891777702442898 7.824379603862533 8.14444638725874
Zr 8.278210728331981 8.495801298830251 11.56183680089118
Zr 10.804444119960074 10.238546286919735 9.465766704148402
Zr 11.409894521199474 12.57217612025323 7.52569769846073
Zr 11.348216313217266 7.741791085590666 11.1178071907041
Zr 8.890139236711212 13.980923058491632 11.404387451981094
Zr 12.926576746095934 10.250945032634606 7.283689710380856
Zr 9.811695687508816 11.015498998142787 12.062093382626067
Zr 13.834891874485862 9.18784930070625 10.015990770966308
Zr 8.097985012727966 10.153350677535798 14.157218799596818
Zr 11.418036488875018 14.122410173327133 9.954593734803034
Zr 13.967022265578441 12.297257810922694 9.108121762113239
Zr 10.352156006875203 8.534526674392106 13.73066074121093
Zr 8.578919543276537 12.897136441509641 13.963999999105878
Zr 12.312971075902535 11.702067101073663 11.420735568820431
Zr 13.92833019028315 14.015593775774422 11.646326569225712
Zr 11.274183138781407 13.976398319888045 13.17365639372417
Zr 13.083955341931487 9.444595741391353 13.13483808971863
Zr 11.042730778115994 11.245312634512654 14.759289393354836
Zr 15.121820363283716 11.2764730772162 11.733478928201087
Zr 13.659320170200079 12.290724859701534 13.978609838172943
