25
Energy = -179.458174 eV
Zr 6.819343213433954 10.912823258337053 9.516521954298106
Zr 7.376169858226832 9.288558122155077 11.601243602244148
Zr 8.175441409171539 12.118823795387774 11.910655347515963
Zr 9.383511075874736 10.209069465362944 13.549846744629718
Zr 10.867505634206324 12.854404963499809 13.890410403787078
Zr 8.214889243370159 8.255561133607499 8.717710387524209
Zr 8.253037208316087 10.730636468105816 7.177456952176548
Zr 9.258361468608777 7.29558079001501 11.37601141798492
Zr 8.729246244262164 13.157705831864227 9.033398375305087
Zr 9.877469280177916 10.347249862365766 9.709164582064885
Zr 10.096520334038246 7.704845475589928 14.122980090165466
Zr 10.004332742507195 14.194434564049324 11.380657120142525
Zr 12.176652177554432 10.102727696944482 14.324974573848392
Zr 11.01570002871081 7.334818140241997 9.39970538755067
Zr 13.84206139467155 12.30289038669477 13.429376405836337
Zr 12.038601841644208 8.046416425727477 12.044398182356625
Zr 11.734892170952271 11.420758710495031 11.511021375918085
Zr 12.696148245780217 14.250231935412014 11.886364363978917
Zr 10.902860423555811 9.218726982966196 7.1821216665372045
Zr 10.539438015151804 12.152717460156833 7.004990676533791
Zr 11.817226009733362 13.684618108587427 9.159295291440333
Zr 13.214860375309069 9.14995096952103 9.502539466503807
Zr 14.244331840906543 9.783972583932448 12.239996853511682
Zr 14.29990941962706 12.13873562162889 10.407949887171869
Zr 12.90332046463862 11.322576709723096 7.954255243476814
