23
Energy = -161.87357503 eV
Zr 13.855853053221683 16.754721642852186 10.717478816581753
Zr 12.358345603634872 14.288991355827598 10.157287508060312
Zr 12.22140368725042 11.08907005253548 14.962137159626604
Zr 9.83353757674943 12.644916041605963 15.063217042886722
Zr 12.416008301382467 7.998130741159488 11.40357644113672
Zr 9.143106801916286 11.323755833407617 12.548248801078662
Zr 14.825804561195145 11.617946647258517 13.60451592760631
Zr 10.42935237515953 12.05812111317567 9.646178237501951
Zr 14.734984633559723 9.750426933904526 10.81714212871487
Zr 13.530597516925752 11.929856225499119 8.903940835936325
Zr 15.02512768821654 14.615380745695246 9.434117943029323
Zr 15.59667491457891 12.39416906333283 10.946680117619797
Zr 8.082404282820876 14.127943140822374 13.297999113810928
Zr 14.49992553285886 14.479049314956368 12.485912480625196
Zr 12.713165138302475 13.903433419949145 14.693034702857947
Zr 9.96299036380836 9.348323632791347 10.808507240374432
Zr 13.678694086537835 9.05493634149235 13.646466383968233
Zr 12.358842449784406 11.204345275822973 11.815641257499685
Zr 12.185408633739408 16.219641373707358 12.81106982283636
Zr 10.693134588310487 13.748591620809313 12.354732717345273
Zr 12.153392083024897 9.60935645640952 9.11314881915079
Zr 10.775499419948405 8.990416286351758 13.58394466221327
Zr 10.148229448732298 15.39690914940724 14.857951978564504
