26
Energy = -187.06136047 eV
Zr 13.910403960968313 10.49561541962017 14.270019767368053
Zr 14.966548934630527 8.790076028512715 12.20168043750782
Zr 13.144531329456496 7.627189084116826 14.088960920380792
Zr 14.377659043964092 11.739825778119503 11.497196728729419
Zr 11.181954527610984 9.609351178088659 14.950342443327491
Zr 11.72142390832754 12.316401186627186 13.239371354047595
Zr 12.082744897260277 9.71231683502781 12.127293456356137
Zr 12.782231008023409 7.019402786895134 11.219600594587275
Zr 8.988512008665447 13.136496850651424 13.68355730706014
Zr 10.447568441145275 7.444360968068136 12.937057818571638
Zr 14.005908245035046 9.25830236584008 9.58025493909805
Zr 11.795540293959322 11.684652853950292 9.93785681416925
Zr 9.051826482013698 10.016102989526713 13.03019973748395
Zr 14.20374506287077 11.91218704950925 8.37410535874651
Zr 12.741358472337579 14.269439213802103 9.634885636721785
Zr 10.649451615343748 14.68143478905452 11.717004215387341
Zr 9.389398283359661 12.003579421192374 11.008820937366949
Zr 10.346497691670628 8.868995649189293 9.91458124601984
Zr 12.023000641644805 9.943827202769357 7.567418027282284
Zr 7.563156966338254 9.849987556763024 10.192650137112485
Zr 6.7600536725946005 11.906980128073538 12.145157470738427
Zr 7.841885007518073 14.525349492257611 11.297226650508374
Zr 11.764468510284917 12.844810687745008 7.200348233848735
Zr 9.295175950869911 11.083550334846716 7.978011247899658
Zr 9.730936531218374 14.11927160038622 8.868431396336334
Zr 7.078841454115485 12.607309423348932 9.279993806871888
