28
Energy = -202.05433377 eV
Zr 12.0107108543473 17.058349485127383 11.52238878576484
Zr 14.628435889618489 15.596802132176029 11.881595103963301
Zr 13.653430117575505 15.817535277580689 9.227064266342811
Zr 12.799662228791977 15.243014966531492 13.954514765988675
Zr 11.006628155139783 15.820529790322958 8.746183899442142
Zr 10.17943485148509 15.624623674725576 13.478737106702065
Zr 9.239665942074852 15.96672110527532 10.862294447488846
Zr 11.828486755466034 14.1515109100794 11.178978380010975
Zr 14.898142834343837 13.440086064368108 9.93224436320035
Zr 14.14055018041528 12.768883818592252 12.760112998220707
Zr 12.358386133529562 13.191237459897359 8.356904147227754
Zr 11.004499733082357 12.70980086542984 13.922279346640726
Zr 9.427732383960006 13.544498124419984 9.24147550659127
Zr 8.7459149102343 13.430175063498623 12.147290869185296
Zr 13.450384609328987 11.150659481320329 10.317479691932219
Zr 10.235722836404623 11.305361288653462 10.906514767932563
Zr 13.552838463795391 11.698832950478044 15.21003945431139
Zr 9.181057821895996 10.272311949855666 13.64816579401165
Zr 15.189526457093702 10.000329913839828 13.214330403163684
Zr 11.539552474414796 9.022254083435287 9.63969440343005
Zr 12.17481195261102 9.834342956924354 12.842688906068053
Zr 11.028024224741912 10.336097721122437 15.759522541087088
Zr 14.151022823529521 8.41503348467329 10.787296752852544
Zr 13.452310062475151 8.91622016714495 15.52390884209908
Zr 9.519081925616582 8.43856559143839 11.70226659603091
Zr 13.90479165121372 7.343104136377059 13.377791772623178
Zr 11.823203115057316 6.888938870208304 11.577633837601882
Zr 10.892123938021241 7.687941337166128 14.365768249766955
