21
Energy = -148.13054327 eV
Zr 8.03113363888545 10.979793205104317 11.410981637179132
Zr 9.647559415837573 10.915981536964907 14.050894415091465
Zr 9.480442397318393 11.071375765714832 8.675890588467494
Zr 12.877231620275007 10.92452966643308 13.952739516039914
Zr 12.719645523314256 11.078885668761501 8.579343886814472
Zr 14.337059986454706 10.994843020841056 11.22256093231359
Zr 8.638026436471794 8.570858507844635 9.88233164768042
Zr 8.721611976957222 8.48576525737554 12.759417262883611
Zr 11.097813120134361 8.646615562357692 8.350371247203716
Zr 11.270213960350535 8.47686851654451 14.144904636668901
Zr 13.645939792081824 8.584316081582754 9.73253713556818
Zr 13.733570221442365 8.498375988742332 12.610539588543501
Zr 8.771561599995048 13.474252566894258 10.104529866671184
Zr 8.856494378640443 13.393765341751878 12.811130253396605
Zr 11.093407442457492 13.538494584956705 8.66134641391045
Zr 11.262454403469157 13.376977156577382 14.106515768485144
Zr 13.504448956406154 13.484668452938905 9.95681864225221
Zr 13.586790074721153 13.405107614390271 12.664173428384213
Zr 11.178814593333367 14.797176883417333 11.425081835643631
Zr 11.183355119017875 11.81241595471726 11.333509554361983
Zr 11.185370840106751 8.664012279829084 11.250818821126764
