25
Energy = -179.21157108 eV
Zr 14.003708090901792 12.584213278771564 14.801292461931771
Zr 11.28156354092343 11.270118266862884 14.405296680054935
Zr 14.788828895406526 13.924601406213421 12.763454641913777
Zr 11.826020141054558 13.941045912378666 13.196782628150524
Zr 9.111122309640972 13.005469029062054 13.683149119108847
Zr 8.742901697571208 10.088254302616928 13.246075352261236
Zr 11.704845465260624 8.817421634000407 12.798604643318779
Zr 13.424066819716964 11.40950474061281 12.21460298046013
Zr 9.280031855359223 7.5761518639717504 11.979100045931748
Zr 10.582350905829983 11.747325306009747 11.348413231130776
Zr 12.550882575101564 14.006120442753087 10.554120639121772
Zr 7.494264055567544 12.210893226610779 11.597682939464692
Zr 13.503191042698855 9.042351209421938 10.617458380268726
Zr 9.461828307808734 14.351338038784288 10.87787974533952
Zr 13.131062731034774 11.466232487315764 9.01209921501142
Zr 11.587474687007381 6.828019518348503 10.146087964402657
Zr 10.867855657062544 13.26480754211144 8.523061878245093
Zr 10.423492069562126 9.425972743073583 9.75321254186761
Zr 7.418707142935712 9.5141330187473 10.633013268419676
Zr 12.850679567302375 8.687872847346041 8.015897349226224
Zr 8.584221925716596 7.07440322144009 9.368667215967147
Zr 8.344838661753572 12.036111871528796 8.881456908177945
Zr 10.707053117024643 10.763649802083835 7.132422551451688
Zr 10.414347721930794 7.702610632059239 7.333412043084983
Zr 8.113271469109787 9.396348381653729 7.715960943877466
