22
Energy = -157.90236103 eV
Zr 12.71532515139335 8.568626060819241 9.949543653254597
Zr 12.14987098606128 11.10134783674307 8.043882020831223
Zr 10.346082942946786 8.998856464003437 8.21130938861443
Zr 13.883410794811846 13.382712792419381 9.14715111353878
Zr 10.101824609225947 7.120606879246429 10.290553570224487
Zr 9.094431050490654 11.642665874173632 8.784575220512714
Zr 11.069979620827763 13.805192477922876 8.576935636291095
Zr 7.871547012027278 9.001537104018754 9.56363436402431
Zr 14.568112689120138 10.857637495189422 9.945585187580118
Zr 11.90070994325585 12.06731163898584 10.899335595598565
Zr 9.367651104362942 13.777947142852716 10.999582773342636
Zr 12.314043109394918 14.982068999631839 10.888595063795368
Zr 11.368882766276776 8.065273850876519 12.891328765581074
Zr 10.17749588366711 9.983073662580672 11.180465934670247
Zr 13.71682518304659 9.805700360425988 12.350079671763597
Zr 7.579409473407123 11.165211580076726 11.597419770445354
Zr 9.373640093218018 12.452079205660947 13.53554834469799
Zr 14.207127310710055 12.82762609902946 12.269124121389797
Zr 11.542816508179857 13.968035261211496 13.280235904155585
Zr 8.295511803692214 8.064323548614933 12.262896603392768
Zr 11.90852828313475 11.060836644242297 14.062836134217676
Zr 9.164472529503279 9.839456722306334 14.069761708813944
