28
Energy = -198.9930405 eV
Zr 12.875116372998786 11.78919708480972 7.433748378130627
Zr 11.58873327571468 14.494509726535105 9.17474785256764
Zr 13.74853177239953 15.785512285118658 10.095170383795262
Zr 10.648797664292992 11.960927572134654 8.900975826234617
Zr 14.361886438981552 12.932983492404341 9.547621306100808
Zr 11.168731705588689 9.25499766578851 8.45065069703888
Zr 13.712905043337107 10.061690810459563 9.78167077977462
Zr 9.533233152249702 13.469147353935636 11.038043898623844
Zr 14.059411287203865 16.37432471164039 12.776408184900017
Zr 11.115547773748453 16.049508693813678 11.779457219971723
Zr 8.920047006752297 10.287403833001427 10.292536026763834
Zr 9.15510756575953 7.5010170657876065 9.614697385807336
Zr 15.71700582568141 14.38199858259261 11.650726800445709
Zr 12.704440128309981 13.66622105801648 12.190750894484728
Zr 15.101683749886574 11.546117984109152 12.092313330933445
Zr 11.564264350753682 10.896458606989567 11.954075023985832
Zr 11.698644642646192 7.939761644427189 10.97243905986253
Zr 13.886528172961583 8.913451581085098 12.483377910869551
Zr 14.802559548721954 13.839433202049667 14.336099065495963
Zr 9.973361915572275 13.921534450764925 13.827539165135368
Zr 9.00461036102619 8.200587610984405 12.362706075201123
Zr 8.70547540307329 11.124051499685994 13.04585642655297
Zr 12.193685231525599 15.642494249515892 14.5444095243964
Zr 13.617105683588461 10.891950280693106 14.544787964255276
Zr 11.432113661736073 8.645594739050397 14.016392375307147
Zr 12.274531925290637 13.17577807717941 15.555254953627244
Zr 10.626725374994525 11.127666119556368 15.167130869835159
Zr 8.575434369419492 8.992531747688643 15.11443729098431
