29
Energy = -210.01971041 eV
Zr 13.384237544321376 7.320350475970632 12.177316865298483
Zr 11.418698950569146 8.557807674268751 13.780364255356032
Zr 14.138690170440741 9.962518085467906 13.290848320562167
Zr 10.579203966128608 6.919243385804064 11.504466900369628
Zr 12.604177122535177 11.96931501716129 11.601254192459205
Zr 12.376762652306656 11.78506472611331 15.017975041263291
Zr 14.63602087552265 13.071422071851616 13.71056352069771
Zr 10.221027736390624 11.174213813876568 13.730466349952406
Zr 12.499106216198822 7.040773475332303 9.444343827076786
Zr 9.048798380448256 9.252746541319015 12.076117864092273
Zr 14.663011961163397 9.114549901117387 10.186840175798055
Zr 11.779012849826126 9.470427217263442 10.864495995074504
Zr 12.8471054099149 14.477809427961093 15.596241144677315
Zr 15.481812524779102 11.663922208444625 11.321610516906926
Zr 13.85798082840258 15.858817236581206 13.32563166083601
Zr 9.9014894058002 13.989228343035892 15.333680996448807
Zr 9.896282376651211 8.703269818776068 9.014015498251755
Zr 12.686319245577593 9.283975672797878 7.945634461737486
Zr 14.178501631302602 14.350700854144618 10.900771335148145
Zr 13.893149675917407 11.789589388701234 8.878010074280564
Zr 11.351229335306517 16.52717773515306 14.447079648369803
Zr 11.37556833695396 14.039911895644613 12.903394577898762
Zr 9.37686180208536 11.680018041480473 10.543141489693626
Zr 8.35133508410916 13.193030912465652 12.857954357480997
Zr 11.624399229741957 16.436425388195 11.382742207066352
Zr 11.851762140201634 14.032237082470791 9.45118523879014
Zr 9.08910418623381 15.910567591655605 13.09397762439166
Zr 11.037785730800389 11.458354279565617 8.406140821622786
Zr 9.345318321441273 14.631626358928443 10.594213156023153
