29
Energy = -210.53157777 eV
Zr 14.655411616839876 11.49052859841117 7.694366765403886
Zr 16.106962840308444 12.497794789384843 9.864859613636275
Zr 15.356193410384341 9.568949073538443 9.916888922954797
Zr 12.663604149923787 9.515896997535826 8.287602977141898
Zr 11.990609347066096 12.593115690413537 7.6585906466562585
Zr 14.037770044226612 14.110295578738887 8.833365853335993
Zr 15.817949621508824 11.411484847887714 12.26992816851754
Zr 13.043979885036315 8.093432694203688 10.858775147294294
Zr 13.161226864778737 11.540768715957935 10.36668833738691
Zr 10.536636600858522 8.841149911988644 10.309437653668263
Zr 14.368529753860418 14.004034438160138 11.79388300530466
Zr 14.293623144641012 9.183566101243338 13.161179709134101
Zr 10.094225223823178 11.326081120556825 9.152151629648317
Zr 11.454694829332295 14.113559235517805 10.25784446053322
Zr 8.482772289162414 13.81021212958071 9.630406653328773
Zr 11.795119866350083 10.955623347863265 12.810510630677445
Zr 12.460732643025885 9.806677556741429 15.406620688065672
Zr 8.654257430692653 9.195630382802495 12.316994296850034
Zr 7.192858728101846 11.19635623900027 10.473279244204871
Zr 14.085321791404386 12.125309876674303 14.327767146457557
Zr 11.32536052405796 8.13705572005325 13.250042446301439
Zr 9.521038223531376 12.22897454702698 11.902655529342022
Zr 11.46986679471387 12.460575839034233 15.532525336808625
Zr 9.38104289368839 15.228742440166874 12.05966024645362
Zr 7.114666572178601 11.243132801073392 13.423390117296371
Zr 9.529495816543685 10.317157220887148 14.864915865456853
Zr 11.80977174939116 14.184866969547725 13.361956584747926
Zr 6.955718581020208 13.702055528910785 12.126150179546249
Zr 8.918750528140224 13.455033794927083 14.49740371296442
