21
Energy = -150.31925964 eV
Zr 12.023047888677777 7.288508458649705 10.987872352826557
Zr 11.564648436902624 7.571011867623673 7.910207622845368
Zr 13.902808446383068 8.875113757276484 9.100345863436678
Zr 8.852572332305474 7.894804025859321 9.355913292628077
Zr 11.51053805288786 9.278045683362853 13.26876909017566
Zr 13.655836758104485 9.809613958927763 11.694091111480517
Zr 12.42614173240654 10.344754261064072 7.100164012800536
Zr 9.408280284604714 7.955735708767994 12.268709329359545
Zr 9.657890131545111 9.625446617307276 7.168179720822538
Zr 11.258359459815079 9.717386168315835 9.768288198700873
Zr 13.186569389921932 11.941026737067936 9.633181917824718
Zr 9.621218269369125 11.173856384665601 11.131525210558795
Zr 7.6805692206425995 10.825508434961014 8.901554907518065
Zr 7.1972933782894355 9.28905075816398 11.436710028372685
Zr 10.383437586502215 12.33276166550146 8.076612890391628
Zr 12.128990889195721 12.153295288564811 12.609138645186029
Zr 8.782125861879146 10.503928035476617 13.740422247198145
Zr 11.141998163812744 13.806683717673652 10.503957543241228
Zr 6.960943949829432 12.017634687804401 11.776896760083295
Zr 8.373281502175235 13.642673465805453 9.914846302771833
Zr 9.32734251220875 13.48416217880703 12.759500152966842
