22
Energy = -151.18070924 eV
Zr 13.215563726158226 8.948089327190589 13.611747058515483
Zr 13.444003753796963 7.1373870816045155 11.346706080878938
Zr 14.239801627203748 11.621539456612247 13.202490972771981
Zr 10.525017546342905 9.393783123851884 14.553568408104628
Zr 10.885482449607176 8.171250192154986 11.874180826604194
Zr 13.836390139459505 9.844024487438759 10.840244912754233
Zr 11.377247538295949 11.496206279388327 12.716736705386612
Zr 13.130922687756545 14.259137905977877 12.855298863204444
Zr 8.963014294687955 11.705840162995907 14.50328796513608
Zr 12.0084961445369 8.27840284079377 9.085427722897204
Zr 8.595028208869861 9.849091425845184 12.228553818137549
Zr 10.662209634224025 11.106226645416033 10.035384467847553
Zr 13.305476283181118 15.376645926367399 10.171824040755729
Zr 13.786890509137518 12.650093950210165 10.435674923614826
Zr 10.453517775903471 13.990612301218908 13.908888433397395
Zr 9.18374812186276 8.646117565031984 9.487118977992834
Zr 12.896248520391108 10.883289401542585 8.19921815646461
Zr 8.549450128917517 12.856574121115685 11.807393909942254
Zr 7.684383900703434 11.00509402729321 9.657005736040173
Zr 10.782475864813623 14.44214374430513 10.987215320266179
Zr 9.106749551324222 13.264440173472323 8.829882177277057
Zr 11.915140959965747 13.606265377818806 8.327722842010596
