20
Energy = -142.50548337 eV
Zr 12.938493975039774 12.186939883615524 8.822052181262354
Zr 11.5802256042255 6.835839101630926 10.081968407260728
Zr 10.180304977883374 11.13605949756991 7.789466419759663
Zr 13.570702384492396 8.42437479115458 11.607958942785213
Zr 9.599240096120166 14.563066827419481 11.405827285314887
Zr 10.950902784239528 9.460992402394485 11.009384613457554
Zr 10.485002610588287 11.995444823745272 10.537714147604348
Zr 11.07957601107921 7.372714230134581 12.985946265261349
Zr 8.82210030613265 7.487459107684038 11.106836188976724
Zr 9.033747471876312 9.813173335040068 13.173649206842802
Zr 10.888536017113864 12.475436378588018 13.351645428346677
Zr 12.090205983834663 9.86264009655738 13.739062475204022
Zr 8.021378141565224 12.32255185309008 12.122919109253282
Zr 7.9166568054467055 10.125508537695136 10.139482315570152
Zr 8.113265321940393 13.00717424033107 9.237853511777267
Zr 9.762165787055796 8.389167606916722 8.486532881759388
Zr 12.45435129696151 14.028067655554768 11.075212301354933
Zr 13.461946050629496 11.466670939330022 11.742308124127476
Zr 12.631402591375467 9.28104472466248 8.644534728053719
Zr 10.783456345380117 14.071239220914505 8.604758225277012
