23
Energy = -165.69045939 eV
Zr 12.770503717183363 9.752515397520702 12.118140142987569
Zr 11.224312009322388 14.231006985122171 15.294482239355075
Zr 11.068100124812672 11.595642362973573 11.091891426511378
Zr 16.45560681189622 13.08187930869558 12.203312226882385
Zr 13.138972828763054 12.572461033687032 12.977811584739134
Zr 14.111661337100193 12.04739275255725 10.354469248524493
Zr 14.583316683129723 15.109185308586127 11.156714045245339
Zr 10.953138547059075 11.234739319270505 14.226888228002691
Zr 17.447147610746754 14.15831516103235 14.946103802819376
Zr 15.740571230852561 16.494763071283806 15.921793923687192
Zr 16.77846943667276 15.86570527920291 12.931430026247279
Zr 15.696275783633242 13.654544039344227 17.106710778790763
Zr 12.7305079024324 16.887712431389232 15.414691464670028
Zr 13.701261297894906 10.02494818850233 14.787334506899533
Zr 13.27928675199627 14.922253023616282 17.25211423536047
Zr 14.505801765154715 17.360353341417717 13.269246346879518
Zr 12.026951521792961 16.056963872818045 12.729913958677347
Zr 11.958093648416508 14.175456626611966 10.539305982132577
Zr 15.422910631199827 10.441345296950526 12.560886327285493
Zr 10.203171155992736 13.770560627977744 12.710421579750438
Zr 13.01759212332837 12.21522807803374 16.387884061146323
Zr 14.435705214213318 14.517324227892672 14.41755276156368
Zr 16.09933334774564 11.687748765175805 15.024723913338427
