25
Energy = -173.50220514 eV
Zr 14.856440433293969 10.786164584892468 10.81586966254452
Zr 10.084421491383797 12.17457769517912 10.576542177142267
Zr 12.032703328114176 14.891059883553348 10.533551704961944
Zr 12.418049780832572 11.654438094953244 9.366495129199034
Zr 9.150335095586149 15.447040416966644 10.991270680546892
Zr 14.721973524459862 13.335446382612924 9.740484888862257
Zr 10.147344045714277 9.408450359870166 9.803076454485861
Zr 10.753316988857714 17.539235056894 10.87025171547252
Zr 13.127412804411524 17.462639805619794 12.105985790612774
Zr 14.965001358670369 15.405740004240707 11.319838176503247
Zr 15.073051876780461 8.270587902153043 12.049179035731946
Zr 12.18773092564944 9.559799676364717 11.793672130132762
Zr 12.896603122570776 12.731521313739332 12.242722059576412
Zr 15.838885222996842 12.984264092192443 12.657196400537881
Zr 13.44928045629701 7.39370665971321 13.756121023359919
Zr 10.979556405147218 15.924360008778553 13.27999974717979
Zr 9.177568401196487 9.909733444451325 12.282094347338791
Zr 9.794542584386562 13.422458867657562 12.972378469466438
Zr 13.992896483674356 10.41096751119468 13.85958919282184
Zr 13.989719803253815 15.235681870600336 13.960029115567822
Zr 11.392422261774998 8.700130286178744 14.716585887704312
Zr 10.644766448177544 11.209959114835685 14.397774861187267
Zr 12.02124430814455 13.563824033855434 15.254783638057958
Zr 14.759057603628964 12.823649037432096 15.432284380717086
Zr 12.737839553080722 10.94672820415438 16.414387638373054
