20
Energy = -136.78636023 eV
Zr 14.762256278129295 11.007200972147734 12.666720129869312
Zr 9.345724097105446 10.963013899397342 13.383866338320484
Zr 8.3098693728879 14.47539880344374 10.181775309471824
Zr 9.093853010960382 8.967315709307172 11.350824562750603
Zr 11.343085359120396 9.622926267050495 9.327622792248883
Zr 12.883525336431417 15.059529083328101 10.692635157337573
Zr 14.709941426817625 13.888290033526754 12.392084577923347
Zr 12.01988886774936 12.646569865197325 13.072757506121091
Zr 15.387256852851694 10.169442338356689 15.370027632380376
Zr 11.758952286487325 9.676736975273327 12.223922831462989
Zr 10.875597931988086 13.969209111818246 9.206765155140396
Zr 12.482748652586375 15.59401371288714 13.39928629980353
Zr 13.965699649504884 9.135786577806558 10.508073389577705
Zr 9.782211430770438 11.6681490077084 10.644344857299467
Zr 14.178698098303325 12.893853188434843 15.014231091904064
Zr 10.03855898641293 14.248613438125505 12.29443759631625
Zr 10.353892492845624 16.455417485751035 10.672592024700018
Zr 13.08054367665149 11.978572439989247 10.29707192536566
Zr 14.155224862648003 8.33705305967734 13.542741842431857
Zr 12.65018306488572 10.420619765910738 14.935930714712445
