25
Energy = -178.78928123 eV
Zr 11.266839933345294 10.142873514195257 7.951362940216479
Zr 11.38630468314407 7.305006539390657 8.195279641006435
Zr 8.634160152666773 11.340974433403419 9.511322553055601
Zr 11.979894510445432 14.851265518197714 8.665447577253234
Zr 12.837208799152725 12.572360462435485 7.138331307838524
Zr 14.160541215548347 10.65445616613396 8.900485352921054
Zr 7.228418624119581 9.746858232025218 11.270559739837603
Zr 12.780816572301232 9.058654436825828 10.681663572412846
Zr 11.435974644944645 7.441413753441317 12.469176433743645
Zr 8.498877022027331 7.491547911294807 12.675476969906883
Zr 11.74150633318295 12.065131927305227 10.06405957136697
Zr 8.866360879031575 8.666801671028718 7.50427081126168
Zr 10.151787878276581 8.517230323850278 14.807157018043378
Zr 10.116275033868149 10.193232664635476 12.187755506732342
Zr 10.006896143714613 12.959510569582774 7.743308947840748
Zr 12.52010590034886 10.058617955899694 13.746816264654852
Zr 14.429567298530284 13.490282464514312 9.350080458033702
Zr 7.692692852553576 9.867282802015055 14.10630357859803
Zr 14.01308402916919 11.785811665810954 11.806973549275858
Zr 9.69366747760635 8.33686342147473 10.098969669976169
Zr 9.988602334621595 11.372841992098852 14.917431456126906
Zr 9.803436722376041 14.115134661085888 10.627932138678752
Zr 12.750260618765473 14.559846286921843 11.396027698185925
Zr 8.294904524258415 12.38013164481988 12.547480695243694
Zr 11.37483750944476 12.976537248990043 13.15523589149927
