25
Energy = -175.84872414 eV
Zr 10.408997996733966 10.770430128476695 9.54436280342805
Zr 14.931307316280764 12.617415355249115 8.913344963662963
Zr 13.182908614304278 15.384552595622031 10.92520121314813
Zr 12.990110023020973 10.032300612783406 8.853113015130662
Zr 12.101597451839641 9.604542832248658 11.674017053458774
Zr 17.4460864612316 11.90145250053358 10.062404693684197
Zr 10.54861728471224 14.73081467124201 11.136497545403156
Zr 15.08933432616982 10.390862597202998 10.929496701097202
Zr 10.02320277656841 11.990065766154249 12.114455896091942
Zr 12.617974633537196 12.380011636940248 10.564834330117366
Zr 17.328551890126842 11.360495371311147 12.656901868093009
Zr 15.379359251604416 13.346917694115898 11.737338460592769
Zr 14.64275351244676 15.884618597660067 13.222497911878635
Zr 11.721337056431658 16.394658482110657 13.469669705567526
Zr 14.391322472271654 10.953086362481598 13.619337525927467
Zr 12.427074795764613 13.522827854514498 13.447879062550664
Zr 7.627998043451221 12.034222787182062 13.52398758812722
Zr 9.276736875337585 14.560522155283314 13.740445367698749
Zr 9.272491623797904 9.727230818122841 13.413634311198694
Zr 11.81527010714542 10.2560808636594 14.500807293151171
Zr 15.397308565774868 13.455682829242782 14.640242562088991
Zr 13.53051065471988 15.325559779795713 15.719879931490384
Zr 9.883676860432871 12.088369834341602 15.378348486706349
Zr 10.929688253784684 14.751626081611033 15.94681438333347
Zr 12.926332665823544 12.426201305427576 16.155036839685163
