29
Energy = -210.8166138 eV
Zr 12.267674745638558 9.959811534942437 7.747221343697411
Zr 12.312925097529067 12.358315416087832 10.75261369016869
Zr 14.510146975454319 11.745537489717508 8.88687770013365
Zr 9.667514180486895 11.660554239413296 8.275782264606399
Zr 11.599483639751407 7.273433908427121 8.736429359145003
Zr 10.056970581499606 10.526826515949928 14.981133581985652
Zr 9.48431670865941 8.901482920411766 8.252927982364668
Zr 11.435812071184683 9.514669353936299 10.702463871149691
Zr 13.677410276305586 8.437169021930488 12.709617746899829
Zr 14.855544904923022 10.897759044040829 11.778391608675221
Zr 12.141146029370539 6.680273358021256 11.325630878288106
Zr 13.307401616559053 14.683330673091744 9.165453982608287
Zr 14.921802490336187 13.761808926869204 11.137997991363635
Zr 9.725953512362013 11.584655754307112 11.99287186465633
Zr 7.893626105055803 13.087830795832526 9.839780286259646
Zr 12.120149502909499 15.041900121184202 11.955598011190403
Zr 9.25518685187135 7.543535238947673 10.877320828735137
Zr 10.97529819799076 13.311180281060265 14.240356994573348
Zr 13.756936247304543 13.119935467041408 13.50279334451223
Zr 10.760462317924013 8.192341270975605 13.432903436905994
Zr 8.967731829462105 14.419029896289093 12.25488967267871
Zr 7.986951716285458 9.496553611954695 13.127323990027438
Zr 7.6895353352313816 10.096335536452015 10.169005815671923
Zr 12.648169373199995 10.64387896470623 14.021734528839348
Zr 8.18534733741232 12.407439651878509 14.411267408997501
Zr 14.10237895893433 8.666932650233631 9.787663449086251
Zr 12.074832485177808 12.836427968620486 7.60404344420452
Zr 10.40272294108017 14.467683029397325 9.522672408395438
Zr 6.783540038797615 12.10337844659469 12.109928026516611
