25
Energy = -175.68142974 eV
Zr 9.75682845189346 10.255069029095868 7.793881549789664
Zr 11.985719372943642 12.798536846702897 8.267523341053867
Zr 10.09603318626476 7.847795581030377 9.531487502960868
Zr 9.355328868406286 12.732109827579828 9.54365375359341
Zr 8.408087391114883 9.95293252477839 10.321161515119446
Zr 10.911171385710805 15.184304092103535 9.51835239921155
Zr 11.500357834374586 10.40263553123566 9.945097048010641
Zr 13.714136255193964 14.864334088106817 9.515217961460266
Zr 14.604078003595891 12.206493945587829 9.637963654696183
Zr 12.628883214460274 7.6386299421419235 10.796890922184256
Zr 14.815408940329133 14.223579294648607 12.156179473053045
Zr 12.09529280636165 12.92414201157688 11.397714479791903
Zr 13.739759361268797 10.12835390996463 11.822543793464133
Zr 16.19440964738975 11.674961900233999 11.975801739458694
Zr 9.849657304973855 14.765001530213764 12.326146247783909
Zr 8.935256427592064 11.917434343223945 12.298789675915803
Zr 10.372862231513372 8.839874176682972 12.374758683141252
Zr 12.442416613091304 15.949763579703786 11.85009970330415
Zr 12.991468749808782 8.300312052855277 13.806729302143232
Zr 14.278412945398125 11.965276347070093 14.02333887078564
Zr 12.391665137295897 14.257249205530568 14.120978600585838
Zr 11.583278125059445 11.032165503457698 14.002750324980385
Zr 8.728099137511977 10.228260658290248 14.605161719250919
Zr 9.704590171161673 13.109257091176179 14.781070520854213
Zr 10.674052104289874 8.558780654012063 15.343960884409862
