25
Energy = -178.33096223 eV
Zr 10.484533998677389 12.097947730666046 8.222065371975628
Zr 14.768953725323534 13.121675554173146 10.022711421153776
Zr 12.700563315959258 13.725766830880463 8.092808571074931
Zr 10.335676245560938 9.546425828419641 9.628044769234693
Zr 13.056787641664455 10.87487098359826 8.992720342138018
Zr 10.173166683296516 14.905828375777732 9.519390968732719
Zr 12.966350360290857 8.588403220532523 10.928800071856012
Zr 8.642253568428458 12.097416276974391 10.41378799159698
Zr 13.182718719818075 15.599558276002602 10.144169836689741
Zr 11.782443701846052 13.046084703994156 10.849886092053119
Zr 14.304832514482868 10.953724106783497 12.020902095010142
Zr 9.136226770781303 14.320464602082035 12.266112251384074
Zr 8.36652546153099 9.554879550322939 11.98023238535212
Zr 13.936566253072433 13.944712198578292 12.702585432147504
Zr 10.511155861116066 7.817814143997933 12.16355248340238
Zr 12.751237637211798 8.666677771309072 13.837829754202462
Zr 11.13496499937461 13.27998766921213 14.181474966505418
Zr 11.482340812141542 15.709766355568963 12.34740848465749
Zr 15.84914531540109 12.336012984532887 14.284227845394815
Zr 15.505631495737344 9.716461516490911 14.374556890486257
Zr 11.187493886873305 10.691374037702202 12.23063161076897
Zr 8.536951152202446 11.87923599791495 13.454420681783695
Zr 13.136311767254941 11.321264552277759 15.012137091311557
Zr 13.693139756129543 14.186452303530087 15.401174269109518
Zr 10.012887874098437 9.65605394695157 14.56722784025275
