23
Energy = -163.44329543 eV
Zr 9.261875153414108 10.989472388511409 7.970808391120531
Zr 9.846529867173214 13.834569590174409 8.68906360253556
Zr 11.903937787040322 12.196361959996203 7.297874712059424
Zr 6.7033307803014255 9.824060739286102 8.758489436594251
Zr 12.618146377675785 14.26499327227068 9.225034121301833
Zr 8.595974768272553 8.306121830851792 7.295971514226167
Zr 8.87522108741283 8.744418561956579 10.050479185442207
Zr 8.961987768476364 12.240404084366965 13.328609864944443
Zr 11.513379323052375 11.743907816479405 10.112704075849642
Zr 14.14632692039783 11.563822070036515 9.240164010277317
Zr 11.61851130540975 9.210994781621672 8.34523979836897
Zr 13.510137600305558 13.422413254430001 11.68279620591227
Zr 10.542153361719624 13.988247982667156 11.643713044806892
Zr 13.49936423715365 8.850970918127349 10.53579105808227
Zr 10.583747729251318 10.043687506531747 11.88880727809982
Zr 11.361043547303971 7.224581660050126 10.861166335047322
Zr 8.217972928610628 12.025349151458736 10.522031815854941
Zr 7.66461022268562 9.807916732014826 12.604583411623208
Zr 14.060596997435498 10.810809421560183 12.220070137542567
Zr 9.563057117677136 7.5583860682867385 12.984336249481728
Zr 11.907451051912151 11.967891302300856 13.812351391489136
Zr 12.415143434969892 8.66247754330255 13.476959797829164
Zr 9.850267425527793 9.895486039406542 14.674104092740087
