27
Energy = -193.18028376 eV
Zr 14.30070880185414 8.844849589505236 12.401866673922772
Zr 13.087986133201264 11.045172339954853 14.224113032497067
Zr 14.262891107069349 7.644216446630499 9.831052409122279
Zr 12.217779202378168 10.30543031658241 10.971038433243676
Zr 11.732873177188942 7.39257898737541 11.12990443212619
Zr 11.73813260172836 8.57236088446397 13.714323877601613
Zr 11.603168227197925 13.097928129025982 15.289441534402776
Zr 9.323809182826379 9.217778478613626 12.221707230010367
Zr 14.941236585868115 10.635044434655029 9.640860790396626
Zr 14.92185367042737 11.69173385841466 12.16016989697641
Zr 14.724493671318378 8.990966757102047 7.480442427170626
Zr 12.055339785321111 8.811215160723401 8.197515068693685
Zr 9.933240644819598 10.738755147483658 14.644598764707391
Zr 9.578016324297653 8.445816872197886 9.470206081736102
Zr 13.201328265918363 13.946300163059815 13.009232842665476
Zr 13.384584336084743 13.290387936452484 10.13391415852089
Zr 10.535478631823251 12.595353557086774 12.232789862562184
Zr 12.926944493633487 11.600348060558963 7.7502871549101
Zr 10.214993471159973 11.18491704353318 8.797802267370216
Zr 8.887872823847644 13.463910386520272 14.84896401665199
Zr 7.718736375252199 11.85531721686509 12.774659350849134
Zr 10.786089405311444 15.355037973816215 13.867726924033601
Zr 7.841617578245973 10.613200515876123 10.186070372829905
Zr 11.163497883834859 15.25060197342229 11.01790721067322
Zr 8.560239194087577 13.476941331364205 10.017701204969246
Zr 11.041746827782362 13.81025481624437 8.563804733066455
Zr 8.420724361353983 14.807503988778421 12.398405250332445
