28
Energy = -199.63271835 eV
Zr 8.665265206756963 14.351949765533922 18.670941623490176
Zr 12.735643802772605 13.633979013434454 16.674523862960587
Zr 14.867448648723608 15.101822667350634 18.038422430139697
Zr 14.15356869282228 13.667073135743234 14.120942180308383
Zr 15.20847252675473 15.43247147141471 10.117800228596892
Zr 12.257306906254414 16.625968532683764 17.207213756900654
Zr 17.10183511297221 17.167631630229234 11.391189781554184
Zr 11.361155236228274 12.861696466242808 14.039763118602307
Zr 16.321263309016366 14.755037538190905 12.94061867548926
Zr 14.253272585050093 16.994415794002933 12.35322158672373
Zr 15.801819534613404 12.700677988178619 16.447802698405056
Zr 18.149245755893748 13.091045493209732 14.952607355268524
Zr 15.588790444725825 17.703962891521577 17.346167121810158
Zr 12.937519000875875 14.217304587112613 11.491875997180143
Zr 13.377031066287751 11.411450175678695 12.38877091065766
Zr 15.598925434482933 12.581739175399699 10.901307462164942
Zr 14.354909696889917 16.445163507595076 15.326177830658873
Zr 17.926009690309243 14.611484603511004 10.428063486085025
Zr 10.168319676078434 12.293390753471794 17.17733158563816
Zr 18.3311690983617 12.591340419245743 12.245563957803862
Zr 16.12788015110411 11.282029815772043 13.644466873652897
Zr 17.257381300874105 15.490200872911265 16.09570552855568
Zr 11.295885656989128 14.354647101766218 18.951313570477357
Zr 11.896725866314224 15.720629461630907 14.076174509882186
Zr 13.52164433743832 11.086894462737096 15.286920209056301
Zr 18.98155494280645 15.503873888372524 13.23307591728058
Zr 10.02179204789251 14.879519751818616 16.179280428544512
Zr 16.74776714186407 17.578790480344274 14.158584546234986
