22
Energy = -154.67326897 eV
Zr 11.842872736684916 8.234939004152682 9.463386933142415
Zr 12.612164723035407 10.115916881885335 14.11595313080457
Zr 13.670050662546085 12.745760064533684 13.688129986897644
Zr 10.051102114332853 9.89953321415926 12.534286380257956
Zr 14.1191263860952 13.32384550396335 10.777110325355466
Zr 11.415125827801257 14.551125594450287 10.027603947120966
Zr 9.20054286244476 13.39149193477689 11.861922587265504
Zr 11.285410325623934 10.412312563040453 7.845151070111662
Zr 7.900072465809732 11.22309346544688 13.499810605145823
Zr 13.968099864748108 10.352557894614105 9.467512522459408
Zr 8.163718357798206 10.730297749822482 7.748127758287643
Zr 10.211968271267036 7.315244543445652 11.654960627775061
Zr 13.096582021861828 8.536556712871173 11.815347224941764
Zr 9.138571293341055 8.935959280621358 9.434332086046217
Zr 9.623997741782226 12.674059711183604 8.962757724931736
Zr 7.547197702082073 11.309092086384215 10.646978754492304
Zr 14.76084840150009 10.744258512302032 12.224640190345914
Zr 12.577173990521848 12.74274278432326 8.313055347470497
Zr 10.748075609470721 12.313467227995226 14.212429378399086
Zr 11.848829658585348 11.576727358645815 11.148747062618664
Zr 11.843105344854141 14.434472051068777 12.662943068327534
Zr 7.549642940632159 8.717204890142765 11.940815465354035
