25
Energy = -174.46500496 eV
Zr 11.452119044899375 11.032689808830623 8.00332220220191
Zr 8.852454142550874 11.200199484868776 9.235673563941695
Zr 10.375746626217504 13.649067195165848 8.668125365352594
Zr 13.593177261474038 12.877250611286135 9.256979681501367
Zr 15.197002991431372 14.454315793270023 11.075274495491735
Zr 10.722957716217335 8.958041340895875 9.736120400200086
Zr 9.530059506833465 16.157674240493904 10.244958345887254
Zr 13.583842795452455 9.985440805567782 9.862704619782466
Zr 15.946827314915613 11.777126308252177 10.583024605164278
Zr 9.080592893954028 13.744969182970271 11.330175973304637
Zr 11.115136577972793 11.700809655247312 10.874036050537818
Zr 12.03538755829091 14.711495611809807 10.956866706842433
Zr 12.678024101613385 7.720995201457416 11.46121153410415
Zr 13.879736656822654 12.32672775928515 12.462370905693003
Zr 11.818123029393593 10.023540233074721 13.158440637504597
Zr 10.908855111182074 12.994709260869433 13.810876678184599
Zr 13.161165506699577 15.119144888536601 13.570042559556693
Zr 14.830607641618142 9.248779567232498 12.457873901467416
Zr 12.965073356979003 7.895237182708665 14.381251940718425
Zr 10.280630500856079 15.84909219381432 13.077936684487359
Zr 11.770082470938581 10.567153566475149 16.09429748571263
Zr 14.377678132028928 10.37121894076212 14.880446641426051
Zr 13.313773551194439 12.997853282167853 15.66157238412273
Zr 10.709874019844024 12.938257048343013 16.897291142378084
Zr 11.350525548493929 15.227664894488822 15.78857955231097
