22
Energy = -152.90005009 eV
Zr 9.974533841929881 10.59555837870558 11.356378357770845
Zr 9.318643462528703 7.809649318176094 12.660454596944602
Zr 14.794097323328918 12.580842427594549 10.55469746350933
Zr 10.589433643972415 9.656256117365645 14.478296306988177
Zr 7.842536467505222 9.839287540251144 13.738531433881521
Zr 12.227044526925775 12.00403199037604 12.492145474207486
Zr 7.980739286340514 12.251363142275439 12.603087221647563
Zr 9.839330744339547 13.726888416630278 10.912093586007911
Zr 14.827595078055648 15.506932157603336 9.963462322137595
Zr 14.9450080276868 12.498081574632888 13.522561256175132
Zr 12.320229652988669 10.41158921110413 9.53558836310898
Zr 16.206179981576003 14.756877740325471 12.091630149122267
Zr 14.584754179155087 10.090159281356014 11.853406682475267
Zr 13.351747353609621 14.65264440988456 12.2591421008201
Zr 7.792123413433771 12.099276063015996 9.65562692594176
Zr 9.273037135547197 9.859063125705092 8.431038683715254
Zr 12.455419271030127 13.604434003452702 9.625493980077255
Zr 10.24821710824606 7.973707996888759 10.03233322600827
Zr 13.377320993371455 10.106801251212678 14.394805240539634
Zr 10.213224432033927 12.408474719224934 8.360832859513245
Zr 7.42732535614328 9.464755846969362 10.857496863225
Zr 12.190415501979189 8.58088590427568 12.22015358143967
