27
Energy = -193.61727573 eV
Zr 12.077425623598373 12.98024406848114 7.949134774099074
Zr 13.133395829578582 14.414752403094983 9.92636387936158
Zr 14.357217080208796 13.461693966619434 12.108307185877857
Zr 14.592417313202377 11.981132015124707 9.118218974276717
Zr 9.736848495914046 11.429146272134892 8.885845415956608
Zr 10.191823644329157 14.228029135773264 9.785003975976942
Zr 11.862509692202952 15.599220545993136 12.139802219444785
Zr 10.787312778036462 12.809823153627205 12.650322445078217
Zr 12.505464537595525 10.3994053729575 7.696524523605142
Zr 15.506070471988032 10.983739099939571 12.012515086711488
Zr 12.27425041868469 11.103716003263452 10.768279550819333
Zr 8.952191753575374 15.251413628403677 12.132302021991213
Zr 8.118513125986247 12.557019791562997 11.222489831729439
Zr 10.93148734237693 8.755189274045799 9.125955309367669
Zr 16.004387958994283 12.65309710035745 14.443533394929343
Zr 16.05999775790711 9.967740242466745 14.675755138580492
Zr 8.138924013645484 13.458653596969617 14.147996803295829
Zr 10.366926193900486 15.080099137185798 14.640644169937195
Zr 8.539672776804172 10.860847851527835 13.735087435846548
Zr 13.951712655781682 8.949241657989736 9.781080222840217
Zr 10.572118765878889 12.179700558195487 15.51458617190064
Zr 9.262985024110122 9.748580110854592 11.289454117020291
Zr 12.913458209501602 14.07893971052612 14.656512003677896
Zr 13.844162076695046 8.945889193023671 12.816880331693119
Zr 11.014995167225232 9.592560501009912 13.87461402082733
Zr 13.39992717913667 11.352048618207133 14.34867679840821
Zr 11.676465612265684 7.989044307603825 11.54835195798714
