29
Energy = -206.03794855 eV
Zr 17.114339290319077 11.461874523579601 15.527030091663098
Zr 14.536037105704848 11.057775112370607 15.241617362044636
Zr 16.29046848785849 13.392385148595418 13.63593481800523
Zr 16.683718306056175 10.837981949135276 12.611932910977334
Zr 15.10641403550684 13.888370632880795 16.1285240000958
Zr 14.661171755691267 8.913979792012238 13.355633303803087
Zr 14.25685547561543 15.500140072651392 13.615327743086377
Zr 15.811621411001537 13.398869822379266 10.787474967741208
Zr 14.89279796119601 9.68838360013728 10.364809489119624
Zr 12.881884900638191 13.02732555353754 14.358395394132918
Zr 13.745043003887673 11.457689243638928 12.113883266714893
Zr 12.452431196987279 8.641681762122897 11.633581527783347
Zr 14.109353498425483 12.292102160983614 8.892898398642625
Zr 12.443968378820514 15.581351908921116 15.970885243871193
Zr 14.059537285977191 15.184526367783777 9.024773098628478
Zr 11.600568255509144 10.126638471234633 14.082519720605983
Zr 9.642557794977439 15.903617559571408 15.63951608577681
Zr 11.27038895993744 15.659187082402378 13.348787151862158
Zr 12.912365733026821 14.161076821806928 11.180298776916231
Zr 10.379712303451113 13.216367890163326 15.448301053433715
Zr 10.751993194994233 12.394270272756287 12.035622843782512
Zr 11.496477502900612 13.289246059284272 8.617594217013485
Zr 11.935138692329504 10.44534733151781 9.49809618451064
Zr 9.633052186928987 9.717761311971586 11.574282726121684
Zr 8.624851322540044 14.256050821783582 13.303731027353143
Zr 9.449546338480863 14.476342547882311 10.3686379731884
Zr 8.767623261461345 11.274439223078808 13.992519896328956
Zr 9.298283814693814 11.617466189534664 9.3270217475776
Zr 7.7947102539065405 12.211851722373321 11.499453115117651
