20
Energy = -140.15849449 eV
Zr 10.12775228389532 14.105834025232816 11.65369039669716
Zr 12.497593889106838 12.259468725524727 11.993474488599956
Zr 11.803393127980465 13.65615776978349 9.26352614820116
Zr 9.677674525573263 11.53905845855463 13.32268894181605
Zr 8.838037318452237 13.870723116195855 8.96259856023352
Zr 7.551864816142217 12.694467543493479 11.399896938141923
Zr 9.965737798876601 11.652698328142556 10.200920261991648
Zr 13.201757992494048 11.164762933102965 9.195213399144588
Zr 13.857236404892426 9.482453715530598 11.392526572252214
Zr 12.21563792161321 9.870349996286565 13.809002969287533
Zr 7.4675701441804385 11.2315866416069 8.856502391956713
Zr 10.984897517823354 9.543763587994025 11.241147498400005
Zr 12.865363343826129 9.6415985087887 6.6161660170011345
Zr 7.798960064203014 9.6422326529134 11.458208456697795
Zr 10.568961921236044 11.0874303524776 7.599811395545851
Zr 9.652920603415968 8.455417610955353 13.578371460070663
Zr 12.10821988379052 7.257193966606297 12.360373951178074
Zr 11.934984989550033 8.340569575630173 8.994482165425953
Zr 8.888906505072635 8.798452454897468 8.778381989664584
Zr 9.48247523038868 7.115390073398209 10.964790048685671
