27
Energy = -195.10695637 eV
Zr 11.711025025067395 9.123744365571094 14.38833076303571
Zr 10.195515097053661 11.626633920793374 14.878320877319911
Zr 14.170844597351946 9.358930873152831 12.70034668060693
Zr 12.976121081255565 11.833234980442638 13.781225819344112
Zr 15.164371951241764 12.248862486077376 11.930764234835282
Zr 11.579212320425873 7.395283287029633 11.877230062985147
Zr 8.910945152294213 9.147253885281943 13.28264467907523
Zr 11.453347062220844 14.31107344553678 13.935264629353377
Zr 8.7216998243545 14.217024754065168 14.158747457046633
Zr 15.84633799118381 10.170907611495025 10.247070295046708
Zr 7.538437854485241 11.660343850552735 13.708342055843735
Zr 10.0080084002627 12.578172569131345 11.916505718359979
Zr 13.949079218062119 8.00269086980399 10.212318415235226
Zr 11.584697012719404 8.601359820195977 8.754411738965167
Zr 14.331379581131483 9.72762920090781 7.936724790167588
Zr 11.062705629827251 10.039739446883539 11.706148978207924
Zr 7.191403160837826 13.770379263292973 11.822120584694769
Zr 9.091972917798675 8.35867251584292 10.386222754753131
Zr 12.974382326712114 11.096663426582307 10.259918020591746
Zr 9.850903574738556 15.34028757369997 11.490855827314169
Zr 14.661071423136393 12.661708080096712 8.853423000308412
Zr 7.597870097197727 10.871311209301078 10.912405970192397
Zr 12.870946485651908 14.02131349227188 11.47039538431236
Zr 12.192694185269751 11.380969754562098 7.389893698451402
Zr 9.698499485211324 10.877640804259464 8.77503074780719
Zr 8.508501192611776 13.453830030130996 9.43546960370712
Zr 11.346858826288239 13.574701168602758 9.143333050537745
