22
Energy = -158.10511949 eV
Zr 12.155796995125257 8.268874028129915 9.077522381446865
Zr 11.885423289762018 6.958546348607754 11.410897420885618
Zr 13.747708123287106 9.377686418162899 11.403406778051682
Zr 13.214228691353474 10.850014654450211 8.559772142322615
Zr 10.25952404896737 9.792173822974773 7.581512178374277
Zr 9.303458184233575 7.822199059999712 9.975497598404761
Zr 12.224613199132058 8.422764910821483 13.860483329912046
Zr 9.523555087895158 7.441492314836575 12.97776898706008
Zr 13.579998967533252 12.229324388654781 11.217204762303405
Zr 11.252389682571943 12.612710829253205 7.065355826583991
Zr 10.813942506960352 9.740833768860188 11.654337791261458
Zr 12.748254942611569 13.803923130304533 9.222818433423571
Zr 10.649489244136007 11.709780762563707 9.809313421677807
Zr 9.821130595397532 9.867587111428238 14.505979118089202
Zr 12.268312672798096 11.45117612384003 13.615524497553066
Zr 7.876981780936419 9.84555379577633 12.139004054072375
Zr 7.817632936283684 10.173773806984139 9.321359283789482
Zr 8.494758533326687 12.302436590435637 7.821401571138569
Zr 9.949278249060532 14.45309126961206 9.053303436467644
Zr 11.116991250961082 13.87841453287289 11.797185519456553
Zr 9.364110866656013 12.20567673321758 13.289422411847562
Zr 8.078525993068798 12.804028756329574 10.802870305401788
