23
Energy = -160.81371067 eV
Zr 15.020789799439882 9.738109097433336 17.37769003022298
Zr 12.163740108557192 9.702016418692814 17.407059504651038
Zr 13.956078493553836 16.625704719251466 12.11084295154195
Zr 10.27198281884162 15.244980912735304 16.671443985183146
Zr 11.914491524765166 16.320121909775082 14.553887479277126
Zr 14.00843830744424 14.440364831660945 13.884767985727622
Zr 11.155180155946667 10.314079757555419 14.488834367090567
Zr 12.138132498796097 12.067819331590062 12.113377026699167
Zr 11.601067418787668 14.917245081724708 12.029579187480763
Zr 13.483832732599963 8.475734834265902 15.325429694830497
Zr 13.575082978650787 11.56780668779905 15.36649778388334
Zr 15.960427786081967 9.528158453391963 14.520902087635418
Zr 12.899414252261563 14.426597631877424 16.672345981007194
Zr 14.013189782855253 14.067158983742546 10.59833950150544
Zr 11.011548399454032 12.248816045360496 17.13856165864908
Zr 14.211079971530799 11.170578770612241 10.339024469349413
Zr 15.58485850904487 12.21000839287645 12.938965797367445
Zr 10.937721488792036 13.450167877049427 14.489348496590495
Zr 16.43335792501595 9.935509806924962 11.567907644341398
Zr 16.30528628602805 15.058722037415755 12.03210449348171
Zr 13.685733407573432 9.538899580433114 12.704895428473067
Zr 13.573988917151286 11.956147734620423 18.381226147436276
Zr 16.656685714200126 12.715545153460555 10.36472048197577
