25
Energy = -179.40489397 eV
Zr 6.910210315546788 11.397572474663193 13.458111988865195
Zr 8.16049864318333 8.860339645767922 13.8158070820216
Zr 6.710615721802604 9.337901569299436 11.28312024823836
Zr 9.153461553176273 7.714358754609468 11.37617643037411
Zr 7.0363996011075765 12.186920692737226 10.585587778422074
Zr 8.668166552915665 13.491569200477317 12.717088590923597
Zr 9.157063850832374 10.741021644481155 11.749518034123115
Zr 9.212363428138145 9.816585127758188 9.05792882384421
Zr 11.076252024359968 8.474343199731637 13.65007852863106
Zr 9.892449500274921 11.26003469480452 14.597436819303432
Zr 11.786354822969152 10.581062990590684 11.786019560643185
Zr 11.848619317968092 7.959414724624488 10.481180762182202
Zr 11.782399387369336 8.957504270282268 7.714935677112638
Zr 9.76584973927838 13.232055821110775 9.910932189650108
Zr 10.438251583366004 11.488301870778695 6.887637382235544
Zr 13.919046268281278 8.892387886770987 12.432902642745756
Zr 11.899456077516803 11.451726930910255 9.299487643089515
Zr 11.592405219043199 13.255738654357577 12.949621380112463
Zr 12.8745686361432 10.928865001380766 14.334111437995714
Zr 14.267409420969999 9.655163946262995 9.542859605108477
Zr 12.704523282580322 14.146392906819962 10.48211469964954
Zr 13.396305805699994 11.115611126473652 6.839810062231978
Zr 14.36583010011373 11.908430990869464 11.776184903540067
Zr 12.18510884827473 13.74949206189066 7.619878602923521
Zr 14.592733119156643 12.637226358706764 8.93207051055719
