26
Energy = -181.00800163 eV
Zr 16.69181190278023 11.584120833293365 13.69433825758355
Zr 15.195362146762639 11.588840950480192 10.93901773172429
Zr 14.753897671321411 11.909855771794172 15.582547170871205
Zr 13.469029934957883 14.06262830306686 10.039782771285156
Zr 14.659051189342264 13.473141654327346 13.009180387798004
Zr 14.235721963260712 10.203513646148357 13.30297280819557
Zr 13.939700182093747 11.422706837082147 8.374268206117012
Zr 13.360194964121819 9.386616143632086 10.327229227046741
Zr 12.061777035653183 16.76299332616159 10.167536626030614
Zr 12.258917981295214 15.168515483783521 12.582279407765693
Zr 11.923051942111973 9.440569763939362 7.6982278516463625
Zr 12.079958074145516 12.004130243131005 11.89052613834032
Zr 12.178276842060738 10.267594610454218 15.503517275060727
Zr 12.2084906976512 13.084232017691994 14.805183467358097
Zr 11.299397114063849 11.956730785245183 8.820175742183686
Zr 10.410466002012479 8.927226793862788 10.185386051349852
Zr 11.435873539776734 8.991168795006487 12.825868063109505
Zr 9.880059582703991 8.538592583861767 15.093956229427015
Zr 9.947457375246506 16.78776293095065 11.814051234007044
Zr 9.762664017414533 13.930032704718236 13.067627761138102
Zr 9.802083366201842 11.323838753166502 14.259560378991656
Zr 10.462123757583086 14.342967673583326 10.337927069296619
Zr 9.114994436950287 11.557157366592206 11.12264303401349
Zr 7.5395324066625955 9.369709809397904 9.980463765840176
Zr 8.425732372066582 9.141440296714382 12.687413933224798
Zr 9.043876343565197 10.47372727984717 8.114296005325231
