29
Energy = -210.50989834 eV
Zr 13.051068318286445 9.907598000405676 8.801606288283576
Zr 14.4915880048428 9.079190178694317 11.393679550412724
Zr 9.89349624308619 10.050296199779817 9.9653215659585
Zr 10.730894519840067 11.306831709464218 12.945883966399872
Zr 16.061849684616398 13.894561739030827 14.005933809863064
Zr 13.83437720044443 13.161946845432315 8.70313301326452
Zr 8.604809239658971 10.157524643523136 14.793643485101436
Zr 13.386951730481199 9.788731279550637 13.977587052274078
Zr 10.931223809920887 8.553546139425949 14.42782429599875
Zr 7.8836966187591155 11.457649074410115 12.193206434637016
Zr 15.658963951576949 11.383142282502174 12.838994315009547
Zr 15.056115025057652 16.17183159749247 12.647489620143569
Zr 11.275298799599096 14.22593717435658 14.984773433353116
Zr 9.658541433553276 14.341681909643151 12.470953869386786
Zr 13.893296913189975 12.34681774202071 15.326654938364815
Zr 13.849311712106973 15.669130327202474 10.255407678222623
Zr 11.166996974216552 11.186064804331334 15.863292510607154
Zr 13.820973729597439 15.310017175249394 15.052313305227948
Zr 8.94994756645124 8.726920878284496 12.400950175855172
Zr 12.038848731607176 16.233976982107606 12.697621115871181
Zr 8.800243734146898 12.874676623299727 14.75332233133799
Zr 9.269365196781886 12.827964155525995 10.125858484637703
Zr 11.381719973307474 14.6166440962402 9.89094645836667
Zr 13.321695599746134 13.6327735914188 12.607527937783066
Zr 15.958065353842876 13.763826460142687 10.980308794926717
Zr 12.562325914536453 11.526630240494537 10.860305729911865
Zr 11.745725381130406 8.493013845328095 11.548477732206873
Zr 15.538994512088822 11.146525816946388 9.894170901403555
Zr 11.151549795622255 12.156880036409614 8.223448274987252
