24
Energy = -170.76158148 eV
Zr 11.1330854377823 14.175218931700797 8.086218501923122
Zr 12.079140893177907 14.817777304507343 10.730271494802764
Zr 13.987761219447671 13.259786412619539 9.000293064899067
Zr 13.56965230676991 12.668113422357093 12.29497016153673
Zr 9.258021996301256 13.90795579253689 10.333540751109474
Zr 10.634188112990346 13.32894694077212 12.899118683221355
Zr 11.453029220594756 11.519340069012706 6.935327430604594
Zr 8.786567063014452 12.36517778963916 7.789795048574841
Zr 12.006436617327054 11.993339564090192 9.899755278149717
Zr 14.349795208766123 10.342355402811302 10.797284694684969
Zr 12.099122053116377 11.529385803084299 14.739284889798304
Zr 11.233688470349069 10.283978768244596 12.23822794292267
Zr 7.951249225508296 11.88285830878932 12.173792902510893
Zr 9.651082087461685 10.767370571791574 10.041186997583418
Zr 12.118865860526933 9.168585438830798 8.405799400584158
Zr 9.226672963330584 11.210557753582473 14.46990957137071
Zr 12.849302007261292 8.020191394344598 10.769976722046398
Zr 13.424002288042955 9.022276595198441 13.509068910461103
Zr 9.347618844420726 9.461140080326775 7.479781969646885
Zr 7.2912701945017035 9.760269811234416 9.776446660381659
Zr 11.033355413361654 7.263648957479309 12.687770607395976
Zr 10.696957854900496 8.926182152040829 14.837259572575904
Zr 8.453764109963588 8.91848632916441 12.567015369214383
Zr 9.829296196503291 7.804016761548128 9.998769909123055
