22
Energy = -155.18782956 eV
Zr 7.813274299938044 9.24117324788917 12.25765298577019
Zr 9.224205271172874 11.179601395113405 13.972868534241908
Zr 11.14952985553128 9.051448338445963 13.080250165810584
Zr 7.131932766952423 12.195309074981655 12.1058553061468
Zr 7.186282252070179 10.269907688863807 9.475849776591579
Zr 9.799986448885212 8.496374513856185 10.352532701841033
Zr 14.04798200445391 9.81100088324816 12.515708255003604
Zr 9.411734300730497 11.359642901238361 10.994512366680787
Zr 12.129159684994097 11.916676383714154 13.573782461625457
Zr 7.464149348336079 7.381869883564643 9.26082672710738
Zr 9.711173824221428 13.707363734971038 12.796027410481937
Zr 14.333248526108326 12.469215466246133 11.347879850832904
Zr 12.11429854693006 14.077539437913282 11.37297814362366
Zr 10.27499382750334 6.806428724004823 8.3217255518038
Zr 12.698779763870803 8.017619173891005 10.582283944118192
Zr 8.896944306297346 9.038122519828349 7.386703451115139
Zr 11.990692394408946 10.933819894775969 10.79435768466186
Zr 14.425312943144034 10.16351777131842 9.56477524060327
Zr 9.853622102332139 13.894407550083697 9.683896614490516
Zr 9.809331792194563 11.63917466083668 7.9667537835426625
Zr 11.84343082600083 9.516507409407769 8.045514077922665
Zr 12.614528568984346 12.691465909176564 8.68310761316689
