20
Energy = -140.96816774 eV
Zr 9.24486435392278 10.168211424749641 8.683695028555173
Zr 11.547875243301945 11.23072131222737 7.913674796551702
Zr 9.214226582542098 8.347606261266371 10.639661676215635
Zr 12.52072140302548 13.618239835020042 8.791998203913982
Zr 13.212320497371346 13.006592719877833 11.484921058086382
Zr 13.944175848544132 10.885693253340222 9.286556157595157
Zr 11.954913785744756 8.764646526110337 9.491642498380898
Zr 11.090201100594562 14.793001401149315 11.013801778491501
Zr 9.511758506561547 13.03369810982286 9.239638188073895
Zr 7.827636166083449 11.049745343846283 11.149228882470485
Zr 10.777736937657266 11.07224026294014 11.259892084182392
Zr 15.649205830107904 11.739762175672185 11.506778663918544
Zr 13.72901205249544 9.663795835103643 11.925461745110725
Zr 11.24536320826481 13.395036911689337 13.687767629034797
Zr 9.071354445279846 9.144811248226343 13.275630676817462
Zr 11.4927707438366 8.052514044204411 12.289361764104479
Zr 8.83612434745574 13.673373288348659 12.041618741458697
Zr 14.035202755968745 11.96905627385562 13.889402973032015
Zr 9.043647754248383 11.7101104868038 13.946180925349173
Zr 11.726503427132263 10.356758275884486 14.158701518795805
