20
Energy = -141.37713119 eV
Zr 9.071317423027043 11.420111691901342 8.754674300459051
Zr 11.084566926607106 13.369270004943433 8.649165199427026
Zr 8.775228932443484 13.73023395842693 10.252243045907424
Zr 11.929208736918524 10.527880849021356 8.62090823808209
Zr 9.573869036054075 9.091633347290871 9.918211974001473
Zr 12.153758082001694 8.500919179057705 11.083889454934223
Zr 13.598909495866204 12.900865803943713 9.85630277134727
Zr 14.266407577486818 10.141562616323283 10.206828777659338
Zr 10.93666806582689 11.603314369439879 11.251060835005669
Zr 11.40192250569615 14.73295580373063 11.249682279042128
Zr 15.523331424935915 11.87588135599254 11.969575910811347
Zr 13.928806386124526 14.113074581122206 12.49749979291296
Zr 8.047122372505154 11.13191049231451 11.766933231428148
Zr 9.652781019519098 8.834257340831263 12.606218062818115
Zr 14.55968418412314 9.12878515825052 12.779118715716226
Zr 13.090055583851662 11.476823195199735 13.463553178721202
Zr 9.086596385935998 13.633979527103824 12.93370392471886
Zr 11.554872892410154 13.781630890702491 14.021798060052204
Zr 11.981122553088042 8.955446564042175 14.053354989279594
Zr 9.947735549897583 11.213428404680903 14.229242391995367
