29
Energy = -210.32569324 eV
Zr 11.941972720103525 14.994691097187436 15.131835276587344
Zr 10.446970120245751 12.430910809887369 15.229930309359078
Zr 14.819039349249167 14.755186023384924 14.822428821566636
Zr 11.76021679487559 9.774817068932611 15.03416691777577
Zr 16.156064856684925 12.238522011689827 14.840300882436834
Zr 14.64877510138466 9.822631491217455 14.73319266654793
Zr 13.712171397252677 15.732511410950519 12.348512406015056
Zr 11.301348666999727 13.851282831348271 12.434110413989767
Zr 16.058612837507468 13.778363222790414 12.189513245688923
Zr 11.191147722599958 11.061922770115824 12.387268061335051
Zr 15.955167534262776 10.807519365567888 12.135393085485378
Zr 13.474948342289585 9.021989989181717 12.224793472200224
Zr 11.665808337945508 15.142131151627707 9.76485408801052
Zr 14.575071518164336 14.84906461602687 9.727849567944899
Zr 10.048722543268285 12.542978870157398 9.701141165143943
Zr 15.89052526508423 12.347781396094227 9.47313134806191
Zr 11.483757403486829 9.840656720423807 9.675508857513748
Zr 14.408345874367788 9.933964645754623 9.635312085287945
Zr 13.446930931934359 12.30473546664247 16.395445882396896
Zr 13.511919032228896 12.350005093687079 13.72070144357735
Zr 13.418792150331813 12.404175347293839 10.887565518860884
Zr 12.949139553234893 12.469829956050996 8.274754394636023
Zr 10.945083740732455 16.671397783908287 12.528652721924054
Zr 8.995621646444832 15.0038519785571 11.079438553176187
Zr 9.14669425212212 14.93072966050742 14.077074808031002
Zr 8.299858377487448 12.55509394184763 12.440201724411414
Zr 8.974051291852936 10.06745439300982 13.988906345597728
Zr 8.8235201686591 10.112070556151664 10.991772554720402
Zr 10.653096000233248 8.267477718402679 12.379000225069783
