24
Energy = -172.15275361 eV
Zr 11.776339602236252 15.569278295453689 18.27864969530152
Zr 14.296960425922741 17.25770413127804 12.718179533891407
Zr 14.622427755050929 13.096294858805832 13.659884832067801
Zr 14.436564204542249 16.382223708976078 17.455755209306208
Zr 13.190963678191645 15.270854750109317 14.998419463646243
Zr 13.615091126516617 10.173864447705613 13.966725665489214
Zr 15.851968013953089 13.681680249993395 16.647272910899787
Zr 16.138795143346297 16.28737091152895 15.003958160658845
Zr 17.565122478710222 13.936196173593698 14.39838729940029
Zr 11.609133904603969 12.044778580544966 14.9087357635693
Zr 12.746920456334779 13.326512456736591 17.34709332830155
Zr 15.135012472682893 10.695580976204468 11.808086674114657
Zr 16.22526729376272 15.310590295076238 12.096386524401751
Zr 10.376385298420983 14.712908509538446 15.85467502172822
Zr 14.80871294923984 13.190800453485314 10.524437094791498
Zr 12.387804067252558 12.071270081933786 11.949698973287358
Zr 12.974770274063575 15.09435330414032 11.508257554749619
Zr 14.187125540025155 11.299606956380568 16.346650005982596
Zr 11.416873827827239 17.016254288494004 13.588299505129623
Zr 11.635584929062126 17.490788971102404 16.47608468575258
Zr 13.899608094360895 18.23032122922669 15.178916889785656
Zr 17.19072507345536 12.572331973420603 12.040092893469371
Zr 10.818791968914521 14.179018141113799 13.086287989816318
Zr 16.52188411435639 11.11858853383739 14.619049198580187
