21
Energy = -147.40248411 eV
Zr 14.351764434638097 9.73379333676772 12.989621667949304
Zr 13.962411685238541 11.354953220161248 10.48120767289803
Zr 13.187465941109837 12.59212711577241 7.958768162018333
Zr 11.908228774992665 13.58999292239436 10.41974534161826
Zr 12.73987508189209 8.549737996176482 10.853843889919414
Zr 12.770761096381458 9.861374401949288 8.351825366952244
Zr 13.231269594708317 10.67081321845462 15.323736255104295
Zr 12.323110216837277 11.843701279887359 12.81266588538045
Zr 10.983454191957726 14.268255326546706 7.829576280328691
Zr 10.484036155698178 10.75968932228774 10.531666336404385
Zr 10.481808176781483 11.442359194123574 7.434475246464021
Zr 11.593889146581407 8.941237850824988 13.682558936761602
Zr 10.664426213266273 11.473009213460935 15.085170030601654
Zr 10.097779217818012 7.770174271932014 11.61090061040444
Zr 8.01549514416126 10.761609887576153 8.545792076727196
Zr 10.167076912765868 8.557211825687231 8.696160885763717
Zr 9.633636713814028 13.06924315347421 12.480505722490289
Zr 8.904883302873795 13.416082693606885 9.540933498792088
Zr 8.897455509051662 10.109016824844316 13.2059155714895
Zr 7.886087616126606 8.928000513223678 10.611806826384836
Zr 7.48813773031626 11.662602319282106 11.231574595779673
