25
Energy = -180.82097114 eV
Zr 11.12209707052131 10.104530460458593 12.323067655933373
Zr 12.081292031931586 7.371413051009058 12.794150496444415
Zr 11.952513540734513 14.360225030491092 13.401834664542397
Zr 13.445015550963296 9.547392815350895 14.351013142217994
Zr 12.392047384783991 15.84983772062955 10.76917740112549
Zr 9.63445160723093 7.781100778942765 10.850564994901355
Zr 8.187947034176677 10.30919350324411 11.62666320364757
Zr 12.2036346357011 8.134218417164483 9.977398473767659
Zr 8.85149946646603 10.59397174690664 14.49700332495478
Zr 9.255763712608665 12.879860276398755 13.021568555500568
Zr 9.813280974936266 15.03260386789095 11.450098314244494
Zr 10.110282146386819 10.027856345187985 9.166259046908726
Zr 10.665349275560091 14.811082032243846 8.790182855428142
Zr 10.958714043904 8.83591193566172 15.21263476955589
Zr 11.089507258301408 12.295128391285624 7.876863068782237
Zr 11.579673256435038 11.763777698115259 14.918396841199186
Zr 11.906498002522307 12.720848748597266 10.870842200325534
Zr 13.586157429381206 13.763825837937146 8.73364341391257
Zr 9.024970688885993 8.01252397577578 13.443537630947974
Zr 14.159125832379907 9.518499357230498 11.591474992177007
Zr 13.14185310138652 10.588792465377267 8.859904629224035
Zr 8.91851833458664 12.652307512523015 9.879592360614524
Zr 14.432779511595037 14.352886367436515 11.654913124520348
Zr 15.072288699239051 11.954886452627122 10.515112933796894
Zr 14.061167660957025 12.092760064223748 13.299466315905416
