23
Energy = -163.85557599 eV
Zr 9.033608798342817 11.905823813469404 6.75221725788204
Zr 12.206936815404537 10.77293213303125 7.33268651286207
Zr 9.47265656886175 9.814709979338911 8.212716515503269
Zr 10.055351123156226 9.04054714103257 13.737908656531344
Zr 8.639604424136147 12.196132631826742 9.994836087181268
Zr 14.145283382734126 10.182969343709528 9.817736348962622
Zr 10.705675114405297 13.330930460740465 8.119106138871164
Zr 13.359643207167053 13.00692771559139 8.819795459738696
Zr 9.344590656930112 9.215597126933451 10.95008725824798
Zr 8.512619868629903 11.306082100693676 12.789541065987654
Zr 9.780084288701241 13.892273916415144 13.708183652070392
Zr 11.118376847533332 14.123340086763505 10.846231097092183
Zr 9.789192808187487 11.362033794763779 15.308842130660919
Zr 11.764061992014847 8.443582273890076 9.113431916148746
Zr 11.50176138561656 11.143670700228633 10.221654109476564
Zr 12.334799643783091 8.531960216676218 11.951250754805523
Zr 11.638076569819148 11.687859841463657 12.99057469730494
Zr 11.918001458863458 13.036248908136361 15.673149298363661
Zr 12.593685016369845 14.586863227060661 13.314487515773974
Zr 14.178172178362303 12.982649730953494 11.441517108186295
Zr 14.483638659647863 10.244516014581349 12.660642919739725
Zr 12.593412891091976 10.00358247250354 15.066823316242308
Zr 14.282438531909479 12.421232235240806 14.320723173620344
