22
Energy = -152.34890293 eV
Zr 8.467111563700826 7.178717594632514 10.359799677692283
Zr 8.240718167963411 9.033527001288382 12.312435000104442
Zr 7.241906038761687 9.779631628354673 9.875257019848606
Zr 10.940710009423707 8.080911681002737 11.935580165086918
Zr 9.990196556463262 9.11567262102131 9.00807067855204
Zr 14.00447561075573 7.587498557325015 11.92034670915255
Zr 10.035868801273493 10.45525717824775 13.886643762872907
Zr 7.8634868879134086 11.864521405282636 11.955741690217737
Zr 8.697221128227794 11.844028961872024 8.725518232376078
Zr 12.942767903684242 9.427998996306306 10.079852461424816
Zr 12.856172660290316 9.53203073854786 13.616766647878016
Zr 10.683320312051517 11.28571566819849 11.042490102920597
Zr 15.120700762991932 10.207776467318975 11.908414822736368
Zr 12.132871219018522 12.130832853010304 14.973145120843023
Zr 11.63667265859596 11.511143066519736 8.112811437368544
Zr 10.272426706442756 13.44356636786134 13.216500536698849
Zr 9.135981058698349 14.093831018520888 10.731264432480922
Zr 14.068039223777768 12.029071044290163 9.750467719511379
Zr 13.126541501787015 14.019602520839506 8.059477529875803
Zr 13.328980559804586 12.39516018880451 12.570886838507393
Zr 12.106908983249282 14.208912903164354 10.775650633656525
Zr 10.417545643555066 14.153094250965555 8.332119476502688
