21
Energy = -148.01166749 eV
Zr 10.589829226554441 11.426611255049608 8.141606399032586
Zr 8.293737820610863 11.926541523665982 12.906694697624934
Zr 9.706623472883726 9.284208453869619 12.674007256380069
Zr 11.067446370512144 8.978873674448755 9.814050532427359
Zr 12.305783986174724 7.74570249032278 12.3004936797652
Zr 14.106010317418722 9.037238428714074 10.331503531351874
Zr 14.576241405695827 9.398259033366458 13.209651788229547
Zr 12.029544743956867 9.496988449518604 14.673767345542913
Zr 12.200730203498539 10.55028858922431 11.950312274696506
Zr 13.155618562439798 11.542554469059182 9.027181396252079
Zr 10.617271419325963 12.095739942074719 14.310676830119514
Zr 9.511441766774302 11.684068146256402 10.556731105277358
Zr 9.674410459652181 14.478876683111 12.11412940204876
Zr 11.035741473740746 14.1831787144159 9.251220971326104
Zr 12.186908838228653 13.12191776291726 11.673360222006483
Zr 14.07338862246381 14.278784885816362 9.765713044069177
Zr 11.99639696283535 14.729158564193122 14.108971067730293
Zr 12.253956861823141 15.936734966452246 11.415853652921903
Zr 14.54466019799505 14.545217842200783 12.654774524177194
Zr 13.70836341176645 12.10749024291402 14.243963271250047
Zr 15.04778521636628 11.814325723045604 11.443872615055842
