22
Energy = -158.05932655 eV
Zr 13.482672116651743 12.528255420825317 9.066218393998561
Zr 14.78790116880387 15.36253576262305 13.812751284380806
Zr 9.836001429120481 15.164631330001686 14.498552878335207
Zr 9.737517626796334 12.346678712885293 15.291078028750341
Zr 11.620491201768656 11.045702272365407 10.912457048112488
Zr 12.399832003269262 16.248909602364183 15.262633523648384
Zr 13.75074508850996 10.042507233267218 13.585365060124825
Zr 12.658512852017047 11.392748874623049 16.09979234711434
Zr 12.275392778571911 13.432020579857562 14.158346174278316
Zr 14.01913656255304 14.171278682503749 16.500231797953006
Zr 14.357459703020623 10.10407787142049 10.468529714483612
Zr 13.909523440303804 12.642656485895785 12.0183603701063
Zr 16.68111479207871 13.73542036706171 12.443645235990536
Zr 16.11234564991277 12.446571603136041 10.0178807064456
Zr 16.312210552928168 10.84631160925718 12.460420004020028
Zr 15.402602535761108 12.338586942385556 14.818053656347479
Zr 9.871938443370226 13.134421634159345 12.382665515481893
Zr 12.102649336634087 15.891227289047459 12.387041088071234
Zr 14.49918278604817 15.066685025979405 10.665203711034254
Zr 11.60636268368347 14.002164470546473 10.28893736287865
Zr 11.241996553943283 14.09016495599772 16.87431390034612
Zr 10.936251352729807 10.590818575849196 13.648393761898987
