26
Energy = -186.45308568 eV
Zr 10.100464764095108 14.763646546101056 8.687455869605921
Zr 10.967140323067937 16.97196054203415 10.342307472848205
Zr 8.78751307554736 15.269536666336053 11.23882258854954
Zr 13.193068929784827 15.231360758392633 9.074892762389752
Zr 9.136787376257983 12.457202710827186 10.40687409107982
Zr 11.616981534280692 12.289728390608348 8.620367356196155
Zr 11.64027300334983 14.251968235092098 11.162429054194059
Zr 10.6981259652495 16.2138942145384 13.2223127682968
Zr 10.519575580852388 9.095162740843103 10.348444472348039
Zr 13.307641759719555 16.57224187631048 11.9435239273018
Zr 14.230873460747421 12.418932709778355 9.663404263633835
Zr 9.685970800597925 13.3807824783934 13.365580035330558
Zr 11.655520419251744 11.614888778314057 11.458788502515901
Zr 14.770398283219693 14.26006631397033 11.574510710135637
Zr 13.463287526309264 9.633385367810972 10.031436693548414
Zr 9.379775286858145 10.214215996081375 13.010124687383373
Zr 11.65582187257328 11.640850828798406 14.718204013531563
Zr 12.208909401865144 9.361233914922042 12.778329271072845
Zr 12.596890447179664 6.964782336758167 11.208007534134692
Zr 14.419645697005341 11.536688612553759 12.73333300587102
Zr 10.209033692951166 7.288029207117871 12.831829193163797
Zr 12.88962391046991 14.263889234037757 13.873236466225778
Zr 14.876461969878672 8.493943223731291 12.525206589082158
Zr 10.916475751515199 8.837678911760488 15.301372672464142
Zr 12.895397033689916 6.961725804164359 14.18251148558831
Zr 13.853084972287435 9.63734573046952 15.146975123079436
