25
Energy = -178.24919682 eV
Zr 12.806970570060123 11.416760410898496 7.985702437039565
Zr 10.232039905710128 11.033527189195201 8.741003903281227
Zr 14.04914871850315 13.638084918120855 8.970014934591768
Zr 15.04650903466551 10.748224813991401 9.814587537718916
Zr 9.389206058735283 9.557399307777459 10.72065882127136
Zr 10.976507323086985 13.668416573046676 9.190063541551241
Zr 12.258875418483363 9.055079811890776 9.793489610285436
Zr 12.58224273576984 15.000403882292728 11.238927465536928
Zr 15.340583761925707 13.625087688064704 11.34811782349257
Zr 8.42357674029844 12.38134449665777 10.748849083497237
Zr 12.804992944768482 11.730651721362955 11.028062952835485
Zr 13.974868832703422 9.0900172520599 12.117171207739407
Zr 9.608112767153496 14.871441803388857 11.498898149895219
Zr 15.356298983064931 11.387371892376205 13.03066162661388
Zr 10.768093768484766 12.25367592237704 12.62618328316513
Zr 8.355323523540115 10.414780761000083 13.062424292278555
Zr 11.140711410469798 9.021778485340278 12.79917325468613
Zr 13.57597148083234 13.894575613671487 13.735414256298654
Zr 8.578801761683238 13.245301035604182 13.930064627984207
Zr 16.449018944892092 13.758005172600981 14.258904705453617
Zr 12.904589166506781 10.517241721737506 14.537677928587158
Zr 10.915488239013202 15.159565837736952 13.838539238986861
Zr 10.040783636585733 10.714911407042273 15.178189561074412
Zr 14.683618334083654 12.427350657411552 15.854679093885368
Zr 11.40521323830574 13.056548923680008 15.620087961575654
