24
Energy = -166.82792589 eV
Zr 7.036344884878546 13.66140848524784 9.352138796422258
Zr 6.979643328846201 11.573571706238996 11.128361814556845
Zr 8.6862082756342 9.29623557945959 11.07041719173658
Zr 11.009839677353497 9.555963155650812 8.793939958801197
Zr 9.059847735062466 11.68478749724675 9.02668232244864
Zr 9.631800797734 14.443376276774325 8.803466816155533
Zr 8.757168976894548 13.827456389879837 11.671643188808012
Zr 8.627637592811775 11.333695238921786 13.456153564546828
Zr 10.183775844256886 8.828079866769244 13.427465184664978
Zr 13.459286018902365 9.9589020637264 7.2488437576819935
Zr 13.233780653375458 7.619347482062112 8.472601720318593
Zr 12.029784935825504 12.334447034494206 8.813547627578494
Zr 11.473071532772293 8.03657955077161 10.972518432933395
Zr 11.079143075510231 11.263498570168066 11.655623719642044
Zr 13.701481650415035 10.020132734996075 10.14893936970088
Zr 10.76664693397629 13.627088062084644 13.721090656529329
Zr 11.228685120425622 10.913791770861234 14.868887374165704
Zr 11.466169607084417 14.531890575803125 10.934842635522944
Zr 13.196241119887125 9.226531739491769 12.98460184501728
Zr 13.887924386486992 12.830049118942378 11.035722112877135
Zr 13.487108378083722 12.404051275894863 14.188136905119134
Zr 14.43023098160965 10.106997400708572 15.236136326361606
Zr 13.430380913470477 14.834127430540967 12.963635021057147
Zr 15.496773338106191 10.865524974400511 12.665380323819024
