26
Energy = -187.6756041 eV
Zr 9.851982486175968 11.488646116008068 16.036447033207946
Zr 8.009357839962107 11.282869209849585 14.038310861669052
Zr 11.933095973520034 13.303845382778785 15.802023865645939
Zr 12.445230124630884 10.513751073620538 15.490579199441532
Zr 9.256233765996956 14.052547316043121 14.436341878330904
Zr 12.999119945404798 9.195412103055226 13.243900716074712
Zr 12.026663778718698 14.968843388452795 13.743642319492011
Zr 10.083747313143716 9.198385370407513 14.033053355761197
Zr 8.768057320842871 10.209565088312667 11.420988499429805
Zr 8.066863503130161 12.986976808754136 11.92648421800895
Zr 10.236604638917905 14.749399477832247 11.51803398884114
Zr 14.003208948586622 12.582365195677083 13.746960743719189
Zr 10.890356707216876 11.994846302492405 13.097021420589098
Zr 9.538539658518225 12.407841732068393 9.580848710269448
Zr 15.255107328242842 10.327932286659404 12.218943614149033
Zr 11.031323612349503 8.484723576654337 11.476869096064036
Zr 13.562006994625952 8.705014054672889 10.226012305908
Zr 10.808742117797452 9.702242220895487 8.922961900125232
Zr 11.606814189978579 14.440215048144395 9.061330674963845
Zr 13.274661114063283 14.660565490970985 11.33889897235877
Zr 13.536339821790449 10.376265454661079 7.789084543756896
Zr 15.579219914266499 10.799922693369933 9.512203345817099
Zr 11.570925201903423 12.190033943556656 7.566091294203218
Zr 12.670502804060781 11.607598460228683 10.51414173761809
Zr 14.24258290005916 13.289080459851707 8.582646451152375
Zr 15.520071510384389 12.969736415013568 11.282640103775387
