24
Energy = -172.01762874 eV
Zr 12.70757881257784 9.303867027963967 8.859247124826844
Zr 12.032503298543464 11.765240997991212 6.836454691843847
Zr 14.835865037587121 9.778573504058667 10.852967250409968
Zr 10.027822364833884 9.742179000859162 7.190850223663082
Zr 13.682325372426531 12.29137571570508 9.353498437648437
Zr 12.383312088391683 7.932892904118803 11.721463582150083
Zr 9.961234450520896 8.053031084021184 9.582146105406293
Zr 14.043943881974041 9.84108306595696 13.703091391374368
Zr 14.609652538235732 12.427643406546638 12.239626704353556
Zr 11.30059314614758 14.173407046652484 8.481415945044418
Zr 10.710555407678875 11.566586836000123 9.300845593627193
Zr 9.142026047299558 12.579790415908795 7.235141781760803
Zr 12.360521795560325 10.81426433944663 11.690466266672912
Zr 9.640585810268494 7.590846359792259 12.639303414086383
Zr 11.760111430182679 13.783815885458262 11.386783657659077
Zr 7.736885191694374 10.59718547327196 9.023883296128664
Zr 11.080449472705517 9.638268183870297 14.28129506248608
Zr 12.469142937788721 12.326610016509202 14.134322951412027
Zr 7.356864100113847 8.626765428928389 11.243733887214182
Zr 8.152895946254942 9.84548541258586 13.853864882081691
Zr 8.759009577604141 13.436714535274577 10.319844880508304
Zr 9.695275150092034 10.263311468472017 11.461658662083238
Zr 9.658910390846962 12.532334722994522 13.29665485341091
Zr 7.100709537557985 11.537906249706424 11.798676832273026
