26
Energy = -188.01658962 eV
Zr 13.143057307096484 11.475566525956914 8.291880591211422
Zr 15.817792971513962 10.107809668423126 12.456452995952388
Zr 15.422797993240701 11.654409386927595 10.076483504106477
Zr 15.274282214627261 13.1378656792454 12.707962389146921
Zr 13.568555315875132 13.902342729093084 10.131517007744394
Zr 12.910945594855571 15.20850823570029 12.538663711081572
Zr 11.340102825702223 13.890139741775632 8.198322748269668
Zr 14.15951099919835 11.09115503448902 14.862982176939486
Zr 10.473360651221618 14.803612113466315 10.95668908482474
Zr 13.506179990578806 14.017604833139245 14.930517177634222
Zr 10.940066552016736 11.859188625155339 10.401633364115908
Zr 13.241381877329125 11.181841630913175 12.004153952398124
Zr 10.626679161795456 14.824613077373499 14.590261076920092
Zr 11.268043952207206 12.62468431441536 13.206909978552037
Zr 10.181226129056292 11.285578156823515 7.632446353466066
Zr 13.863057348753301 8.967198811458791 10.31670993363608
Zr 9.12133418491548 12.156582718963119 15.049296497711655
Zr 11.692938790152528 12.45252972143977 16.22151285552581
Zr 13.562061370905868 8.575748176381662 13.331180961847332
Zr 8.66735330911589 13.220520749312666 9.130778119411703
Zr 11.275869864908241 9.155134828257774 8.943307668462484
Zr 8.984777426570743 10.28390368706451 12.967890116737408
Zr 8.431248131482366 12.915817546100204 12.034789395025799
Zr 8.623497542029522 10.297405933187546 10.08869343410372
Zr 11.310645600318436 9.920564178305174 14.740683283023984
Zr 11.105424937612241 8.733140046231165 11.761647645290173
