28
Energy = -202.38415047 eV
Zr 13.991978011435732 11.8603038434035 9.071100451937468
Zr 15.709007192107107 10.623655216537866 11.399922218699746
Zr 13.301234436676596 9.313086707612907 10.649118867780292
Zr 11.067973128743107 13.159235135182593 8.514205780421378
Zr 11.107241244570044 10.307739927606594 9.187013032935472
Zr 13.079055662262954 14.7077786202117 9.879724399821688
Zr 15.435184166111215 13.679607828115506 11.213146744210775
Zr 13.61397589845715 9.067849018339844 13.523016344049507
Zr 17.154737848393527 12.401460644865168 13.265324085551542
Zr 16.21272361083291 9.933536493500489 14.414252290639183
Zr 12.457402314631137 12.212366791982916 11.402537019846294
Zr 14.194148461995157 12.0207538912453 13.58159685787796
Zr 8.478027989870528 11.680954154214714 8.522236145623575
Zr 13.164348038065297 15.082696928830568 12.864426070149827
Zr 10.57426136060944 15.17119697035156 11.320733424658894
Zr 9.770089880898736 12.319493905517657 11.068434256021193
Zr 13.873238069464213 10.523155769253282 16.13455505965277
Zr 15.916540232746113 12.4649913516696 15.953340162070228
Zr 10.807486443832541 9.560877601266716 12.291304744004728
Zr 15.548504210237835 14.612495447680647 14.118698544545873
Zr 11.461951576830415 10.896325181379272 14.835152439121025
Zr 10.64517097538782 13.481776177612769 13.85262181487585
Zr 8.274167524864577 14.383331100488155 9.586090473091907
Zr 8.434968299382087 9.733945519254952 10.685038430457553
Zr 13.063487725563217 13.490323466185862 15.753995079772622
Zr 6.851094902425844 12.154853898726936 10.95025718763208
Zr 8.080350760763599 14.165894985595237 12.593761562949775
Zr 8.391475511290206 11.230052555855059 13.389064970029601
