20
Energy = -140.59681511 eV
Zr 11.786136027641287 11.980497359479628 8.08899977886444
Zr 8.859269367197161 12.122937283430069 8.24298390916719
Zr 10.030055850530086 9.542911051856482 8.666430169747505
Zr 12.820841076557898 9.27359819368233 8.663996283845627
Zr 11.45380437029492 7.853745607874467 10.8197800304581
Zr 11.388479542286607 11.270528996293178 11.065335557637399
Zr 13.14298736035233 13.73516537308442 9.986553471377462
Zr 10.231866203446627 13.954281686148999 10.069577228630056
Zr 7.2407686330615 10.03978756064048 9.06445486751789
Zr 14.325915403855475 11.345109931387944 9.55617764982516
Zr 13.90947065876144 9.182941453443064 11.304978030865756
Zr 8.757926521451369 8.910735869133056 11.340142098506867
Zr 8.197100930798522 11.881126629944152 11.021402299749521
Zr 13.950530298224079 11.846476432086588 12.501404529892133
Zr 12.072517063307677 14.201440335009796 12.433171775712148
Zr 9.49239446732239 13.479344291798393 12.896258572217288
Zr 12.109904822503452 9.422744863601155 13.468720808494195
Zr 11.599558653289401 12.087533644024946 14.231624438448053
Zr 9.88143392695472 7.692497229446056 13.403104051532374
Zr 9.22705943393052 10.654616819402275 13.652925059278598
