28
Energy = -202.06435638 eV
Zr 9.020576942725974 13.616997072578853 7.978590975064657
Zr 11.246052332043872 11.505849227207289 7.237083620676417
Zr 8.190296274558971 10.635499474363987 8.304385529732189
Zr 11.65986713958391 14.426112879784434 8.77419997642923
Zr 8.437038599058102 7.661444549537783 10.107591870712069
Zr 7.406051142038314 12.863232440731858 10.304440927896646
Zr 9.466754118360203 14.694257999659733 11.024896984910715
Zr 10.226176849220154 8.727050139818386 7.633487136382949
Zr 10.401055665972338 12.054239991219422 9.761572719001691
Zr 13.82779408262184 12.407825141997828 8.997575893743873
Zr 13.003391555746262 9.370095159945263 8.583751077940653
Zr 7.3145235874449135 10.343406043160483 11.225573898616403
Zr 11.367728684689183 6.895992586269572 9.44780314236299
Zr 10.322982631927102 9.357957014490358 10.576076647462326
Zr 7.794862689894208 12.75469051879729 13.388545242806828
Zr 9.997998952555866 11.837681366280764 12.324386071862822
Zr 12.458521894921477 14.122430067485633 11.556412528361228
Zr 12.72542744951509 10.94986318595283 11.313187474603811
Zr 15.286137680774784 10.134775170387396 10.323663290073675
Zr 10.55635348425548 14.102314392205763 13.900972430945437
Zr 8.784948835536138 9.161519893539019 13.26362562567643
Zr 10.680182217853185 7.029220299014448 12.294339070492413
Zr 14.991554592219645 12.60343059050741 11.882598662808611
Zr 13.37632070725369 7.965500704346137 11.38737382307299
Zr 10.096797330099928 11.366860185800563 15.075180472544822
Zr 12.856476329621904 12.214184884739288 14.101229534116666
Zr 11.862351362709015 9.250629399235349 13.883407800581692
Zr 14.677780871951425 9.977618981087817 13.209175296282456
