28
Energy = -202.63014377 eV
Zr 11.672283043562743 7.98174114742159 8.403095055448158
Zr 9.667029956170875 7.236276544140068 10.44869218923328
Zr 9.169129952255497 9.599937894454508 8.673425175602588
Zr 12.511647777334087 6.881065818264992 10.915387166152081
Zr 11.733888039023222 11.081802930182079 8.128467156336923
Zr 8.225727631393832 9.96310782011936 11.41967716233566
Zr 14.06880645248825 9.143377201130818 9.753974908398034
Zr 11.305634555382817 9.610722339498393 10.850759939747723
Zr 9.107075351872908 12.225966896044659 7.228367811349746
Zr 7.013317605230257 11.555694098497986 9.224121437020656
Zr 9.58549182545506 10.541205031626237 13.936336528617938
Zr 13.871860788453779 8.54624592898468 12.852932334759696
Zr 9.863593064563625 12.28087382461714 10.225712902227642
Zr 10.80044651265959 7.756697533087167 13.133538627656042
Zr 12.092877708293996 9.473659025970457 14.919425199890496
Zr 13.886449853461011 12.230200948277332 9.682077204688213
Zr 7.861696263635658 14.232409627350748 8.8185928767019
Zr 10.826214618712177 14.296843979893772 8.251757246838238
Zr 7.336407156885986 13.141043250375645 11.593181954297023
Zr 15.375487719858326 10.725655195159394 11.71859010646414
Zr 12.462301927212739 11.553322567585942 12.543995960924876
Zr 9.989226849517884 13.298369845482753 13.076874867224214
Zr 12.175085181779629 14.183954882461244 10.974243677890517
Zr 11.567310595038009 12.153049209241761 15.414977068172858
Zr 14.44954364832588 11.306467903629402 14.522977262954775
Zr 9.446128977851851 15.1773712271831 10.832831246959184
Zr 14.826009179013848 13.40278764932955 12.244252060628524
Zr 12.887596515463876 14.082805945324324 14.040455589156414
