27
Energy = -190.45884398 eV
Zr 8.998485579145967 7.713339510952767 10.477506978877093
Zr 7.49337608609715 9.878332923772657 9.175221772382914
Zr 7.482056736146225 9.602511684940378 11.98149763317148
Zr 10.030144730315651 8.773845832806868 13.127918822531928
Zr 8.769955813868478 11.563227418920834 13.754379041770768
Zr 8.691232206192462 12.210127499144681 8.16637646665885
Zr 11.912042240983292 7.949903860558758 10.896907572771264
Zr 10.098958937378242 10.38298424399039 10.445467999792019
Zr 10.586040262310851 13.32555769102202 15.215904163512445
Zr 7.837238083321843 12.320487590376157 10.932770957381617
Zr 11.277046443169228 10.631703895571777 15.103621142818483
Zr 12.948031270429746 9.70725926029652 12.993110079725035
Zr 11.450334276246725 12.325003222206343 12.505571458841652
Zr 15.11355327026044 9.179621223896543 11.217269944562274
Zr 12.921566668824608 10.576074178988083 9.91212095741564
Zr 11.20409985254063 11.117074861510366 7.686486208148725
Zr 10.834528191583246 13.270370648413449 9.636998108966703
Zr 9.559622042754478 14.350552356968592 12.533995872394932
Zr 12.023479401707373 15.172427212858938 13.85374640443856
Zr 15.66554315053546 10.346667164004073 13.727896047795332
Zr 13.651972502479005 12.590025909040707 14.60777437575921
Zr 14.347818272611374 12.175794364988104 11.585137621556497
Zr 13.65453104237115 13.276871863603594 8.802241904195602
Zr 12.708739728491329 15.062061055919692 10.974913793504037
Zr 14.688489707849856 15.067073352694221 13.130972913165387
Zr 15.609055004861123 14.549892492266896 10.544100535490754
Zr 16.498517470223963 12.96740073576654 13.202713419813872
