24
Energy = -171.24485127 eV
Zr 7.478726298544026 9.229778513783387 9.91937677283709
Zr 8.278239197153207 11.260857012622587 8.168873995499426
Zr 9.510032291476072 13.451025698457732 9.342481385834832
Zr 7.879275918007839 11.893738317225502 11.201894148706529
Zr 9.964792623751885 8.701584719069235 7.961327921991761
Zr 8.525588255864164 9.283214096357979 12.785945011054222
Zr 8.731910806823267 11.91143641825131 14.006523937073474
Zr 10.462897219356824 9.8773797935615 14.982972454687406
Zr 11.192171987289344 11.690004067773277 7.467468481665108
Zr 10.24541678412661 10.323378310579017 10.165186577877167
Zr 9.36910944097678 7.369801584820389 10.679067448213749
Zr 10.151107396831453 13.889312704503714 12.368170843252447
Zr 13.111561620024537 13.497606979196167 12.959239439654487
Zr 11.319953828153757 8.047373560611787 12.872398348531597
Zr 11.890247111664696 14.498550624974483 7.546833518148091
Zr 11.307482468829678 12.636428954990413 14.931778807972025
Zr 12.212999586567594 13.235489525129902 10.118709076433108
Zr 11.96847492622364 7.649222018326627 9.935022739708579
Zr 13.039866167730542 10.054778285593766 8.815400923034993
Zr 13.381392070651847 10.496373208373262 14.13036103399017
Zr 11.316339596410774 11.135335756098609 12.421577741437451
Zr 13.972109588482182 12.709973245075311 8.034131853824922
Zr 13.72870029073335 9.004019758502508 11.559906206908282
Zr 14.356586588113572 11.58370955758251 11.283370992938794
