28
Energy = -200.30247629 eV
Zr 7.647071310284609 10.681976092066126 13.929834166369622
Zr 7.111748641720017 13.053417851175643 12.780677243049569
Zr 10.314313090094466 10.027196820227255 14.843001106176786
Zr 9.202443170547767 12.887156953553346 15.065639517276288
Zr 8.939791604778947 8.81264840102657 12.534034927438636
Zr 8.9114392629 15.05404311990211 12.801851865905574
Zr 13.265197122537177 9.676171769950985 14.395433957541526
Zr 12.19397950371441 12.231130468339517 14.91804864388118
Zr 11.247261591174336 14.74498504553187 14.070129805151753
Zr 7.525990499909525 10.861346121814673 10.937573476867039
Zr 11.653015049453732 8.530077608792444 12.375219216359078
Zr 9.883216091580033 9.066196170480296 9.92518599296495
Zr 10.070243364666203 12.084633192652873 12.34267552173337
Zr 13.404188655028918 13.991467831238788 12.842318721143554
Zr 15.553001034691995 8.127427695013754 9.25069984224354
Zr 9.139359497192059 11.490538926215438 8.737437026352689
Zr 12.704508892035834 8.173844252491634 9.643653602534116
Zr 14.597889707376503 8.813571292768833 11.901646662943909
Zr 12.44801737776328 11.138816303788616 10.50824848707175
Zr 11.270685526999143 14.970878284927602 11.122167608022883
Zr 14.63361574784123 11.598439476195454 12.772301050416155
Zr 8.557327087821786 13.758513984281517 10.236556400224288
Zr 15.452273224881944 10.926025116301847 9.94911407787445
Zr 11.413891185537826 10.399665169294993 7.708941542832757
Zr 11.222542942738416 13.397928312768672 8.667093957401795
Zr 14.167407299434416 9.664198904592027 7.535705251062944
Zr 13.994409854735212 13.736684761730057 10.222940881167334
Zr 13.71634566899857 12.304460778225396 7.883884310481754
