28
Energy = -200.47257896 eV
Zr 17.407929033991735 18.426995817217435 12.188956028228404
Zr 15.214809129944882 14.063822602129775 11.171257467019537
Zr 14.438877251109787 12.104227548081925 14.869111181771977
Zr 13.149512855720408 12.041013428410453 11.887395385818932
Zr 17.408884851435893 11.439171256947606 14.388899708731284
Zr 12.124436972319504 12.685459095524426 16.695384986543548
Zr 12.097083833902502 17.680845681868153 14.507851384966441
Zr 14.417581139918342 9.875694194235923 13.577409701295416
Zr 17.170533246890372 15.963935857367094 11.342884132956508
Zr 16.027355390161883 11.510709193456773 11.934084598147312
Zr 18.853366740915693 16.160742412000477 13.772756522158952
Zr 16.150595498548938 14.533131585349437 14.158469276751546
Zr 14.382749341309696 16.702329070888602 15.666349752602061
Zr 10.337785071636489 13.718466851508817 12.303016882545835
Zr 11.23176865788072 16.661913423169384 12.008342398398728
Zr 12.634964345687537 14.588866180880627 14.008943130173876
Zr 11.55631511718945 15.63190924451474 16.677514247618223
Zr 11.553994376778249 11.513813671466732 14.10620572109712
Zr 14.428837403711974 14.345907250370978 16.861490341362778
Zr 12.63375729205354 14.778801893558926 10.77413697085867
Zr 16.8186072221989 12.839961752815462 16.769450537798814
Zr 16.597970636376406 17.833127340693505 14.599445896167978
Zr 9.797365358736448 16.034449310695216 14.288067724281383
Zr 19.01597637246377 13.69427319638066 15.179176448532807
Zr 17.403240921399753 15.792777077609419 16.506965737938692
Zr 18.258496557808794 13.489168161537087 12.329843230161565
Zr 9.916088674240985 13.521325602583635 15.222024588205848
Zr 14.382151563202862 16.90044861257374 12.448981563107413
