29
Energy = -207.05239923 eV
Zr 14.617972052618875 12.269818185578345 15.626165508201613
Zr 15.785005943357033 9.943813176140221 14.343840462222138
Zr 16.188512046710223 10.175670675368405 11.565929199607712
Zr 15.961221327224637 12.71009948560564 12.998584791720907
Zr 15.56991503035703 7.619439307451796 12.24977201804767
Zr 11.666712251057648 12.262847491990971 15.448463579058302
Zr 13.15807183626521 9.852806156753275 15.58803838271994
Zr 13.317736566483465 11.398976666500134 12.81037892036629
Zr 13.618534454608332 14.3931700337112 14.073234619592972
Zr 10.740139136311637 9.884544090058887 13.944018671642835
Zr 13.253371361781788 8.331719739354172 13.256602238215688
Zr 14.377086876974452 14.4599422231508 11.38765976086553
Zr 14.787184784330526 12.058159121343715 10.026912142056359
Zr 13.935018610800116 9.111395545791432 10.244841486953886
Zr 11.196659909476505 9.25328029702819 11.172128900079295
Zr 10.889389543549305 14.692799005603291 14.314409745417878
Zr 10.823536230943565 12.711846877438523 11.331400086068857
Zr 12.530108136234682 14.289487075807529 9.228766446585567
Zr 9.031611363334424 12.467491137428373 13.923374876649573
Zr 10.553183600809344 12.922339461129908 7.91635976092152
Zr 12.353353954329469 11.13243986501681 8.899660668374345
Zr 11.80190835842687 15.711923860403639 11.76280127664155
Zr 8.55197306393297 10.236817843658367 12.022972606163922
Zr 9.0257030538869 15.048575482065228 12.470753555634838
Zr 7.912246827040174 12.957846188318918 8.377192390366691
Zr 9.461607376839504 10.503326083960685 9.20370200717551
Zr 9.60776717511708 15.042853276969089 9.677841660532968
Zr 7.658852868704708 12.971910332836057 11.290775910562422
Zr 6.753146063604959 10.781234645294367 9.776356144993855
