21
Energy = -146.81187329 eV
Zr 14.905930493088677 10.52947073129238 13.063384758644945
Zr 13.797734233219186 10.45973400284831 10.552452946446495
Zr 12.871417564614577 10.501712874229858 7.592971929829651
Zr 13.819738305700676 13.026344658291201 12.127319637989714
Zr 12.423275165834953 12.89790729290649 9.487634774229797
Zr 12.329535079421493 15.229331320079002 10.909229360891217
Zr 12.323441756544208 11.139710883217802 13.934397387592131
Zr 12.66485046290237 8.499595859220156 12.421824317228022
Zr 11.914434649164965 8.544625639202104 9.455565402313313
Zr 10.61830941054578 8.900961424912117 6.9606711578346685
Zr 10.576604961499463 10.879873865748092 11.30082406683774
Zr 10.297210785966884 8.958923774306367 13.849228867590824
Zr 9.902069823623153 7.718797502740125 11.398053038855869
Zr 8.803867500182383 9.034508057637435 9.285523699067163
Zr 10.963324858490198 13.635582066082367 12.799979763480518
Zr 10.224347686172234 11.493405164969182 8.071102082858076
Zr 9.46399091129949 11.550555856786398 14.20293210025495
Zr 9.712844751574872 13.814585482170612 9.963637401794989
Zr 7.8223487893280526 11.524641378841384 9.734359545661704
Zr 7.906047444070243 9.829385056861884 12.219697121071611
Zr 8.187397330960078 12.84032741062356 12.13879251018546
