24
Energy = -167.45615114 eV
Zr 14.463054095876487 10.242426759917437 14.797708507653335
Zr 14.570671129929877 11.34570513221544 12.141328386590587
Zr 14.037815248879868 12.116455357575514 9.506245891647193
Zr 11.993588326463364 11.436675647057605 15.17009680246365
Zr 14.48698261192106 8.368026637381554 12.535137392740953
Zr 13.560467183991618 9.316440788305332 10.018587274086196
Zr 13.862333498989534 13.180710179221572 14.219641318778514
Zr 11.961472319464162 9.09397226710849 13.57588449953926
Zr 11.393309594251788 11.470776204896765 11.271325370052919
Zr 11.923430745626206 10.887104473829554 8.057293189630142
Zr 13.246040468173486 14.056975051759123 11.481501743136201
Zr 12.049977964523894 7.248188073329213 11.417308214488758
Zr 11.876485277364479 13.794518673341218 8.722774737481787
Zr 9.504157986878756 10.868737160298659 13.840049445777192
Zr 10.944946256420133 13.549918157730357 13.521384048050821
Zr 10.486142981261505 8.913890665678437 9.658053839970663
Zr 9.408573391592057 8.273525932145363 12.45763608675864
Zr 10.132036468438136 13.002340534722618 6.514783271707305
Zr 10.409102609420566 14.596486871140197 10.928654895738232
Zr 8.368189127462307 12.810236512379758 11.843361859186407
Zr 9.392536838407114 11.99309215564481 9.04283618511594
Zr 7.003111131534474 10.197684259191716 12.979672430436905
Zr 9.077159173415188 14.74721454760201 8.327892738277505
Zr 8.15912043014579 10.093781838680904 10.647355906216474
