27
Energy = -195.96070757 eV
Zr 13.918413728943332 13.088231380920675 14.165437800043883
Zr 12.288989693791525 14.784522197311531 12.212095108905134
Zr 12.837277228689716 10.449226773826677 14.666037408618195
Zr 9.165234728988752 14.189476872793891 12.038150863022475
Zr 15.154402975160304 13.884541796541033 11.84356648218309
Zr 11.028628655584859 13.014839414759109 14.252707448057059
Zr 15.489898081366066 10.898414303510938 12.711770819120407
Zr 10.940147623661197 8.14466959903003 14.40432502134516
Zr 13.211271835663318 8.487893349558162 12.517316867864798
Zr 13.147319410784142 11.666551193277469 11.625635772741989
Zr 13.388441207087663 14.137155031155086 9.42003708485446
Zr 10.680620032950582 15.415212864778763 9.77262966098863
Zr 10.596370217504909 10.349290480049044 12.374242589685569
Zr 9.87222385217853 10.519203044467057 15.308640054649901
Zr 11.049666828656186 13.515813406072802 7.622997944399218
Zr 8.515742092829003 13.6079990092494 9.07337936280151
Zr 8.238845282261886 11.99136760879187 13.639737235373408
Zr 15.504337079606435 12.007741682331549 9.787783662618997
Zr 14.556508474231219 9.448091249829625 10.166558050410426
Zr 10.45585234465696 7.365445296345499 11.799379239741866
Zr 9.77455151094742 10.900523313896919 8.281397046579356
Zr 8.231037043601134 9.031541754069005 13.13425574382385
Zr 10.846585265188773 12.526190222664527 10.38628866674841
Zr 7.800701050705952 11.48499723530682 10.849031133227253
Zr 12.969351288549598 11.314643899243254 8.318623459329482
Zr 11.78073104167268 8.923561974488338 9.624161465036863
Zr 8.86592404763009 8.919538523676495 10.16924736277722
