25
Energy = -179.09737972 eV
Zr 13.696541374411861 12.397630561501963 8.14173473505167
Zr 14.112582787777177 9.88595956068113 9.000500343730568
Zr 11.246921316544965 13.642400718793859 8.153246279206927
Zr 8.769397839458799 12.345414437377185 9.296366349900032
Zr 11.237468673515947 10.699459297441827 8.860452576142713
Zr 15.733552439476412 12.330810843073188 10.31025576236915
Zr 13.666566556092462 14.530792735507198 10.01667821689286
Zr 9.475750718681054 10.261808921121213 11.248070424374356
Zr 10.435697150177527 13.614013738263479 10.805604923728344
Zr 15.18183808740944 9.384174846659475 11.425589851217785
Zr 12.261811064304712 8.826080267128063 11.075039872465146
Zr 8.112268886772918 12.733044318798692 12.518762330912285
Zr 12.122527258723888 15.387810273762257 12.263499261611402
Zr 13.13037174090442 11.700436320348121 11.230267105400825
Zr 10.752227206711863 8.93955142575307 13.560593479317033
Zr 11.122049945445324 12.072952414437376 13.220244251738858
Zr 9.663272042666923 15.010109732138444 13.434668637814521
Zr 15.68811507531509 11.42568503255862 13.126613037822372
Zr 12.073574620446607 14.245435947393938 14.996814044228268
Zr 14.59004905451197 14.012535618867657 12.816627699782995
Zr 13.501258484981015 9.559545896554907 13.888857639298934
Zr 13.930782525701932 12.140127829108144 15.061727610606642
Zr 8.682833388567342 10.569674594513389 14.20492413831718
Zr 11.33815979012077 10.968345600976368 15.762013465692236
Zr 9.26371329341504 13.105530389376119 15.370179284512677
