24
Energy = -173.23945584 eV
Zr 16.875049732829137 13.316335403893174 12.43190315742038
Zr 15.991794678107794 13.222930310843108 15.266677500115627
Zr 14.741057654933538 15.463932094078773 13.945893419595253
Zr 15.034906785215806 15.247313187017442 11.126802772654443
Zr 15.718447569462343 10.559971895008303 11.321244835652557
Zr 14.187094513365542 11.051643644658055 15.671299918943648
Zr 16.28755293303656 10.72517001241575 13.932081691868646
Zr 13.21327308358647 13.71494290998105 15.954670765061257
Zr 12.50799296378703 16.18714496775585 11.85188253465792
Zr 14.122984820992828 12.665377905112871 12.854940020702179
Zr 11.937005518580243 15.941974886184893 14.61834836135579
Zr 12.782722098510861 14.03430633901123 9.751689328741863
Zr 12.952386487783787 10.976106357439877 10.420918347209877
Zr 11.38954815067918 13.380893619761766 12.788278905902493
Zr 13.413193363171096 9.744493502799342 13.096018959383777
Zr 15.358988074636049 12.788288373975872 9.885218635670514
Zr 10.146207335352992 15.08222413717127 10.575950458838614
Zr 10.382087892204716 13.913482658792303 15.778303133128688
Zr 11.458780711848712 11.138447934629538 15.049834021695123
Zr 9.26497794826209 15.269792452753842 13.446249080064012
Zr 10.515971524392192 12.314163128571483 9.877512163654817
Zr 10.488823558563226 10.562185497457092 12.295218996173778
Zr 8.91043447619325 12.270330906516017 14.222000025379307
Zr 8.557086050846545 12.965709282855315 11.67720139089415
