27
Energy = -195.17216014 eV
Zr 7.1104989358934 11.12349912472937 9.067696711747699
Zr 9.122817684253688 10.170584395017576 7.66849330080301
Zr 8.415524117819057 8.64671037669185 10.151954815282048
Zr 6.952504428825895 10.745058006856361 11.786102379873297
Zr 7.517934300375664 13.305883955165335 10.724691758607564
Zr 9.288800729180174 13.159271567913192 8.325389067549603
Zr 11.327964893583422 8.781492704737952 8.918751959501913
Zr 9.960853124143007 11.199470301067786 10.555118946540931
Zr 8.975444032418565 9.5157001771339 13.182270138366253
Zr 11.480771111030494 11.404533760139268 7.579775285741859
Zr 8.675959450132813 12.720798901003935 13.183971551894263
Zr 10.71945490729863 7.931049790409896 11.605475806547844
Zr 10.094680077608949 14.391949332552942 11.091004679331096
Zr 12.301277647065751 13.526388233777729 9.125268630009318
Zr 13.698009714495742 10.778007089354022 9.089284567792083
Zr 13.402460730035601 8.497861051185277 11.062081614498803
Zr 10.479812796881042 11.248483610957459 14.73225241967093
Zr 11.921774831437185 8.961857211173879 13.876626178420517
Zr 12.77986475404043 14.858725719419994 11.48471930785347
Zr 12.788369950981139 11.567212295602928 12.096477396512297
Zr 11.363319755604442 13.852810455125862 13.868596791761695
Zr 15.572049217713275 10.239514186832064 11.128942320064597
Zr 14.988889331566359 13.139394235336713 10.70212560997579
Zr 14.632760341942621 9.329503400963008 13.63472779077874
Zr 13.252299146365537 11.619910923022466 15.073100852674914
Zr 14.232228845372271 14.002403050032479 13.543482209632556
Zr 15.721667768462412 11.842010864375254 13.384180809619146
