26
Energy = -184.63705052 eV
Zr 14.259069183925877 15.76977256233426 11.255436307235508
Zr 10.890491053504578 9.00704335706129 10.630484684177501
Zr 11.258797835130977 11.047497835183941 17.387659840095125
Zr 13.964694881259264 14.941749025366404 8.58899096897484
Zr 10.736791790305187 11.409292774134299 8.851908206784774
Zr 13.967715097987888 10.248596269355671 10.391821821750481
Zr 11.79477397759571 14.881957499615428 13.010916722960202
Zr 14.478978599123531 11.199274483631083 12.943475189217935
Zr 11.667639647659353 15.96457374016017 10.152903881257728
Zr 9.754031711405117 13.760044507561883 10.795382590700227
Zr 8.45969764392434 12.20516555567381 13.307328063056909
Zr 15.53474138298637 12.967789561601872 10.397515059213866
Zr 11.32040008644402 14.001804211201346 8.13021143930344
Zr 9.584202631321668 9.168782897278033 13.23771881691742
Zr 11.306566678622316 11.622298762551079 12.724551944274689
Zr 13.70417017057762 12.054822781268214 8.024060972226389
Zr 12.589840910384101 9.312849258527052 8.315366692587155
Zr 14.791849419138707 13.999204631745927 13.13779773738578
Zr 12.757008983020409 13.188378386544919 10.703595893009123
Zr 12.678720754036375 10.284580857855296 15.185417485086383
Zr 9.1477788270192 10.677125881390598 15.618144496842843
Zr 13.09473393835944 13.017347508517126 15.09875282712259
Zr 10.374922114291186 13.15468512911066 15.349366883441736
Zr 8.826001834960229 10.927600395198173 10.919127650518584
Zr 12.60327579247396 8.6386075711104 12.908246755024367
Zr 10.85455554512438 8.356451973443585 15.817975185890145
