21
Energy = -148.290585 eV
Zr 10.085020925185628 8.713334049680546 6.3107350626770495
Zr 8.11879222636051 10.58229479986671 6.496885285136424
Zr 10.879947103473981 11.345268767662086 6.668051860642309
Zr 7.693435601359874 8.055184252034191 8.306305740129224
Zr 12.384494289538436 9.255931112968954 8.134618072953359
Zr 8.978940008302802 12.91383614986131 8.156953848189573
Zr 10.46900475739885 6.933939922087592 8.168757246333325
Zr 6.585506063333903 10.775883821309113 8.654949927934856
Zr 11.992506714231896 12.093895638135114 9.202481765558677
Zr 12.316441829904985 6.961990412937656 10.105866566684576
Zr 9.542509313328909 10.153895704985803 9.317680762986274
Zr 9.904284068485559 13.312123211668043 10.789040960072507
Zr 7.384185489257277 12.219373311336787 10.674590428733271
Zr 12.108761942483227 9.648290577122165 11.147512770646511
Zr 9.357961029514522 7.039595517511012 10.767450626491389
Zr 11.958999326101239 12.262253572429527 12.261788098829923
Zr 7.256382924010319 9.261032307622079 11.080734336790426
Zr 9.16356610655665 11.314149344840128 12.753096265210702
Zr 11.68952222522004 7.283476017393253 12.759371376904644
Zr 9.291537181860726 8.61235134105281 13.082564248280498
Zr 11.60319099785705 10.02689029126092 13.92555487258071
