20
Energy = -141.3970034 eV
Zr 11.32972363471691 11.541910745818948 7.5660476922488344
Zr 9.123116283269342 12.50767495765472 9.00478719615778
Zr 14.160889033041586 12.201187414662 8.514522188402514
Zr 12.857061970222615 9.820194949513674 9.063819776329275
Zr 14.39305483283402 13.727638973319364 10.947172885560258
Zr 10.0458569388155 9.834289840637645 9.659974350523795
Zr 14.557107708223132 10.78461551720672 11.141898200209923
Zr 11.84952375818502 13.544157153588106 9.63951756764099
Zr 12.252379588552104 8.569217866621484 11.501986829535529
Zr 8.274138207608052 11.667537319773407 11.652859642479061
Zr 9.415314424264619 8.980682699488845 12.242742521638077
Zr 12.12358669459245 14.391640156167409 12.732043335791339
Zr 11.444847247026335 11.459430435968937 12.067400480206167
Zr 9.603626108458592 14.218779766646877 11.189842307880578
Zr 13.74136856520517 9.979740135513167 13.772542933473462
Zr 14.332471915387746 12.596017917953692 13.425381931742928
Zr 11.312207333916177 9.133502220259096 14.266813514148149
Zr 9.18149604211952 10.858413928874354 14.345571046476664
Zr 9.548569175691325 13.454888890115852 13.74911712320139
Zr 11.904003900113139 12.178822472459927 14.966301838597238
