29
Energy = -210.88703258 eV
Zr 12.282963700198563 8.557400099279628 14.356770534430284
Zr 13.248707636778626 10.521576343103824 16.30635900692233
Zr 10.392061363106603 10.274625902546173 16.010063161118776
Zr 14.850783280818199 10.329581991690425 13.936142560506003
Zr 9.134945709901995 9.783701736036372 13.444775806380632
Zr 10.808022941463346 8.78478760180048 11.604247600725397
Zr 13.560400704531208 9.223717116403442 11.647087437802055
Zr 11.622021036443305 12.89818849653694 16.295122077757547
Zr 11.97828327246588 11.291236289748033 13.619141207747344
Zr 13.805693993828358 9.158336939759867 8.568516654773457
Zr 9.309093247657291 12.753558452986406 14.619533377077301
Zr 14.172356559546955 12.967470191917299 15.040891229277486
Zr 10.695625716826298 9.229324255501451 8.824224367232016
Zr 8.270965569576767 10.065244710823594 10.322708967615366
Zr 12.620647741897614 11.534451229395463 9.841165441510608
Zr 12.012785859714176 10.834569916416623 6.957513674260882
Zr 7.4177245082177965 11.920489343859384 12.566954113074555
Zr 15.52312724529027 10.990926570907721 10.214056949982464
Zr 7.662046681061809 12.98143872755227 10.025981512936726
Zr 9.550920021111356 11.875939677087352 8.104572386013496
Zr 10.195156549038831 12.027888965857734 11.32884877591261
Zr 14.234663395092877 12.840660479856819 12.242878279706805
Zr 14.552371418939385 11.833097896096737 7.552042987779053
Zr 11.757146020245685 14.349672344435685 13.827841050045436
Zr 14.663314621546736 13.780557181234622 9.586415392696876
Zr 9.030821563552648 14.53946991854847 12.235877910992263
Zr 12.133345327185559 13.718852137977175 7.901377436287871
Zr 9.822816689505249 14.572248343991303 9.4035136619278
Zr 12.169213434407766 14.672066615890506 10.878769166128503
