24
Energy = -169.73431238 eV
Zr 11.150832778922616 9.560947345294444 14.481004278208188
Zr 10.031027598487615 12.656130654476664 9.65438119607115
Zr 15.140929735262278 12.233934733197788 11.710252915845853
Zr 11.101159717419709 15.10961314974673 13.689580849043285
Zr 9.927533324789497 15.342773838634299 10.797293586030035
Zr 13.177174065147895 13.890121939423738 15.953649896023382
Zr 13.762429673013276 9.008424137914448 15.14841199119324
Zr 14.795819121762078 14.875423415528271 10.185354349110437
Zr 9.122062486345632 13.280791410067598 12.357511091231117
Zr 15.655847636713466 17.114865031948526 11.916176062903483
Zr 13.237473986182126 11.83695748363152 13.975725750967946
Zr 16.464400133583293 16.134546567608474 14.455625898401228
Zr 11.940444002809619 14.72326102340701 8.911795093121052
Zr 12.193666217012408 11.109603399722207 16.705671210366425
Zr 13.229259486472188 9.580728388758002 12.236009603070654
Zr 15.842944969565144 10.289838486794887 13.757437633307005
Zr 16.960965929101683 14.56091981174846 12.135824907885606
Zr 12.555167338678853 16.387439197358425 11.196319196085767
Zr 12.181259297229143 13.275585394195621 11.442017166297331
Zr 16.06674053412229 13.150187344175674 14.620047989253502
Zr 10.424044305008909 12.464836954967602 14.880425060855101
Zr 14.959184519750359 11.347730050683174 16.426680100680468
Zr 10.3893061943138 10.808868149562738 12.246921056011034
Zr 14.121103445741012 14.95467244111322 13.234272878554298
