22
Energy = -158.02315687 eV
Zr 14.721358367929717 12.480895802419914 10.655890430436498
Zr 13.04977736472833 13.936950293843452 8.691391533386543
Zr 13.720828873149966 15.22856022372558 11.19171738017323
Zr 14.029365397885405 13.639229378462636 13.555858246152868
Zr 15.537612154365783 11.047470950384797 12.950780573065277
Zr 11.232287810745843 15.790456451625591 9.986664762069589
Zr 13.968000503196402 11.314133660352287 15.366281589506169
Zr 11.31084289731956 15.218875890826434 13.08167642419666
Zr 10.19473121628486 13.32411513799802 8.603034049209123
Zr 11.576756771534479 13.063923408366986 11.220207321547921
Zr 8.991588698217114 14.519627326991039 11.007774919129917
Zr 12.513551210827773 11.19730889432511 8.945595653132434
Zr 12.548416371963143 10.956905560183333 12.751499556190597
Zr 14.20538933560332 8.762943000275227 13.886153590212164
Zr 9.129508660621408 13.02974753111362 13.280369994554745
Zr 11.680908124049735 9.536534471953473 15.251323655256487
Zr 8.939509537572647 11.610184882660544 10.703506544505045
Zr 11.429301179188947 12.716769330156271 14.92293538070709
Zr 10.844855877505875 9.427772309152212 10.49405334122193
Zr 13.964775195270477 9.386058592688222 10.835585149771033
Zr 9.688239070952172 10.190465661642483 13.215987399547329
Zr 11.74849926235642 8.093426296470161 12.690016924252344
