25
Energy = -180.80258582 eV
Zr 10.550165728868018 10.073516919248926 14.332200806262971
Zr 12.13965452373795 12.564304998324934 13.719455686661194
Zr 9.229975408679012 12.6033865411955 13.043018475979784
Zr 7.669709253532559 10.238346046300865 13.386375360995668
Zr 8.73628505342187 7.796676328808068 13.40865945782103
Zr 11.499605901060725 7.575336446270635 13.077154309459225
Zr 10.815103902388184 14.667319509913535 12.078711189985498
Zr 13.157465630310226 9.740504101728206 12.711776635544707
Zr 14.683974339862559 11.985475803078668 12.256899401551024
Zr 13.523312905539195 14.557356771950074 11.948320144299888
Zr 10.033238869463993 9.83275589339602 11.370892016310362
Zr 7.320516582870754 11.59376504231749 11.053786775660122
Zr 14.759850651368101 13.313514488613512 9.802283125901473
Zr 11.944971500515761 12.141498932274706 10.63445339767197
Zr 7.422898808091147 8.690444957510591 10.688090920522018
Zr 14.215012126852343 10.307087254014554 9.872346341500828
Zr 9.710521737070348 6.692723429499879 11.059017180307015
Zr 12.00202441665076 14.747624043020183 9.299535095320456
Zr 12.287058450820036 8.00163868562354 10.22242397443872
Zr 9.124639269001289 13.527398826749137 10.07678568399423
Zr 13.287228717842936 12.325806379083668 7.811216047682124
Zr 8.70741041155269 10.823106584865196 8.642622049743315
Zr 9.69391792146794 8.145923376995297 8.76675880186478
Zr 10.596428949807928 12.711469574836583 7.732830759236882
Zr 11.65460680709458 9.997820209216455 8.09698169183987
