20
Energy = -142.60468936 eV
Zr 12.175984910122812 8.37346959925337 12.760683030416493
Zr 13.204929176247388 9.779453087994161 8.016344406214188
Zr 11.471185464832718 11.270560738981722 9.760973203354085
Zr 11.862795414071583 11.38204192561766 13.473708963564263
Zr 8.974265711800745 12.161397904826421 8.758418913670308
Zr 10.333043174844091 9.65166727000558 7.534947933207442
Zr 13.941541113145309 12.471720632719027 8.904644500661096
Zr 11.660220362894629 12.143196979973718 7.024544690688482
Zr 8.425878948459733 9.103798458777494 9.621556038564862
Zr 11.439251500768377 14.095107759644518 9.194528994574203
Zr 9.590802086247734 7.3004738222134655 11.947868764731028
Zr 7.495687191650165 11.63301542394605 11.168870834416683
Zr 9.898774383756045 9.027409419231384 14.378281338892505
Zr 13.705320252959378 10.175459981610285 11.115734990851838
Zr 9.943444951837746 13.346960836601468 11.674001223189192
Zr 7.463561001265099 9.190092212733965 12.67491843300239
Zr 12.959938025529928 13.169956642193569 11.506241055015341
Zr 8.720222815689803 11.654343545718696 13.80805497198091
Zr 11.546110248822494 8.06543495280503 9.81532294726353
Zr 10.011785079193357 10.143209231624533 11.727288718950048
