20
Energy = -136.39682994 eV
Zr 9.75037362601451 10.243141917205632 7.226603757674742
Zr 12.33630075595356 12.110220807626169 7.797415284534824
Zr 9.779827163341958 12.406847023116658 8.952267983426527
Zr 12.073633834607175 9.78077475590669 9.258900834717416
Zr 7.399104756284979 10.731379747618748 9.161893195759497
Zr 14.579244568523517 11.509573682591222 9.803476428102439
Zr 12.503401316690617 7.386654910315814 10.660718173051261
Zr 9.496778476206215 9.080887475774928 9.891983969540677
Zr 12.00737691685859 12.534770433769772 10.861114825214885
Zr 14.683505224168151 8.586844581950498 9.255956924138422
Zr 8.913411782042953 12.07018049571395 11.539622435432156
Zr 13.942787694458882 9.566614734599186 11.843629238438236
Zr 7.8995444130045955 9.594524755327607 12.160380468248214
Zr 9.707507365187597 14.753031593457731 11.571142064357808
Zr 14.058285384207895 12.358980911290738 12.709968669090784
Zr 11.003925905474249 9.768577432247872 12.310608705608118
Zr 11.069238400273635 13.245859828237986 13.60648243473788
Zr 8.257748036853597 13.717650141694072 13.805598525176533
Zr 9.388425364146617 11.04556585858246 14.434356379288413
Zr 12.445044496795264 10.803384394066155 14.44334518455516
