35
Energy = -252.40898583 eV
Zr 15.161539067747574 12.96637870898028 8.618980127265395
Zr 13.19711681018867 12.929421433395246 6.592200362888617
Zr 13.665862798043054 10.282760914767588 7.988884588332718
Zr 11.664549997707862 10.921858264898738 5.8965458135734075
Zr 15.349863454581142 10.294673038671135 10.229209638676567
Zr 12.663935996251482 9.013218582611625 10.742189477317728
Zr 16.392378602133437 12.664187734601068 11.136224014359529
Zr 14.273182184347304 8.495216252254824 13.089340953128037
Zr 12.667477146330581 14.80044690403197 8.683975943446367
Zr 10.650232084843912 12.627389780568924 8.019714123736527
Zr 10.867322549275343 9.693162585373052 8.492511329743548
Zr 12.780571175343356 12.089302054720866 10.256269800908663
Zr 11.353674438052492 7.865630009446457 13.392388419377303
Zr 14.447414534373905 11.460968154833115 12.90503170489429
Zr 13.222228212738997 7.333317752199848 15.501297755917143
Zr 15.933721993866888 14.02229982780345 13.390763932365665
Zr 9.884636314134731 8.560846183361411 11.042565368410408
Zr 11.38244082456118 10.892853795159695 13.136168772578852
Zr 14.25499314960117 14.777277693486573 11.115794273902456
Zr 9.51714685676553 11.287211028206038 10.550585469770661
Zr 13.489539700989432 10.06115565954659 15.366236321451174
Zr 10.653740156970246 9.340170910795726 15.763996449365921
Zr 10.568374784952537 14.17386902632137 10.60723786813413
Zr 14.31930522148247 13.272542750758863 15.478620672375923
Zr 8.71908634808475 9.703602750493683 13.316388112223983
Zr 12.031122992263631 13.945748485833457 13.394782744871986
Zr 11.991911901164547 16.559524418987614 11.733164392508602
Zr 11.622879218594464 12.221676511440052 16.305499723022308
Zr 9.006295128857497 11.634958170460106 15.360028866636236
Zr 8.699785082462679 12.910745929387167 12.879208929074796
Zr 14.015110964451441 16.093579974636476 13.951447867379873
Zr 9.411874563434925 15.667955795373018 12.722139676451764
Zr 12.393149352441867 15.05878227105521 16.30724941366993
Zr 9.644702838641381 14.39585421240331 15.366939675889018
Zr 11.211895124539877 16.794606151697664 14.49635222442495
