30
Energy = -217.97630744 eV
Zr 14.394604459275216 11.661593887531717 8.490284373641446
Zr 12.216408846061075 13.512794745609199 8.884104597501523
Zr 15.018590675848216 13.914140025753522 10.011383538248918
Zr 11.817922872597073 10.51837302070868 8.50023615130247
Zr 14.035079181693472 9.141381522065718 9.563621961488238
Zr 10.041225896677926 11.724412312839084 10.29432111929402
Zr 10.130712108325978 14.56752364809809 10.505843756157308
Zr 15.866079680784662 11.054964959201532 11.007441671604443
Zr 12.912626380171844 11.367423022545948 11.374809526622668
Zr 9.447340605842887 13.079932704802507 12.905930248277219
Zr 11.46232938719878 8.82984224070556 10.994428242412054
Zr 9.965196359744722 10.379384256499034 12.843582219800496
Zr 12.802176770392562 14.142382207275952 12.05790684704214
Zr 12.635037083868538 16.272884723964697 10.449402203591228
Zr 14.268158477952497 8.703364549096998 12.212926597755356
Zr 15.265267049145834 15.996931796686727 11.97398034526593
Zr 10.490357507917084 15.954718633934663 13.010551985642643
Zr 15.931052385668773 13.356571494972393 12.862829636994174
Zr 13.05946389107251 17.053669211713814 13.297036021963896
Zr 14.961687932023152 10.651853098296261 14.032693845850531
Zr 12.255342917674298 9.430440740005746 14.165184735570474
Zr 14.872784824233158 15.429127459071186 14.846451982858033
Zr 10.283726769136846 11.311099346185003 15.522997509281915
Zr 12.57177047881899 13.0120712071163 14.597567839342638
Zr 15.616786089020128 12.719645483815293 15.656764442048061
Zr 9.650344538345742 14.289146424314358 15.3427248511508
Zr 13.234714810996696 11.095014253104175 16.631030307045577
Zr 12.030684462542478 15.862748806705156 15.757201600158176
Zr 11.266810813648986 13.296549983723404 17.340590556202486
Zr 13.874276210731988 14.048573701067488 17.244730753295503
