39
Energy = -286.24399025 eV
Zr 7.824864062430182 14.14475384151875 8.924552996363143
Zr 7.812070530033314 11.486005932503845 10.288449621080145
Zr 9.267344423006598 11.935937725735831 7.704614290760459
Zr 10.287559225425174 14.650463243626987 7.586605527299158
Zr 7.68969682912652 14.173900374314199 11.837609100340561
Zr 7.284317784171832 11.457750010794772 13.213947461810973
Zr 9.709075028129375 16.08414070036581 10.231855328189765
Zr 10.385012240723709 13.239419337182985 10.152270546749879
Zr 9.087313634269437 9.570107919230491 12.119222788337991
Zr 12.232386006383374 12.388023086857132 7.97080036146937
Zr 10.610341440152443 10.19593507947198 9.66483087842321
Zr 8.196435294633584 13.533448396971048 14.746492510603609
Zr 10.148617407529356 12.402288231918497 12.77136481286845
Zr 12.576775687886064 15.430865061007657 9.163125356324604
Zr 9.851524900125442 15.545131024829447 13.32159358093632
Zr 9.892213559339531 10.829715962563348 15.011654593571526
Zr 13.974572871361977 8.710839801777245 10.869643694892714
Zr 13.147071887507202 11.527751099489123 10.669968922293156
Zr 11.853543204515432 9.60357601861191 12.623660943915771
Zr 14.85508951474411 13.637732681761445 9.346361628893947
Zr 16.10222977949777 10.748564004413574 10.097963970983201
Zr 14.37078794248021 8.078021495657268 14.006453420711114
Zr 14.996208683913148 10.750692904522696 12.88543432519853
Zr 16.605611155081814 8.439495926808656 11.968514108574762
Zr 12.135834721789069 9.024908293547423 15.541426407409494
Zr 12.89852695063863 11.884075285115076 14.469936059440446
Zr 12.088810368324449 16.796048077791223 11.81219838270475
Zr 12.843317169097245 13.967609758041421 12.072939642329796
Zr 10.815246869870126 13.68502581921337 15.773853710306858
Zr 16.297997617083663 13.345542299832715 11.835435203793553
Zr 16.96499538819677 9.350479782552918 14.652456832004896
Zr 14.80588194800585 15.884360752668597 11.23587932058179
Zr 12.051124744788613 11.314233189992775 17.190211827518056
Zr 17.93797554609775 10.976727555093312 12.48211436931337
Zr 14.73923027211107 10.205842839815077 16.303580942927386
Zr 16.585629483564507 12.26516573557385 14.96851271339576
Zr 12.644993958265323 15.514282403113874 14.562362561750453
Zr 14.120973922522671 13.332930743493174 16.625403793147264
Zr 15.139570092673488 14.584653271380155 14.133457191078888
