35
Energy = -256.22870509 eV
Zr 9.407101146179732 15.105024647853819 13.81944348557268
Zr 12.35528323529102 15.506242710658212 13.661779652768072
Zr 11.492727888263419 13.71337131170186 15.649758126522347
Zr 8.26322653152554 14.748788169277326 10.962483662103894
Zr 13.975087405568043 14.820339325951645 11.388557654507503
Zr 9.085969717239156 12.083846259607782 15.028241891494144
Zr 7.35734326962921 13.113053026043753 12.887529939961968
Zr 10.958704167675013 15.59413771446193 11.02569957050798
Zr 7.20793608623145 11.960711417261646 10.040305411283645
Zr 11.07217755042818 12.956813037143608 12.91609502030811
Zr 11.952658947477977 10.822545198589902 15.397768987797898
Zr 13.89540215624809 12.90401950004223 13.878499593757972
Zr 9.852927802237781 13.939716438633578 8.613878305534566
Zr 9.45656354336727 9.283625402476455 15.146197440076948
Zr 7.711199869919963 10.2933396581739 12.851042715510195
Zr 9.60376910219478 11.932475378595148 10.85072499092321
Zr 12.442986960254952 12.570780854879931 10.358352894187528
Zr 10.888432603149255 9.92154645627955 12.603459989495544
Zr 9.0093649716526 7.6061458346574735 12.933612678955571
Zr 11.835742133605626 7.827106498295149 14.159433490551923
Zr 14.015715144996715 9.987974264960783 13.302683002330625
Zr 12.523304304157593 15.101431111046395 8.709377631312295
Zr 8.703638096010964 8.929009271404599 10.296541210013848
Zr 15.278746895126638 11.974933923869493 11.226760267637147
Zr 14.773446980213963 13.473765837471243 8.756972294265044
Zr 12.247730661354087 12.416343808448486 7.396431167163331
Zr 9.77881606267934 10.749484539141294 8.060323298107853
Zr 12.170171503123893 9.68173449866855 10.020208884056103
Zr 11.01870668221672 6.9195122007972465 11.002242993298754
Zr 13.581092988218002 7.439349531860567 11.907180803204538
Zr 15.246861806830413 9.184808058877493 10.747587361909302
Zr 10.529092212968177 7.817146955193765 8.27301294067577
Zr 14.633395864012547 10.636533124020323 8.372458848801674
Zr 12.285909469360089 9.54433314494646 6.9974776501340745
Zr 13.505736449554098 7.561893907429646 8.86974464283042
