37
Energy = -270.15115369 eV
Zr 11.906264527206728 16.37504337917934 11.155467267964378
Zr 9.409630992045187 15.740008463648795 9.733469873582427
Zr 14.1049400909237 14.962351280221862 12.768232361497278
Zr 11.663280695680657 14.478771029145465 8.394129943052969
Zr 16.308552964100496 13.559264064285285 14.002163316761393
Zr 11.503915014420713 15.066592725227833 14.039652902461471
Zr 14.201043590835784 14.32163564345896 9.807891549334473
Zr 15.98174816698953 12.447335228305658 11.446037070441333
Zr 13.856378926398232 13.637612512942987 15.504432762588674
Zr 8.915244203653124 13.424706428415336 8.263946181569883
Zr 13.648257253319882 12.671666904066786 7.284986643855296
Zr 15.661416211995096 11.689059373509501 8.826195058596213
Zr 11.15823495176525 13.726529718144176 11.408094512510077
Zr 9.218564728961882 15.74146746337007 12.476771575642497
Zr 15.89162917275522 10.62509576556786 13.784639531174726
Zr 13.303001025041077 12.037350171096518 12.94083195630905
Zr 16.12055349249804 12.053402839119316 16.288797504928176
Zr 10.9598222127141 11.543125430178984 7.342702412156713
Zr 12.898710273947739 11.535417565461605 10.010064738465282
Zr 7.778150512988044 13.524956698565381 10.970741910226717
Zr 15.095944774983103 9.64273613319153 10.887302507406266
Zr 7.989337080593851 10.68957394250058 8.890460082032755
Zr 9.046954760212303 13.028133566668231 13.589240301048214
Zr 13.564719310113247 9.721009747137133 8.042509072293958
Zr 11.207219624716117 12.085011427693146 15.342960273578562
Zr 9.948646565271915 11.409683677609513 10.361288648228829
Zr 13.62623804838857 10.590518060581386 15.816188792026429
Zr 10.600125945344843 10.235445381548065 12.8783490398708
Zr 10.643753729782148 9.04504656562887 8.525851357858903
Zr 13.374240738746655 8.914333399989532 13.471921843275274
Zr 12.35279611860848 8.405570580796924 10.72214014330072
Zr 7.548815002505156 10.570290341187379 12.235410345721867
Zr 8.579655939011946 10.669832013417775 15.1165177123832
Zr 9.102516543463617 8.376651599818462 10.893494614826205
Zr 10.894596993958935 8.887081705114527 15.461129458024736
Zr 11.003226281596596 7.226135801895501 13.032578263451352
Zr 8.489870906836495 8.225998742394056 13.769816881537452
