30
Energy = -217.63956607 eV
Zr 13.345823923427522 10.722591683870478 8.526784461399778
Zr 10.915462849356356 9.275114319430031 8.495643523182835
Zr 11.091790672457083 12.19243441544068 7.7769605805128625
Zr 15.180614925418944 10.446936361003608 10.750131746230707
Zr 14.412207626610774 13.190046284961763 9.018453416973582
Zr 8.227841102263376 10.993489519858251 8.148542858073366
Zr 13.404635777898006 8.34108821641248 9.789687927806643
Zr 11.013050175552985 7.504152045412594 11.067627865218425
Zr 8.599593093671198 8.4766397307464 9.794412871665394
Zr 9.755560653658046 11.450643879487187 10.589569162710786
Zr 12.790749774606935 12.604047677396785 11.335282589319634
Zr 15.81295065642817 13.145518038089362 11.640268205896264
Zr 8.978021131292474 13.826045902978242 8.594258756283866
Zr 11.468641835055411 14.726947358254733 9.650013361092487
Zr 14.048714045255284 15.296531249795327 11.038019141356163
Zr 6.954320545217142 12.880159006727723 10.191511812811777
Zr 6.879204272284448 10.247907186387017 10.839831430481462
Zr 14.017143664435455 8.09916710945492 12.635770334455767
Zr 8.787888262050872 9.024829566312752 12.669928744639893
Zr 9.021792770140168 14.468150979418816 11.467269674561404
Zr 12.132021529638584 10.125529337031445 12.285716547490722
Zr 11.199485303225568 7.762520175566159 13.875053609591527
Zr 11.709714866574117 15.447261649859511 12.546003975415294
Zr 14.055419790305129 14.009692948624954 13.72348734467318
Zr 14.945185210598915 11.047494238566586 13.59209649848002
Zr 7.855505811911765 12.015874832518302 12.94708413664836
Zr 10.534733967870531 12.977990501265563 13.4660274157713
Zr 13.08689066590584 9.346320937832624 15.151987747221089
Zr 10.255601508676646 10.335635649724477 14.86554312362186
Zr 12.575393708097195 12.010992107521838 15.104438891435697
