36
Energy = -258.58521927 eV
Zr 17.605070975785683 12.130387442106935 9.108772127089459
Zr 16.320136450352816 10.460287165369252 11.22408494935841
Zr 14.83532961957068 8.745736921145987 13.45334322435289
Zr 13.392455401659761 7.228770961316408 15.586021033772276
Zr 14.874641639035117 11.411714047111037 8.72489104675125
Zr 13.478370657302413 9.526721001365718 10.91078277851985
Zr 11.916680059233272 7.991717979781723 13.263355628739609
Zr 11.89755039894057 11.106542829494755 8.839045080250521
Zr 10.4158998961091 9.414951201871958 11.082704808965907
Zr 9.09025832373264 10.845578970655016 9.05078784484807
Zr 16.756317760472523 13.374677126315014 11.528404935087261
Zr 13.84628152608457 10.000434937441964 15.960368692131564
Zr 15.407042545941643 11.665958197334437 13.791300605244173
Zr 15.873298168307814 14.199921494094916 8.765489351929606
Zr 12.985321982677917 13.954618580167194 8.733791138780504
Zr 11.139475970986881 8.704248780910032 16.020105263268093
Zr 13.893077058430196 12.633568444558474 11.246083210600027
Zr 12.404202346929338 10.905926213820928 13.521568559899404
Zr 15.233598929831317 14.775525879986246 13.72524973232928
Zr 10.869891056415224 12.380270021447703 11.367539443306212
Zr 14.508296949854804 15.549734671400886 10.881077459084445
Zr 9.591753922151536 10.02200100791366 13.94367343252444
Zr 13.726178549545457 13.032117413521288 16.029748152953722
Zr 9.97582705212556 13.745001739226867 8.910684252422588
Zr 12.38574365661405 13.951159535621912 13.54504377719393
Zr 11.07769975537243 11.570224350354005 16.13586714112681
Zr 8.072584054801426 11.556414795489085 11.82859703034945
Zr 11.457921883144444 15.39890079618147 11.011689453454611
Zr 7.314938615321401 12.880488200228747 9.42700602974934
Zr 9.474189176253521 13.118177287081098 14.041393866406098
Zr 13.628638413027753 15.853753565004657 15.801770919133958
Zr 13.099365873620288 16.980130086592993 13.153109742420465
Zr 8.567989324344534 14.517192295237985 11.483698322144663
Zr 11.03351156562317 14.59480379636259 16.304681994382516
Zr 10.278646095845934 16.122219768499132 13.808438302153442
Zr 11.553013113470115 17.57072932820252 15.751828102966844
