30
Energy = -215.96414134 eV
Zr 11.724975473013494 14.11252330762605 7.9719370045242925
Zr 14.2132094761547 14.765310832144383 9.25450390728536
Zr 10.333840409796895 11.438153091620434 9.216768684490185
Zr 15.475085046394845 12.694531543074085 10.825852485540507
Zr 12.250839601730718 9.196357448989703 8.711311946232055
Zr 13.597128063478463 11.910728031477385 8.518287458973203
Zr 9.88503354827864 8.315499491880537 9.8535945915314
Zr 11.806423065437723 16.111684314849377 10.330600452414307
Zr 8.306949819413266 10.068418069827844 11.23945535857055
Zr 12.203206529030066 13.30196139444936 10.802948790847024
Zr 9.454267789654601 14.317361737245074 9.508935221075905
Zr 12.41644842705114 7.663757886272158 11.050818381458564
Zr 9.543496021287252 12.792156625818533 12.110457687746305
Zr 14.251279429604805 9.961883768217994 10.638730150647415
Zr 14.261869481240106 15.092114530172736 12.267962033921181
Zr 16.184257917482913 13.127546630512578 13.570555601786848
Zr 10.051573681073648 8.016917842643274 12.8380020572159
Zr 11.217316897876708 10.356595707955197 11.901252303880403
Zr 15.86976491242624 10.450257579266033 12.942411708412749
Zr 9.415001303907761 15.83285802377664 11.86723194170056
Zr 8.688983648915979 10.3858278975595 13.908566111274176
Zr 11.651582467415714 14.819432609622488 13.803362031697086
Zr 13.491646794652047 8.927494732173514 13.460116888142203
Zr 14.78065676166361 11.255064640795487 15.558900837254399
Zr 8.70852399568311 14.70027971740087 14.188977753510114
Zr 13.2453535546179 12.159102957296694 13.36931086862917
Zr 14.41582358606511 14.325354302472235 15.206313248316187
Zr 10.03159538004299 12.430019249667502 15.184154678300269
Zr 11.593589637155574 10.075769320139983 15.123502185881167
Zr 12.425650465449548 12.890409901047951 16.27055081473591
