33
Energy = -238.83900772 eV
Zr 13.298297001732056 14.244851767522112 14.739309332962984
Zr 13.224633078799842 15.588795792096738 12.353191856413922
Zr 12.606097447632811 9.461694407562216 15.723992476331
Zr 8.360218907771014 15.253631358106297 12.95150915325007
Zr 9.106905619020358 14.588093685442225 10.162974264165006
Zr 13.553386345746896 7.631126979957748 13.379865005212016
Zr 9.064976551994286 8.374775845846163 12.487421780712486
Zr 15.827182078665105 11.311864823999723 10.478656904103266
Zr 11.875936625564336 15.117004800329372 9.7287194110904
Zr 10.987947950631108 7.567909510602181 14.26425980430934
Zr 10.540921464233369 16.474612308422753 11.879579867455764
Zr 14.018692656670517 8.871480543282274 10.836198907182686
Zr 12.035325053241076 10.369453783518688 13.004110467099647
Zr 11.413015364545192 9.542142020899037 8.89200052862741
Zr 15.213138639376943 12.327196085600656 7.833738402431525
Zr 12.59077364728962 11.276034580692485 6.910589357779017
Zr 14.802750314532828 12.951412316957414 12.645234252598396
Zr 14.162166014601631 11.77692869860033 15.208532989775161
Zr 15.129007518482915 9.97865146630482 13.392522864461109
Zr 14.402269715371334 9.696633540018704 8.326333772500345
Zr 14.82137915517281 14.23588205523675 9.986462061166188
Zr 12.893216804516921 11.924106252515244 10.008222898767903
Zr 11.461476043995896 7.724794970252678 11.34082416113577
Zr 12.945383634791531 13.954750615780783 7.581304462605559
Zr 9.701972691454849 10.970206951597783 10.962880819738094
Zr 10.416657400772468 12.477152971331554 8.387432370433142
Zr 11.364437248977735 12.345320572779626 15.76357080309586
Zr 9.663965308162167 10.020979730671124 15.022906239293254
Zr 10.957553260817177 13.429104303110552 12.431117809293847
Zr 10.629344215216777 15.209726688493165 14.736107733794832
Zr 7.6131822331600345 10.600553793891466 12.99922540713177
Zr 8.691084780639668 12.848273221014916 14.53049615484491
Zr 7.487202146616805 12.982307078100115 11.709039976650189
