36
Energy = -264.05982024 eV
Zr 16.740540623248428 11.91189193940636 11.370188885451194
Zr 15.691312206361584 14.337580630993846 12.111204922780596
Zr 15.449463358029211 10.278018090900504 9.514208320274752
Zr 15.711943709823773 9.304933451179046 12.323043332318493
Zr 15.194806127236994 13.213062500564842 9.081822681745646
Zr 15.29957384383685 11.805350779765128 14.064243060329574
Zr 13.468797644947916 14.00595285077074 14.924275837748455
Zr 14.51987354585813 9.115849077237794 15.06357620500961
Zr 14.056049039393704 16.274654440072663 13.252193945308745
Zr 13.947841960116872 15.830140306040752 10.214710167364986
Zr 13.72901726669599 12.317448322977768 11.183567322790852
Zr 13.556806285785575 7.314093732333139 13.030176556636386
Zr 11.936888216872951 13.703605713806768 8.905942724836667
Zr 11.816540293667193 14.583087239657784 11.97888773635978
Zr 12.864017356310306 11.27706816484063 16.02550624742829
Zr 13.394331180740336 8.509790620984523 10.28509277439677
Zr 12.809438032373318 10.929065569759135 8.425988165334648
Zr 11.58242512871049 8.578362348511982 14.985642788123574
Zr 12.880684135225533 10.10663432491105 12.835517212132418
Zr 12.186501841473387 17.65940651034064 11.905793129549973
Zr 10.827910734441305 8.854899175951669 9.110908550935472
Zr 11.108611539653042 16.339846735570063 9.589250965833589
Zr 10.903162558397957 11.350844470887948 10.908786999968195
Zr 10.875242503744213 7.873782584685358 11.948566171771319
Zr 10.050930706867254 10.658041452646286 16.219470442868744
Zr 10.95044058452127 12.074210937388344 13.6987540720124
Zr 9.160670346249695 14.237960003277141 10.356595605819502
Zr 10.520540939570413 13.61639932506662 15.979639065402273
Zr 8.158258970928342 12.066892460137927 14.822868045116358
Zr 11.328841290206826 16.117746955983105 14.423594203948245
Zr 8.589171269199626 9.41436461459649 10.645003410113187
Zr 9.573805580862766 16.6815466454084 11.965944829101028
Zr 9.537724301632228 11.529381901013984 8.676127309650347
Zr 9.017585042428387 9.573794004945265 13.544673092197776
Zr 8.800549753894586 14.485536913408092 13.458549788929293
Zr 8.010198150182053 11.948610171007209 11.88362855476515
