33
Energy = -241.28645751 eV
Zr 7.010564956650026 13.667504224936762 13.601648733933233
Zr 7.763242607880696 10.902425463301475 13.319351272976702
Zr 7.731296871631072 9.802217599996663 10.666618433260455
Zr 7.156715228028883 12.711326991763805 10.886627900047731
Zr 8.67042187386086 12.546326100903135 15.721523901529869
Zr 10.183051531010742 8.964576408099523 9.372222648724879
Zr 11.867616626550745 9.806059793644343 6.854097678847669
Zr 8.526095514851303 11.37015066160245 8.362555097127318
Zr 8.906438564039828 15.329292348180212 14.876187330179373
Zr 10.064784741982683 9.0475705634884 12.410353078550074
Zr 8.702960033464208 15.36041911921809 11.736363671669594
Zr 10.924347180764286 10.831235140869323 14.727141368941735
Zr 9.976481521453413 13.148726094472657 13.163145034606572
Zr 9.17461513900448 14.07238577215014 9.150273798663626
Zr 10.066256386432801 11.719363441173034 10.803371987536757
Zr 12.439382158500194 7.281971847256535 8.363654019100824
Zr 11.251782481710576 15.825506755252833 13.368991070141572
Zr 12.48581704461269 7.403499358987488 11.406212869901845
Zr 11.48280853537395 12.407139336249308 8.290738363128588
Zr 11.537119022987868 14.64345119562234 10.712238344296072
Zr 12.974824925375913 9.913706037458235 9.548187964305633
Zr 11.382301745169356 13.811785485706878 15.631067580172859
Zr 12.530125111503345 8.51241040801695 14.056622074662329
Zr 12.601337494623875 10.83471703866921 12.121598098914959
Zr 14.678098118435294 8.860133362006236 7.356709489073326
Zr 14.917562006505715 7.592183380338339 9.869613683257137
Zr 14.20574276674368 11.644651488355004 7.47057726358504
Zr 14.007656850809578 12.970246893505717 10.073523057405694
Zr 13.11738670039794 13.54623601871558 13.199260693663623
Zr 14.98161670237786 8.91228287941108 12.426573606537335
Zr 14.010341527441367 10.925567444640377 14.666971180650371
Zr 15.831238221996989 10.483921191872529 9.791772915780284
Zr 15.422639528868828 11.867176060627116 12.339083230980753
