35
Energy = -254.29763366 eV
Zr 11.597116489609922 12.660928326972286 7.705743077462109
Zr 13.533571085943201 10.661915642977187 7.336323840728607
Zr 14.424846706141922 13.243605370716109 8.427858650489137
Zr 14.649472414288182 15.829563376731985 10.444376264075908
Zr 12.015972395258125 14.580040196917828 9.646967981283655
Zr 13.278535137384123 8.398935601598122 9.086244229689934
Zr 11.95212210463079 16.710620811123867 11.459632774248847
Zr 15.632505599618826 10.473178419645865 9.224583464576629
Zr 9.953954406019566 12.255286549572359 10.228977778535901
Zr 15.803073334756883 13.033182213964743 11.025716915201697
Zr 12.906564391531774 11.356743894427181 10.29209790431999
Zr 10.826030925911853 10.027990260276454 8.349028195132778
Zr 10.232330424588339 14.435225476244833 12.250687345184394
Zr 15.85065136664855 8.165005478388847 10.661418310623139
Zr 13.279833285864788 14.124497491647647 12.529894417368896
Zr 16.18112271665042 15.11140912363028 12.908948635265896
Zr 14.176547329306862 17.16188645064054 13.028805396815622
Zr 12.850626449541673 11.001296146861794 13.599587912959
Zr 11.710498482627102 16.124892043378555 14.323906515436404
Zr 14.404727074646237 15.394710862045802 15.185203624644087
Zr 8.110883011136995 10.25470715977142 10.78856643623047
Zr 13.538202818177737 8.615798884291435 12.022941812432903
Zr 15.596251054478229 10.581262089572634 12.404750119559173
Zr 10.865209468121241 9.093756497433407 11.030599538893613
Zr 9.854695704786089 11.062956938756617 13.188534519472933
Zr 15.165492798883257 12.74873517333101 14.468039230377332
Zr 12.355540041007297 13.368251393218397 15.391247539337854
Zr 7.64280058900813 12.865836898517554 12.542124134648411
Zr 9.552944480831634 13.674288244667617 14.91221899397142
Zr 6.833768803396697 10.165628638688132 13.287136698962266
Zr 11.229424185667018 8.602222336217885 14.351669142722416
Zr 8.781940881712503 8.083995353899992 12.69028760860847
Zr 10.598088672437699 10.988062716679616 16.099773829539455
Zr 7.7472847209141795 11.725914738682981 15.432021620979775
Zr 8.572001300348829 9.038726195813584 15.338584530372882
