30
Energy = -217.44243621 eV
Zr 14.438811434894632 12.729439851845155 7.8494916833770185
Zr 12.498543735143429 14.687585785830748 8.618030366612874
Zr 14.615706474029173 13.862095906704885 10.511640134673549
Zr 11.52140157414224 12.287387335950111 7.111640338420402
Zr 15.17166357252607 10.870703412945698 10.102320726338624
Zr 11.759156577898947 14.360166868096448 11.49585629117582
Zr 13.573750194672165 10.099444417835933 7.7729455453168175
Zr 12.420095412303123 11.911736536462145 9.911129772767106
Zr 9.676462314474534 13.903411475863706 9.198673839122385
Zr 13.383207692005158 14.538216488372182 14.01692710134406
Zr 8.741103486484066 11.655749366101729 7.776119213674614
Zr 13.949438236148193 12.03567636462852 12.644702173299397
Zr 7.166556656409992 12.024743344556915 10.377563369854547
Zr 10.989500647272063 15.702304536018106 13.946841748208058
Zr 10.753146963295373 9.466848637099465 8.078632372063474
Zr 12.822712860473912 8.788469645004842 10.244858390064453
Zr 7.892721104809597 9.373410370067134 8.9725941552916
Zr 8.912484798910185 13.84273842094194 12.097636960472556
Zr 14.18413477916294 9.024161484232053 13.064392787602497
Zr 9.736707138056525 11.130447603915107 10.676271940707702
Zr 13.065839881429088 10.954608860043972 15.170659836717755
Zr 11.464411194203846 10.127702713179776 12.773560598127938
Zr 10.9285701238581 12.805106135749018 13.994263281110815
Zr 9.90771950570276 7.886058997673542 10.616577168674139
Zr 12.001649459120202 7.157002326796682 12.49294944232203
Zr 7.455347073434472 9.248950698053312 11.645818178567774
Zr 12.047396876355807 8.248047541243702 15.037661575459182
Zr 8.264806821100642 11.251054318869967 13.453816823233955
Zr 10.192108649105233 10.364024660597678 15.550923802938538
Zr 9.354416695248538 8.228219839041646 13.627284513212315
