32
Energy = -232.7256361 eV
Zr 16.418162628897047 11.150026304852858 12.256692990598985
Zr 15.017282005681915 9.396348436678036 10.061055225536341
Zr 14.260459811975895 9.481792133993354 13.107836048603291
Zr 16.55734515180316 12.007063847054713 9.713157112792834
Zr 15.38342291600864 14.067376692653554 11.64556742870466
Zr 11.91731971981647 8.021920611133615 13.895828751436179
Zr 12.750821468041929 10.155531491124666 16.071668374869258
Zr 14.491428850341656 12.25254337681841 14.048888159524322
Zr 12.139617817375571 10.040757066010567 8.199589468102236
Zr 13.759460829492696 11.803277185496066 10.983294939494662
Zr 11.904180911481363 9.098601550430402 11.135077576781358
Zr 12.353529199012788 13.25907119983689 15.678824538499176
Zr 14.627683126616386 11.29676222747749 7.8243203947468905
Zr 11.778177064383827 11.054355226273561 13.654337671564926
Zr 14.858513522755297 13.98390304932657 8.73326980989639
Zr 9.971722955936896 9.116503948508408 15.549742580339275
Zr 12.326071344338953 14.096179133340058 12.847257426397022
Zr 12.440073883746608 13.158161720570947 7.355620311744607
Zr 12.572767175524147 15.095978474765058 9.941095199495575
Zr 10.184856053549645 11.687480761615863 16.41877282746101
Zr 11.196193649087038 12.371170792427836 9.924478963397307
Zr 9.137607758951138 8.702607420525533 12.824660415487255
Zr 9.564355100322667 11.701979558189745 12.281795556078947
Zr 9.441794007979562 9.902303408181467 9.833604626348585
Zr 9.549808847577218 13.777103473257561 14.552330525631163
Zr 9.823676117710615 11.763826257434093 7.426446162669174
Zr 9.837674300196365 14.61413205845311 11.451879556030638
Zr 10.055204310380404 14.57138675221371 8.3961916997591
Zr 7.888016582045266 11.053362219103128 14.58914923302585
Zr 7.017774119605291 10.527273720853506 11.754129492613695
Zr 8.169457439203063 12.647054139312921 9.84808964090873
Zr 7.250653402612502 13.320291272280343 12.697736339511911
