37
Energy = -272.03046701 eV
Zr 12.257357303403285 7.302739775481312 13.700806172824834
Zr 14.428588971218337 9.226758480710911 13.099416840610257
Zr 12.04362985578603 10.048181600554173 14.819031426102809
Zr 13.167971792319555 7.149573845646065 10.883301409361778
Zr 9.4820882827 8.654659324026355 13.911647949730156
Zr 10.313411400993841 6.756524992911797 11.746338877563105
Zr 14.462227292773298 11.751954873883786 15.322863540967688
Zr 16.31027573973816 11.658385191110085 12.995295351951688
Zr 11.678937224166349 9.443897043419975 11.679836365416845
Zr 13.165587384554428 9.743619109425385 9.055721331520292
Zr 13.537948716908552 11.91675155521686 12.241005506872382
Zr 9.448069542825513 11.590724845763567 15.415092525262297
Zr 10.831986808170216 7.981875385248017 9.21866912703791
Zr 8.508796778310913 9.105604996372234 11.087864346030132
Zr 11.878821939182618 12.153798857067954 16.849350109031555
Zr 14.993241136115211 14.261303740774071 13.768817838098816
Zr 13.499374519749521 14.341148295238053 16.321459495396855
Zr 15.518559731164846 10.46173225525435 10.487543590464714
Zr 10.067710761532942 11.43867603321189 12.424296387919107
Zr 10.046253592252159 10.879898784327775 9.244804510789146
Zr 7.3955293181438835 10.75082984225746 13.374304166364045
Zr 11.945318883607829 11.430546321022424 7.041378602561676
Zr 10.460320903232388 14.713801787472741 15.986698835536384
Zr 11.822685579537756 13.324797043517178 14.002463178083385
Zr 15.72963944648469 13.456354271364122 10.76953670673772
Zr 14.772025409355738 12.236671186988405 8.085566779789781
Zr 12.68090878236692 16.2226800119798 14.476700321628734
Zr 12.383219573561327 12.85103738665197 9.691033808666448
Zr 7.749013339124825 12.10018608763397 10.84643858511174
Zr 8.452105370097476 13.593299675613089 13.576244087097447
Zr 10.040618817506253 13.525322350830823 7.871012083769105
Zr 12.978936823451438 15.217152559081764 11.68871674142761
Zr 9.89208197648477 14.120919699889283 10.906926966030653
Zr 10.312670821753716 15.94311551082156 13.159326720258967
Zr 12.742355810307286 14.162729292172642 6.917917209660789
Zr 14.324248721510635 15.145764192279277 8.977157078165188
Zr 11.515405959171337 15.74275729764412 9.058736355191876
