39
Energy = -282.38732375 eV
Zr 15.121328608700978 8.970869197865593 9.052206593661959
Zr 12.966362507306336 9.678170323210937 7.177615140258362
Zr 17.22800870405044 8.170060401879104 10.940739030963423
Zr 14.550472556707497 8.376084210012246 11.86276402440021
Zr 11.059819347549457 11.399010702007228 7.955943310663071
Zr 12.282838256571935 9.44772892290996 9.983144124061347
Zr 16.6264717753901 10.966412196433193 10.649225093219293
Zr 14.137749993358478 11.743206449760061 8.843601596169593
Zr 16.6395861650944 9.920170812918087 13.283505607062576
Zr 12.80850305676961 14.707283446133651 9.099332171867351
Zr 16.21413917730258 12.959800756958378 13.380410201071559
Zr 14.018854443488474 9.638503610919535 14.749527606511744
Zr 11.705201874001414 9.619102444894644 12.990434834822228
Zr 9.666660103357007 13.653154289803178 8.65971773551956
Zr 9.29771386533101 10.648515620673226 11.038162282299535
Zr 15.299251144150947 13.862310010390003 10.80022892148889
Zr 16.097386462683016 11.39587514459973 15.72376436155915
Zr 13.969224220727249 11.312949886410426 11.943862456491384
Zr 11.497763397784603 12.503734367994191 10.645955770147946
Zr 12.75485015360569 14.69406655040667 12.23901155682845
Zr 10.20198229898524 12.431631052181428 13.429038443233738
Zr 14.716733162717919 16.59796119682107 10.90757902706878
Zr 9.235334839193902 9.5394114839508 13.966853727306335
Zr 15.04796971480219 15.801857721224138 13.699958714905533
Zr 13.092571098867209 12.655204469704264 14.620046616517673
Zr 7.2910164282660626 11.375064864111973 13.026424241410934
Zr 11.10781939384884 10.883669367966426 16.056956450275482
Zr 15.035864929192353 14.053283999691478 16.236473927400535
Zr 8.240313478343332 13.5109296942211 11.320136344055676
Zr 13.887190898758606 11.33192478379587 17.25891196351964
Zr 10.27055776042848 15.49019316941344 10.652490508075113
Zr 12.227316779709122 17.387258236415388 10.057127516930692
Zr 9.99076457552768 15.58517659251524 13.551556615425895
Zr 12.713319092952581 17.4955338342351 12.893481473052823
Zr 7.681739256663353 13.970567068861907 14.216621570947945
Zr 8.245540381202375 11.597581638389478 15.721106812954408
Zr 12.469073982361676 15.619938050737638 15.307424238525767
Zr 9.987035270272328 13.946988182567402 16.085890655199012
Zr 12.38967046050099 13.529505188688834 17.449822482036534
