34
Energy = -248.70769755 eV
Zr 15.375666486250363 12.939426565850454 14.37272225593645
Zr 13.005743698491568 13.825186516104107 15.564312079049735
Zr 15.78760069151705 10.074080611600898 14.487255433775584
Zr 13.309200839820539 10.977152403534747 15.677993652179252
Zr 10.963151565905378 15.318332247289069 14.336246156548798
Zr 10.523271939969543 12.546727778760095 16.2917015741247
Zr 13.805310118888215 15.304193767685959 13.174010841662612
Zr 16.833615092117046 11.477505014692353 12.223455275115128
Zr 15.478346153225225 13.753344216148962 11.18497907354421
Zr 13.414033219917004 8.540813114767074 13.701869301477894
Zr 15.761022702505471 8.920673582124861 11.900822957046476
Zr 13.774180560759302 11.259552160739453 12.49893954889723
Zr 8.477540596010225 13.927974615138057 14.457245129582349
Zr 10.844211179149534 9.586739620609784 14.925329545910628
Zr 11.49404303068839 16.567361078314484 11.778202170810646
Zr 10.95115581179559 12.31356054418487 13.555551399276238
Zr 13.791147470582745 15.974733931687059 10.26533386377292
Zr 12.163950274759994 13.62559216830666 11.117584050776573
Zr 15.188790925867213 11.07660482763303 9.842465887910173
Zr 8.373121535821317 11.189305499429551 14.901955080053272
Zr 10.987185567353505 10.776447331774733 10.863980004074662
Zr 10.976551431191934 8.015772696484323 12.223452839306129
Zr 9.236240004986508 14.864932650201327 11.817381173673223
Zr 13.802936482820574 13.570095980356507 8.622555633997578
Zr 13.367546621496261 8.586882783353772 10.553611760288348
Zr 11.084514852576138 15.367611464872333 9.116169843905082
Zr 7.918756185612706 12.16122279002174 12.149563303045714
Zr 12.713017280949055 10.42905789832513 8.284177079022179
Zr 8.92972009649315 13.004014889775082 9.481250093912626
Zr 8.688766880190729 9.415192299823076 12.90720153955234
Zr 10.724830859390734 8.320000608551133 9.279846798161742
Zr 8.185364487104847 10.000104110938283 10.129804757518976
Zr 11.246423088104159 12.877602356702916 7.788399551590654
Zr 9.788938803423965 10.627570206852509 7.991227745906213
