38
Energy = -277.29037879 eV
Zr 16.064175491003045 9.396000687166937 14.319174713881642
Zr 15.221501001092575 8.083071456739566 11.995240032775817
Zr 15.766259044782188 12.220003461667229 14.201374975909008
Zr 16.47163885151119 10.793809298464495 11.643949464250811
Zr 17.479395196229742 14.686822180471394 14.139078035545436
Zr 13.545324582067998 7.930164073192562 14.281965458303562
Zr 14.439898202374836 9.634045713678603 9.887452900566162
Zr 13.909309141303066 10.527278771820395 15.986535170443137
Zr 17.106020636947207 16.442789268577595 12.008540956526543
Zr 16.937823648952268 13.712770734057893 11.252678732981737
Zr 15.378072758528095 14.359561120271255 16.05838642190995
Zr 13.42288517054849 10.581338179018537 12.894622684334013
Zr 12.280310396041257 8.370893869114205 11.455712412002526
Zr 14.966021286990811 12.348435684206606 9.063456526319602
Zr 12.93687814786178 13.223303198954644 17.48908293781108
Zr 14.503190671592689 15.220803219237991 13.17692583527534
Zr 15.821460706457483 17.214244525194932 14.695763487981372
Zr 11.12408803330774 9.288510648606831 14.238008263049318
Zr 11.029746957866921 11.323448184197934 16.583357537975427
Zr 12.731905144765635 13.086465162643442 14.655092817029043
Zr 14.054388687105147 12.929650928199079 11.474784204597928
Zr 12.053981363788228 11.082536512466215 9.685640215209544
Zr 9.87729329055064 10.325783994454756 11.601438050119784
Zr 14.86761888008868 17.938905826704197 11.812165405374977
Zr 11.126227166180842 13.2619898695711 12.134571220286158
Zr 14.969629446202537 15.494269290580485 10.016360108156077
Zr 13.114891840777698 15.982139438265577 16.009243416685337
Zr 9.419642599096852 11.61204056052948 14.17049077842134
Zr 13.067234322342678 17.99470248280829 13.797773705104218
Zr 12.38510664383107 16.282627322290416 11.243029991491987
Zr 12.095145868176132 14.064414273824267 9.277288139896253
Zr 10.397282337406507 14.260435043831878 16.16412239359716
Zr 9.607738310275588 12.519527192135357 9.560786808944586
Zr 9.53511662425278 15.206205861880301 10.823962221276183
Zr 11.082121330944885 16.02136423703857 13.823848811459698
Zr 8.05252208525608 12.764495380623318 11.861692576415903
Zr 8.048835703479535 12.729964162927141 16.079266325452565
Zr 8.662785093642691 14.663169065675755 13.799178537970864
