34
Energy = -248.42195983 eV
Zr 11.2781997743247 16.31640941892856 9.770672091734394
Zr 13.585378911492315 15.131227241523339 8.516746259593779
Zr 13.750755935217166 16.166180759189384 11.277690201493662
Zr 10.964866228037032 14.119031447179735 8.043719036436944
Zr 10.904463687893747 16.043621487534313 12.599304498659086
Zr 15.363704349414053 13.503242095747131 10.07876803994565
Zr 13.208428398166577 12.162121048958019 8.349850218984152
Zr 15.995488233654422 14.95686461244465 12.469798164267388
Zr 10.250954956953915 11.685319354945198 9.092239402971163
Zr 12.24362992853614 13.57021123936475 10.789166491562163
Zr 13.456653918717386 15.491981319193386 14.142628465566775
Zr 9.296730227845694 14.378224624494734 10.640601856200336
Zr 14.940706433878756 10.643127304022926 10.34275951882555
Zr 16.806913547031236 12.105370704865505 12.532730618808648
Zr 15.864405393705741 14.060304341728553 14.981093921428704
Zr 12.178906032537611 9.337465872742838 9.104465849511113
Zr 10.942609283693352 15.38773584797025 15.442138388686576
Zr 14.069812239521292 12.518535399910146 13.110455394892352
Zr 15.880942964003294 11.44053800927782 15.415242152845972
Zr 8.646797758339867 11.717748255078549 11.703754163342666
Zr 9.852718098295304 13.10849019753456 16.34211008534216
Zr 11.939491436725026 10.470852732017212 11.817199533373312
Zr 9.406389062099796 9.30555002877582 10.346259466611134
Zr 8.618683748048893 14.367764456963316 13.785068554717709
Zr 13.058814620691138 13.104680744113935 16.086296893856296
Zr 11.058532848822503 12.89964210330102 13.618598145238588
Zr 15.28581741885921 9.576727084111303 13.174687810293488
Zr 13.896027303518988 8.155146157135436 11.176646773217646
Zr 10.935991310301281 10.503875800969794 15.612608455476591
Zr 13.63513014801794 10.17646689632349 15.535711613058847
Zr 8.389354674839362 11.544523749463707 14.54690816404406
Zr 9.545747279165433 9.194001360530356 13.277924180007064
Zr 12.463172061572722 8.284949907986068 13.875870138958744
Zr 11.205770851716759 7.5567028228755895 11.37087502998745
