33
Energy = -237.43140424 eV
Zr 15.755526610358338 12.124219733660377 11.531811739060085
Zr 14.584049986597908 13.819804868079908 9.395055891691987
Zr 17.154975998986515 13.165064103523632 13.780901779686948
Zr 12.659078502724029 15.75933011048758 10.970767061813024
Zr 15.433245815843385 14.935945829894944 12.096315577328104
Zr 15.349961205641023 14.622772172722119 15.040361214954698
Zr 13.421860134011611 16.18614794844859 13.736895840146138
Zr 14.883016273598002 11.00152472769431 9.001067412944431
Zr 12.84078940361983 12.172158471115642 7.265504240079291
Zr 12.655098885382495 14.038241010715332 15.675817207157396
Zr 13.81110109213527 10.106715657817919 11.650857067150563
Zr 12.166426091968892 14.8995208589902 8.379092506523902
Zr 11.876008442855904 12.203661388110786 9.989850922782788
Zr 14.59844827956663 11.698237126629566 14.355154296383628
Zr 10.7050224688446 15.44313797923698 13.35454659105125
Zr 12.674248990293478 13.269352990050242 12.744070450057615
Zr 13.195432030570188 8.83946725426499 14.16652115857058
Zr 12.641042873865256 9.375547987080843 8.97868907459556
Zr 11.758322967886375 11.091200620334021 15.337136406891512
Zr 9.923040327956857 14.662276577955929 10.36139704162445
Zr 10.359878353529696 10.596424460615859 7.687816104142696
Zr 10.04797405605231 13.35504492999139 7.71481860739925
Zr 10.995368677138764 10.373209026558497 12.403327208138567
Zr 10.016263385807077 13.45523423542762 15.242792282095905
Zr 9.277247274997963 12.815551253738617 12.59529490338008
Zr 11.998087468140884 7.641224283256524 11.853342182464923
Zr 8.733020718842342 11.899045396742167 9.811712667099417
Zr 10.430566979979163 8.394629850656344 14.639369273591296
Zr 9.797345191954792 9.064929271536828 9.97840638153963
Zr 8.786574692210062 10.875543674224245 14.872448986814478
Zr 7.954920938710107 9.994213106837371 12.239805490261803
Zr 9.207989361076123 7.306816876234144 12.119772591513028
Zr 7.647757101036713 8.066644934969652 14.268911995010923
