32
Energy = -233.31711611 eV
Zr 12.321090862284908 15.792350260850508 11.529037657308871
Zr 11.80357361616763 15.48814756432163 14.47433611580268
Zr 9.71618308301529 16.46429277504877 12.852356288017683
Zr 13.445799782570425 13.384221029923038 13.508446148515352
Zr 9.55644371054671 15.672468879906909 10.247159076619754
Zr 13.734530414681862 13.149637813304077 10.786456556072231
Zr 11.437708721541176 14.09422819591461 8.889160840838029
Zr 15.511805442253772 11.214185979421156 12.671693689768846
Zr 15.872657400685393 11.38649024925793 9.735894139348423
Zr 10.528126281029676 13.622327505604353 12.329429141574597
Zr 11.326553385439237 12.639619306328303 15.403826848521291
Zr 7.691847845157543 14.27328581244413 12.272564569573037
Zr 9.12271294385538 14.552011914596308 14.926259662042732
Zr 13.471837144174184 10.144867190189453 14.921696719647374
Zr 13.213880921858653 11.685565930247147 8.297733599240965
Zr 16.196648998435702 8.8242665983718 10.918258338404323
Zr 14.787678913359478 9.071190578890628 8.39202078541996
Zr 11.698756711423615 10.9521314135365 12.9710110712206
Zr 13.432013029852413 9.947767315031859 10.883065331765993
Zr 10.4587149136659 9.72871976723429 15.199207438126713
Zr 8.480223815358455 13.13284886045856 9.354459862824436
Zr 8.589726344126431 11.817225630010022 14.163764772620587
Zr 13.584933107066929 7.206656688018408 10.493418312025048
Zr 10.333518114480585 11.648810736854415 7.480607557409916
Zr 14.751558313123118 8.34385045805877 13.178057485606155
Zr 7.608959052972348 11.48380156375906 11.519052480863596
Zr 8.713886329119799 9.912489585623872 9.323659568786725
Zr 11.90622607074917 7.913418799257162 13.242427481250457
Zr 11.778002410587852 9.06764312584046 8.38892364471248
Zr 10.804587215209871 11.432880860753627 10.29885719796904
Zr 9.119880109990497 9.248360949468276 12.530319479563442
Zr 10.684346929928143 7.9556643222132495 10.600139267063485
