34
Energy = -245.48044164 eV
Zr 14.730614590649559 14.061891115357191 14.26329556251141
Zr 10.266483927510434 13.455158043170746 15.875828197243324
Zr 13.348736843360642 12.291516057071894 16.155586858369713
Zr 12.600385901171183 15.12956275555912 15.528230957623524
Zr 10.317184334503732 15.848074721072472 14.121868544988395
Zr 10.875404956625966 10.805393441535905 16.53687451841672
Zr 14.790492749609731 11.19010049555149 13.61842029305923
Zr 9.405487942153655 10.985377679068938 14.044118838493242
Zr 8.892808702648052 13.73446175371102 12.881945593690535
Zr 9.806500633093188 15.998461367074501 11.362084432063225
Zr 14.445733799191938 13.411174813643173 11.603478168022646
Zr 12.000887014428468 12.722718008426174 13.617100150363946
Zr 13.029496361685993 9.42763628687163 15.10417960753566
Zr 12.536020358413497 15.435355580790635 12.245561752497657
Zr 11.243383127066494 12.899019969669368 10.548927313235597
Zr 10.21556418495486 8.53424658690764 15.193068953602204
Zr 11.3424737267379 15.548233706113773 9.07894458645623
Zr 14.25707401159652 15.465955273248193 9.69876000383654
Zr 11.897531780342792 7.063189864438929 13.723123557340116
Zr 14.089454836648173 10.939921089347695 10.55305440160059
Zr 9.249513637967397 8.24027832436263 12.444656798422056
Zr 15.971233056381346 12.980261917241933 9.270486025590941
Zr 8.565400904162027 13.9314979325839 9.81310648321505
Zr 8.573013549827062 11.123365363769425 11.279563028765434
Zr 14.175881309289792 8.243161599504871 12.329423841740862
Zr 10.50253622633691 13.418356801035209 7.540158654569977
Zr 11.719832863396315 9.818264434528073 12.226631026907537
Zr 13.382167391176965 13.257355357990747 8.111414565437128
Zr 14.983651322738774 10.7000604440187 7.901779451679024
Zr 11.622633176893077 6.951829472434777 11.074596158077059
Zr 9.074576754049033 11.387356178892508 8.556333689677215
Zr 10.160508610829421 9.00388078643834 9.647430928356767
Zr 11.933788760764804 10.753054793970703 8.044176202693416
Zr 13.144325459124632 8.468737612550983 9.390705363149644
