33
Energy = -238.20123443 eV
Zr 9.01387042949151 7.158650509087043 13.205929662284404
Zr 7.75383403023735 9.354473672565069 11.908541497628523
Zr 9.08615131685463 9.547183200627613 14.603815647874054
Zr 10.510049813637092 8.443614655513516 11.329356527448077
Zr 9.279635321845221 12.23414570661849 15.257502160016697
Zr 7.963009272138363 12.016748127495642 12.798264646793633
Zr 11.738772250324974 8.17743603941068 14.00219794055046
Zr 9.19158522916376 11.202628087442022 10.188987352140797
Zr 11.744522218247623 10.508663474032538 15.685935147695767
Zr 10.87891684981767 11.167935559398195 12.723602370112474
Zr 11.96104150222215 10.30600813733959 9.580400088943945
Zr 9.38741067639866 14.139666607424752 10.401352660712774
Zr 13.402350378569063 9.528976658175106 11.988981977259021
Zr 11.77223747424721 13.580249482157784 15.84272634493636
Zr 10.324192646539498 14.0656656936534 13.277188830090545
Zr 14.561524371696363 9.918932795124475 14.710406435675669
Zr 12.795920318404418 15.76716852099507 13.948016578087403
Zr 11.151516556758684 16.091310092293345 11.577376149119896
Zr 13.741731725711693 12.714939775493296 13.434626217423679
Zr 10.550001966001616 12.72182328016854 8.097430608990603
Zr 12.343928385554113 13.209267558075945 10.622159472602357
Zr 14.57087200050444 14.536644102225722 15.921471227872777
Zr 14.04143753283062 11.941040214025785 16.530159636168847
Zr 16.0488032338511 10.677852968479058 12.495296411490271
Zr 15.646289855405335 15.279140753812975 13.57456772513524
Zr 14.925273711859766 11.351422174887068 10.01494845352051
Zr 13.314885724097255 11.882149967562516 7.798684411093672
Zr 16.391748042110343 12.52553851096909 14.660835202449364
Zr 14.132513564881087 15.814097080513434 11.252344175686087
Zr 12.03277434661447 15.813651790754818 9.075574822967644
Zr 16.206625592697954 13.457661413509527 11.582735343082515
Zr 12.579713304373731 14.339444441484034 6.979029475277174
Zr 14.819720922360267 14.145541321039826 8.926348084083818
