32
Energy = -234.13629037 eV
Zr 7.432786188073085 13.023722701890362 13.515061365214384
Zr 10.270605177299924 13.265486843943767 14.503409840244371
Zr 8.947030337381587 15.014346346357838 12.412240717597442
Zr 7.467471573202653 13.324488972490698 10.430111487183572
Zr 6.882882290841291 10.797900975646254 11.948329466591568
Zr 8.788514911744182 10.558932771867632 14.307765145820554
Zr 9.673303186992378 12.075720980421922 11.824625983791885
Zr 11.768467605850963 15.133951245756622 12.631637641667421
Zr 13.434216226637982 13.011069332597813 14.133705730000456
Zr 11.727709847605892 10.481033514574168 15.06760773182807
Zr 10.24772904072585 14.724759506445839 9.85719056265629
Zr 8.669182257542804 8.648392577933981 11.747495928183568
Zr 8.09593218999108 10.382075909727268 9.28914525720123
Zr 10.127612406743486 8.069276539725623 14.165296353278418
Zr 12.979757846155135 15.35934712316049 9.853033598587295
Zr 14.613166333585308 14.81994617647218 12.02863216442702
Zr 9.241448382442053 12.719986212100423 8.053658914823668
Zr 11.812056391831204 9.711703628787387 12.17597689350372
Zr 12.845802144392701 7.818112157837036 14.203539538894368
Zr 14.984779702890567 13.159559468026268 9.436830666259008
Zr 15.688898165039634 12.316596704308814 12.227853759869559
Zr 14.44512212943517 10.192954469845738 13.623424655960525
Zr 11.133479046326014 10.888401976645842 9.603691012675611
Zr 9.958133230791015 8.088865248219735 9.232514582956888
Zr 12.143249648448382 13.2851324237949 7.929156079168048
Zr 14.179325329245422 7.799995881000702 11.767751295153463
Zr 12.786404100406276 12.626925957422664 11.242365367334692
Zr 11.31117419821467 6.907543334681664 11.671109315796585
Zr 10.80294253502819 10.229416938916362 7.227784460773999
Zr 14.917898846151582 10.169201989586645 10.464171485064487
Zr 12.8249299805336 8.32925824718828 9.200644870747738
Zr 13.702190935915402 10.860172258769529 7.945711583892723
