39
Energy = -287.20926843 eV
Zr 11.357277795940233 13.18517370355959 15.696774923699122
Zr 11.061147403216891 10.01948861079509 15.689908832616554
Zr 11.187743169408812 11.026372021815767 13.24018360668812
Zr 13.862873662064402 11.55753934424551 15.123441403824108
Zr 13.556671355013542 8.800729232744818 13.961653805137216
Zr 13.934756425709187 14.654411919040907 14.874004147572988
Zr 15.958775494225973 10.489184093431195 12.957129562381276
Zr 10.859030937368674 7.861159288716653 13.606474980090223
Zr 16.164817581302593 13.121389239988488 13.875258790870868
Zr 11.505540972019745 16.153751902773095 14.768086053589265
Zr 8.73568407453074 12.223139203103745 14.669588044903788
Zr 8.553076695054227 9.338844809941794 13.333385686402208
Zr 9.047352232381622 15.12373055131936 15.07599238198833
Zr 15.497724384358222 15.335755426243153 12.264349312326775
Zr 10.561659586200161 14.037377442569342 12.756099766120204
Zr 9.296592834289132 7.155372029734562 11.043919527632303
Zr 8.2564162927091 11.927616955165599 11.692114623266198
Zr 13.448319834277877 10.293099771831015 11.251733025511745
Zr 12.534850520319502 7.168395276972964 11.401893062075008
Zr 11.341186764803105 7.459260823310735 8.813311377875824
Zr 10.45406152622837 9.652930307494453 10.762778958135392
Zr 13.880928351365347 8.766786246050309 8.840429349670408
Zr 7.445516053340067 9.502984498423428 10.535485396698656
Zr 7.56806921669975 14.404089860321223 12.813833876925115
Zr 16.16066090970603 10.131686228006217 9.9704121049333
Zr 15.238483873676504 7.977687187152849 11.537835622729414
Zr 16.112147865153695 12.77648363855773 10.877081203538093
Zr 13.519865042496662 13.161255467209696 12.437983224025292
Zr 9.621566779557845 16.612292725547693 12.424973668152152
Zr 8.993280954385467 8.664382616942827 8.364269987359734
Zr 11.331980535249475 12.611901849813055 10.319829939846189
Zr 12.86206421382636 16.352550361400038 12.244347670172168
Zr 14.05372162226966 11.866360355206718 8.597647725899158
Zr 8.88526772254464 11.590074288131174 8.747377499531563
Zr 11.47892182907723 10.435339789686257 7.871276743150348
Zr 13.90477690663047 14.641339013774846 9.747964909651397
Zr 11.271586423825376 15.789949445208032 9.952009719242197
Zr 8.8436437408514 14.491623580728518 10.076443623490222
Zr 11.394239116201739 13.619365089543491 7.865319307259292
