32
Energy = -231.23513431 eV
Zr 14.12142381420054 9.686298507678009 14.783562292407286
Zr 15.436829871013549 12.344920372849955 15.284139192260161
Zr 13.210136262930163 11.848458640003798 16.773659144732132
Zr 15.807975712303412 11.203368034859679 12.818554513683802
Zr 11.13490781180944 10.17968651176431 15.625454104726323
Zr 11.698128221925822 8.861429643926005 13.018906290399357
Zr 13.790564103692827 9.926280794972763 11.461854285074915
Zr 10.849055152820828 13.115682035006081 15.986967837909027
Zr 15.352655164856579 14.082248239031863 12.93081459804802
Zr 12.76115055549154 11.989491821861575 13.750658998860317
Zr 9.006462275545767 9.36461289030571 13.632883139124223
Zr 13.380694767194074 14.514146742065076 15.307621510938766
Zr 9.283084055994786 8.072594623179148 11.20361229909067
Zr 15.033091119445958 12.521902472944836 10.286113498865799
Zr 9.44812940960917 12.049455883831179 13.773299774572173
Zr 11.808435452341671 8.142998803069185 9.91264773355865
Zr 10.61790913423594 10.881152010824442 10.757714207252466
Zr 12.241828240496382 13.316683942709867 11.293856285329799
Zr 7.713618062203957 10.845274959447236 11.508524590620485
Zr 10.737370637505343 14.892758197394084 13.71423539202387
Zr 9.930475993774092 6.888113777520337 8.282268385360851
Zr 12.922801305700789 13.616833462433647 8.392718636466713
Zr 13.283094936425394 10.703600909451772 8.738843784037474
Zr 14.319932399457317 15.298189432389663 10.377639939005174
Zr 13.1828984918104 15.972889432869598 12.836190034680204
Zr 8.824958981902109 9.525746155018373 8.717492908784662
Zr 8.959844510392033 13.828220629748573 11.4804224520563
Zr 10.671358865563647 11.7586220762407 7.579001238877377
Zr 11.317529051316694 9.005022160274596 7.194559193443094
Zr 11.251796320461493 15.933611378107802 10.78486816601776
Zr 8.22960665150042 12.274442928339141 9.115625837676376
Zr 10.09092428166175 14.221938703166064 8.877133327067028
