36
Energy = -258.4348029 eV
Zr 12.935734388836776 17.34009906886825 15.632656305746531
Zr 10.090335454656937 16.56991501844167 10.329372483404613
Zr 11.634078035359867 16.367678579396788 13.248987695072584
Zr 11.07787860464556 14.866111229411636 15.675021015823106
Zr 8.41881405004007 14.080634476659906 9.53390779539418
Zr 14.114411557301516 14.795796948650493 15.260167527313833
Zr 14.40683035301793 16.943078350085738 13.280998245475283
Zr 10.0570227954205 14.278099937835277 12.010807508765534
Zr 12.846574305224904 15.656984840059458 10.842754289565566
Zr 11.208114294440538 14.427330494259982 8.64861240101747
Zr 12.636242602781829 13.202677301063288 13.000987865980475
Zr 9.586313098547521 12.666727921841 14.79864711874878
Zr 10.325543037323692 12.527357365776679 17.530213711448056
Zr 7.069917515762302 11.354932010290737 9.141810395754211
Zr 8.204500422219207 11.987295315298594 11.59930911370523
Zr 11.212075193165349 11.88673652625443 10.38378545204173
Zr 9.606754100980094 11.80620097701294 7.975677223408492
Zr 12.527037171675428 12.259931691517279 15.814253628352814
Zr 14.058714245070098 13.299895738948544 9.808819415309108
Zr 10.484054582557098 10.65808863460418 13.010457681481924
Zr 15.311025504908978 14.388221896941873 12.435185006769492
Zr 9.03647234877204 9.575672224790523 10.270602939432479
Zr 10.32226271024167 10.13319395612006 15.877095076236976
Zr 12.530224477927327 12.07820432007796 7.656623484975009
Zr 13.422937656900865 9.649752963271975 15.009623971914156
Zr 14.497953834412478 10.451281074416856 8.928509570482973
Zr 15.214230493417489 12.065255784101725 14.231954102777314
Zr 11.341835800853532 8.010158123964231 13.95872590819025
Zr 13.383113631946904 10.182435288911 11.861475400877664
Zr 16.062433157163436 11.593740117842177 11.345737056365826
Zr 11.268441540969366 7.8923748551072395 11.214238034657368
Zr 11.612961471109196 9.460880244316572 8.5487414844484
Zr 15.9273162025543 9.520545252488201 13.522491223094319
Zr 13.933428302776651 7.420169215502885 12.743733665507557
Zr 15.92861205687632 8.716850238470151 10.878701651770516
Zr 13.598700282949311 7.768139959614418 9.783084511356586
