32
Energy = -228.87170345 eV
Zr 13.630716406593091 14.924726106940762 14.953896991964617
Zr 15.388925479663966 12.895724797905448 16.225332986086016
Zr 11.684304792246175 16.023324736420765 12.787867509242366
Zr 12.370617576135723 12.402125626825134 16.485338820872947
Zr 10.842148866911787 13.889887170240696 14.399238826469102
Zr 9.53620041458238 11.300704411343835 15.76030701670671
Zr 14.658312362065423 15.34005379690183 12.086442340798053
Zr 14.515351572244354 10.316487556129134 16.30861343706727
Zr 8.159977559108508 12.748112427181805 13.836599151506539
Zr 6.85519067741684 12.401529396607511 11.252187033699425
Zr 9.642567151361547 13.242980237380602 11.357427410855214
Zr 10.81746343471594 15.356936948742083 9.203252610944181
Zr 11.933949190856998 9.500867913818977 15.538043724018106
Zr 16.286852196914914 13.926634374475615 13.856865545901583
Zr 12.748915923816302 16.670283345073763 10.497934805054882
Zr 13.79697393623676 12.080845557724185 13.810201891567798
Zr 8.527306954244494 10.244800264238252 12.237983596683575
Zr 12.520115906126351 13.375884660185296 11.244622745473391
Zr 16.401856523688508 10.971552201696616 13.99859812288417
Zr 14.303479266648283 8.821109940473338 13.95147136126275
Zr 15.567943652880293 12.698269279517174 11.237822080946298
Zr 11.012204738805607 11.23792598582444 13.329354017258861
Zr 13.74681168667388 14.488257082823237 8.992497711529507
Zr 8.139146644379194 13.737480407771866 8.962882685441379
Zr 13.586475320483583 11.349985040506976 8.894893498311705
Zr 8.572156674599741 11.00871103952485 9.349368923626269
Zr 14.185573710022275 10.197029496921465 11.433271152205002
Zr 11.15675612449182 10.282760651204175 10.45528611084445
Zr 11.017588920099739 12.735040420706627 8.387977426579125
Zr 11.851991305767397 8.50667860577034 12.572357710230111
Zr 13.075122733858871 8.435149039207788 9.32052011064796
Zr 11.379553095603919 9.855654348431647 7.639770252265199
