39
Energy = -286.7958753 eV
Zr 8.595673561820107 12.822150301957901 7.8716710180660066
Zr 11.395581692435904 11.65107679705698 7.531776972970216
Zr 8.89625553900924 10.130356475642241 8.171473753887042
Zr 10.846455586474539 14.494121189013487 8.700705554942076
Zr 7.283283587935624 11.5298389608137 10.337666763937428
Zr 8.591506887925046 8.772931742920738 10.790943115263788
Zr 8.381204120515008 14.334747604112428 10.261141391050431
Zr 10.345624420544073 11.941412542253648 10.144937768220826
Zr 13.255384725014506 13.439478874023209 9.823454339013727
Zr 11.305722268616712 9.039923893494256 9.253531542846074
Zr 14.026676381344183 10.335969269313445 8.72295531253623
Zr 12.81683603260227 16.119959860897414 10.987715668542956
Zr 7.099160050770511 10.348295388549861 12.951909221250466
Zr 10.026889871945214 10.669761654080062 12.61706136058722
Zr 8.89195026306278 8.31444952963584 13.811006354256417
Zr 8.157801713608695 13.069948946132504 12.906743964934563
Zr 13.649858391701198 7.924236559891762 10.435271566068488
Zr 12.132211285506235 16.02692436472396 14.001149552997672
Zr 10.900117823013076 14.25252176099962 11.894310421212218
Zr 15.75459364020525 12.294138501807822 10.38224573104183
Zr 15.81459502403926 9.471984032036715 11.03847621047838
Zr 11.315739296228546 7.901247159627646 12.11972388419631
Zr 14.351272323116033 14.106577280213342 12.812822212186742
Zr 13.13141667489515 10.770734662447977 11.454185223373218
Zr 15.832281296167064 15.378183147515143 10.681700526918174
Zr 12.224645734809146 12.189175017182121 13.806130393380645
Zr 11.435250599474529 9.14718234670801 14.979176790170403
Zr 14.574277872253111 17.217158863838467 12.773261910227244
Zr 8.856628008171864 10.995829980749221 15.255241483741166
Zr 14.71378634139758 16.062456991034978 15.341030136120356
Zr 10.107268227359578 13.815891538694428 15.120711311192677
Zr 17.34422153367316 13.331344205051806 12.469780913210407
Zr 15.853560082514244 11.077674019831834 13.364737564889154
Zr 14.026941241535615 8.672664276729384 13.374060124458664
Zr 16.853414639055757 15.765406735740127 13.551383629766873
Zr 11.384603506845904 11.598788344175324 16.593363608537715
Zr 15.980206510032838 13.400876834890504 15.26921462132669
Zr 13.013198338410074 13.920586278471871 16.08879592250764
Zr 14.072004578590345 10.949353002162798 15.679466050060716
