39
Energy = -286.34016835 eV
Zr 10.50494310807986 15.621594900671097 15.214078619773618
Zr 9.441485138443054 12.914609908041202 16.06320799797393
Zr 9.674373548259966 16.55554341584677 12.628583169854863
Zr 8.043712657142011 14.407120915082515 13.807870965317546
Zr 12.75037650865742 16.523673033697644 12.894500509973131
Zr 12.276022064912052 13.367512472838412 16.0891186988843
Zr 7.064655146523849 11.709322896119529 14.67092625846514
Zr 11.285159879836957 16.151857076155707 10.326305684501703
Zr 9.72609266739389 11.478706349581211 13.305544877672238
Zr 14.035654117975174 14.030678009146815 14.05272769337269
Zr 8.837583298979062 14.249675000501831 10.822554191891005
Zr 8.799472288514231 9.878298644102479 15.745757892247118
Zr 11.118281746572555 14.007804668746633 12.897230054204273
Zr 7.043283314684338 12.22943040406231 11.956259180761764
Zr 14.314420099785718 16.834749461436054 10.295686159758118
Zr 15.937139880355812 15.296334435498343 12.320147312397927
Zr 14.669457965334141 11.563971737454867 15.789541870409321
Zr 12.633112031986336 11.193440350751295 13.71496055353872
Zr 11.459590060713754 10.617050250093573 16.442035956038414
Zr 13.556525876948891 8.871990527851471 15.315224809240974
Zr 11.789041901481387 11.704182013800894 10.909664542698849
Zr 7.9222558054671826 9.431791329149535 12.804921505063188
Zr 8.959087225634967 11.090118098953685 10.27522740860349
Zr 10.894836527742347 8.569568634909812 14.173780394485439
Zr 13.546572070543277 14.1175984301425 10.933349824149184
Zr 16.947245665803738 12.579974465891732 14.045010709963506
Zr 13.531661839507693 8.530053983300453 12.344605250559532
Zr 13.207453748024308 15.241561817279466 8.190927669069028
Zr 15.906332770179993 14.507518975229672 9.178747544852385
Zr 15.999383544913831 9.61959496316759 13.883768865601128
Zr 10.956867015380258 13.535035908847405 8.853377430139453
Zr 15.074084551480237 11.765677958201096 11.853037299019345
Zr 10.6906566354008 9.069220522538627 11.351616101973582
Zr 17.659440738178716 13.41831186886505 11.220960859588015
Zr 13.755867973461429 9.930605620643568 9.628912012109554
Zr 13.859651235162545 12.466805696814728 8.228879650829391
Zr 17.910023037699855 10.77982993199055 11.951711682490847
Zr 16.02985948764317 8.952254233800982 10.96607213672836
Zr 16.491214740409774 11.381553776931947 9.286250308693377
