31
Energy = -226.03203155 eV
Zr 12.909224115272007 8.916941733889479 14.44120656233674
Zr 10.902273086789002 10.696790535402272 15.69496246616211
Zr 13.769856484321771 7.8904279597384255 11.962516225682544
Zr 9.964113522636685 8.247490605479157 14.851924759942877
Zr 12.975752864181054 12.02938352308265 14.282989400403633
Zr 11.121997403300695 7.191041785188902 12.37999625352313
Zr 12.670523182053088 7.486391037696346 9.277499035562176
Zr 14.82935206550717 10.53031875185423 12.37736634521726
Zr 10.952761846026949 10.237617998775596 12.67421464817075
Zr 15.24922933850291 8.87023056716647 9.98330047352585
Zr 9.876210550922718 13.109844962145646 14.543942706905868
Zr 8.312260795460302 10.656459704738099 14.18264185143177
Zr 8.48543936804884 8.360290973715998 12.456573485665116
Zr 12.634090140946402 10.519536136385632 10.065186727442462
Zr 13.832976510671745 13.220505132888409 11.743691016163732
Zr 9.93036383672627 8.659395652518892 9.956103981470909
Zr 14.129388374140255 9.39614707730405 7.512354176442429
Zr 12.265171870152791 14.744051282501827 13.632125808921327
Zr 15.14951770874506 11.711314980815233 9.207444703262473
Zr 11.322791902915911 9.310081086334604 7.503229821514509
Zr 8.16592307104124 10.955074652170484 11.1900610533764
Zr 10.564140807084307 13.224991167087207 11.362382883537522
Zr 9.70771884804285 15.607684891732134 13.160279959966596
Zr 13.010742368459894 13.732405691985708 9.26657351448885
Zr 12.697750132388695 11.839437667473346 7.246970969892353
Zr 7.688572443269675 13.59671301280177 12.44154111263091
Zr 9.958452312882061 11.526143774052311 8.652220247168268
Zr 11.685473958328375 15.894639645096689 10.929923013414717
Zr 7.914831673003904 13.329185107375327 9.54577142334558
Zr 10.371103231642158 14.512959640426999 8.54552409291619
Zr 8.708677242247225 15.749640703623307 10.600999566561061
