31
Energy = -224.23712155 eV
Zr 13.690023301212301 9.738592232368518 14.976261964407351
Zr 10.69152916550109 9.175037564597519 14.293455845670806
Zr 14.163992727078442 12.715739631142643 14.913201611609145
Zr 11.531042232377208 14.250512167301128 15.611189070185084
Zr 11.711773158135218 11.436223951962651 15.934476490110061
Zr 9.319126445058489 12.092335194093216 14.422227925027858
Zr 9.056002914055856 15.094043548629518 14.155424554289342
Zr 15.228210495204854 10.795406854152084 12.567409760792248
Zr 13.78053820309931 15.464010803035427 13.965641063868778
Zr 13.163316061792404 8.304213341554561 12.490070647418205
Zr 10.434621161596228 7.805934518793473 11.770725897413675
Zr 8.033897466579662 9.115260137070736 12.80965058707239
Zr 11.414573313386445 16.648193885819367 13.635856029266844
Zr 12.377868069478403 11.23455915350591 12.862670896988583
Zr 11.414835533352916 13.817128801144387 12.679711099140855
Zr 9.80237637797183 15.977818844050406 11.41166841264042
Zr 9.519986241369192 10.95839547263382 11.627156270636592
Zr 8.373547171432662 13.509253433072775 11.870278874233545
Zr 14.836503332170718 13.672159163691928 12.139938186146496
Zr 11.609828247695043 10.387126397473532 9.91596405874672
Zr 12.19924815857308 7.7071216782879555 9.22000437487602
Zr 15.86650690114068 11.562170179770911 9.697561798542244
Zr 9.171662386249828 8.631537691963343 9.492877045691682
Zr 14.623997722731177 9.130168184651561 10.24893495625061
Zr 12.855368329345646 15.75900882273913 11.068536895250396
Zr 10.600857769430256 13.575679043628368 9.807475544501434
Zr 9.037456701638199 11.346698374026296 8.527321692555203
Zr 13.419049655532108 12.718999946661642 9.899123591629301
Zr 10.835842080436212 9.428690918816105 7.19336705740509
Zr 11.633953333643799 12.198239256235691 7.4223769754719235
Zr 13.66532297343164 10.147331275121738 7.777747806766125
