33
Energy = -240.58648709 eV
Zr 15.709779980638215 11.27427877884864 12.612757679656955
Zr 13.952156133014318 13.881978498563885 13.720187513915672
Zr 13.958717777547983 13.287845860729131 10.755644448377899
Zr 14.722821422931135 10.578873297675534 9.607591503729997
Zr 14.653773987160495 11.537382298096002 15.308141345901632
Zr 13.218971259598057 12.72954338960645 7.896289949936827
Zr 12.2835938250119 15.26251421114484 9.269207456916106
Zr 14.337772443228097 8.952475132897641 14.384826218611012
Zr 10.587600684057213 14.206420617704884 7.315263557915442
Zr 13.145108728379824 9.95129279680916 7.1171015538976174
Zr 13.950149909788607 8.41604372218923 11.578199153128834
Zr 12.564941266712108 12.992258070548154 16.16913543137964
Zr 13.016159370665793 11.029496008825395 12.669636017569754
Zr 11.492457753261275 14.863896540909536 12.031590122075178
Zr 10.940889513515998 12.66126284050709 9.9010989621419
Zr 13.359638516901855 7.832028770240416 8.881293797866654
Zr 10.546695756743155 11.28443443671905 7.023685091433875
Zr 11.237368629869083 14.950635271864378 14.887179568663818
Zr 10.822203619885236 8.39795626080684 7.638046524700001
Zr 11.819547782427787 10.069763336356441 10.012949129076308
Zr 9.344074276422235 15.090726697002294 9.905934764253374
Zr 12.043948194835288 10.197399920584159 15.9263808027531
Zr 10.707919273314856 12.216300479377765 13.494042655446801
Zr 8.794289755536985 14.484297036450647 13.593553534845599
Zr 10.75619136041593 7.497795110114953 10.450197128620005
Zr 8.361013397044047 12.771253642066243 8.330393712297994
Zr 11.566601911146694 8.446733611943657 13.429629050328215
Zr 9.672780642014272 12.557175438403023 16.132140779625143
Zr 8.848777614986354 9.927931485953826 9.182376236549404
Zr 8.26920533214393 12.612859586817754 11.276229832036822
Zr 9.421521056158486 9.771352834178119 14.92552301740504
Zr 9.288699636975577 9.808195798388617 12.017331639924354
Zr 7.785219444837696 11.770886026806416 13.957545436088017
