32
Energy = -231.13736724 eV
Zr 9.485864363851928 10.386634053497144 15.338153364964864
Zr 7.191391033136881 13.183886017601818 12.080917399791172
Zr 7.921372046280494 12.9129781515093 14.951073726275494
Zr 7.372034672518265 10.599885756982772 13.304645153763811
Zr 10.703290370170519 13.26562809316378 15.535723829544343
Zr 9.845138923425402 12.308058271670497 12.82618658624268
Zr 12.319185896963786 10.805957878290647 16.041275856769094
Zr 9.585154934797021 14.195779910218704 10.492979764682003
Zr 11.950686338238013 14.631853848942862 12.622611590167168
Zr 11.06734552165373 16.728828961106025 11.205608380452308
Zr 8.538062219934968 10.831793417746054 10.651434456012817
Zr 11.643312817673367 8.371343948412791 14.808064462148316
Zr 9.543826078655943 8.713396412050638 12.723154942012032
Zr 12.009116797408328 10.68000460723756 12.82375814327019
Zr 9.14681981872195 15.133971380010916 13.274876282320516
Zr 11.04328968741518 9.277016186603028 10.23864798641491
Zr 14.187221992794866 16.160912660345957 11.06593009602359
Zr 13.952470882067793 13.144767907530582 11.092449434225802
Zr 12.551110218743721 7.911950473404808 12.180127056744734
Zr 13.515585400095642 12.738299514132121 14.382879711086824
Zr 15.471936786503088 14.64638360112479 13.68836096911104
Zr 16.134095258954073 12.32589758308826 15.501736338974402
Zr 16.75916056145922 14.406892405164415 11.192477464338754
Zr 12.26074914662794 14.918666730128134 9.150748298349933
Zr 18.057605345000205 13.350849268069982 13.769321759128726
Zr 11.283168735193378 12.03305298083439 9.705156635200122
Zr 15.172945419216994 14.662895610787674 8.778579965035565
Zr 13.912599924899864 10.167958743501918 10.54542697978015
Zr 14.323877656281324 9.63466935582662 14.232154027695023
Zr 15.875078333793661 11.753264416108395 12.67399059110807
Zr 13.63362266690303 12.278986670598218 8.22858355540077
Zr 16.198305363433462 11.99135666748266 9.582977997641464
