33
Energy = -239.63519832 eV
Zr 12.469509061957627 9.913199693867757 6.981712457143762
Zr 14.58120237757079 9.520199547572902 9.28676915955052
Zr 13.954446740392392 12.213961633777389 7.763443999979923
Zr 15.431501944690252 12.284042306292038 10.003746216632157
Zr 15.715830055398966 10.21909719056197 12.165017593617112
Zr 14.40593568001002 14.967448199265316 9.36361655273143
Zr 11.113887574999561 12.492806789428883 7.376636480586887
Zr 12.035184193697042 7.980207554957695 8.94723026859706
Zr 9.71410187287337 9.759284496006206 8.167378180237026
Zr 13.191268350132336 8.272603528622556 11.659226644953403
Zr 13.958141774352518 9.324194068757027 14.327840449905064
Zr 11.851751398801628 10.813190720493308 9.751078637103863
Zr 13.231846790162356 11.252237146529092 12.24222965649187
Zr 14.907438979785255 12.099396800752091 14.865394844090348
Zr 12.251415139914071 13.603869568519071 10.1849049283363
Zr 14.884365053577337 13.803842790227433 12.231473349825594
Zr 10.053666970749198 8.454625007569247 10.990864382545064
Zr 10.170581427325862 11.86115932261562 12.037993836042432
Zr 9.001582156893054 12.742759140735414 9.275941576989334
Zr 14.370441044096406 15.19602987220004 14.581908093869552
Zr 7.915407980568396 10.413575288140455 10.349425168593871
Zr 11.050847966003074 9.231468797294553 13.750948741760894
Zr 12.118865270853327 13.233465765383611 13.993415749640297
Zr 9.667297536037163 14.79954158597499 11.153822646261744
Zr 12.195524922547602 10.991063689139594 15.980026254893778
Zr 8.212019855188135 9.778375904027419 12.979528794470447
Zr 13.288666370847238 13.668461069949494 16.74535345704339
Zr 9.217725626399256 11.628375586583967 14.905852914314305
Zr 12.30409004631258 15.6545263925801 12.370458249186951
Zr 7.587218242026937 12.708976326409486 12.249196643992006
Zr 10.510984046087614 13.509413205260465 16.556245475887117
Zr 9.400198947618875 14.580707191855135 14.01419518904816
Zr 11.75354611095339 15.841527126519717 15.40755360601582
