35
Energy = -251.4804392 eV
Zr 13.589368231539746 13.616895169751203 17.61719266770685
Zr 15.479742394118066 12.072292577208733 15.84755641806286
Zr 12.644580225777965 10.886216092884052 16.904807184039544
Zr 15.091153986094675 15.114444852379542 15.983705841012599
Zr 10.888967204058883 13.430635582802058 17.1594543411504
Zr 17.174191124526946 9.864641491699006 14.721820480691422
Zr 14.462208385416051 9.230996289463361 15.124265595012094
Zr 9.878330905316249 11.400391791363376 15.803685255818758
Zr 11.265185060890287 9.383697445469268 14.522018470456244
Zr 12.078949572932808 15.696143303817866 15.85425348936836
Zr 15.073159963231296 14.301877496313965 13.375187867518688
Zr 12.726040246555709 12.820607013490484 14.75699679377279
Zr 13.762877205582123 16.953315340187693 13.967929619955894
Zr 15.85332161974578 8.746925801394625 12.334576434741852
Zr 13.19244237428373 7.659283367116999 13.126258244687225
Zr 9.742457022253712 14.086964792776584 14.429612192132332
Zr 16.333972217529624 11.68335546324429 12.83967693517502
Zr 12.451014410872883 18.423709047604607 11.980490730806702
Zr 14.578665447506593 16.487143240316595 11.168901981530036
Zr 14.089068979282573 13.23306380691356 10.754569053653196
Zr 12.167405047960298 14.871746346854813 12.294893974397048
Zr 10.396297040158872 16.88531724931884 13.314137216693913
Zr 13.454733690980115 10.6331102436633 12.531321167053926
Zr 13.573578085910215 8.372702802509224 10.407995615003294
Zr 8.801396988154504 11.012556751377252 13.315360981402529
Zr 9.261463095318598 14.61124225902692 11.608178596813186
Zr 10.969721901185189 12.107716694759478 12.294807761999921
Zr 10.943685995987488 9.002223097641675 11.714322124427895
Zr 13.123813602912236 18.12293299407598 9.34094358769229
Zr 15.330777614268262 10.713791327448263 10.141736021171168
Zr 10.802829125516721 16.7151382081536 10.26327165172086
Zr 13.21198199758345 15.31831576760291 8.785739827779345
Zr 11.115201367169796 13.648681288261368 9.535469434805275
Zr 12.042941730727664 10.663317079654053 9.63503261211497
Zr 13.56229617098488 12.360420631874089 8.092206883984161
