30
Energy = -218.37036697 eV
Zr 15.259145225712011 10.062994068192294 9.811610156939107
Zr 13.371044227802212 11.647198980959592 8.09221288355613
Zr 10.9951220256111 13.361923422457489 7.26811836637838
Zr 14.799124091797895 13.034910593994665 10.543167866655574
Zr 12.753707945357736 8.707327235864781 8.841525957711498
Zr 13.106454803735716 14.576140413039864 8.748182941630255
Zr 15.475071183774359 10.722954366185016 12.588842331161521
Zr 10.427488657208714 10.552937007871472 7.774477400647192
Zr 9.84001391435065 7.846827160828386 8.677540439023712
Zr 13.781180686963808 8.188200948547093 11.784528916897667
Zr 10.392569001012184 15.350240029204336 9.314510959285505
Zr 13.034770220148731 10.921686894986205 11.347805287461671
Zr 8.581193932036053 12.87700778104981 8.954277149374615
Zr 11.464488829800956 6.7572625616986395 10.750918809013548
Zr 11.228306059230665 12.673694147086742 10.11175734781302
Zr 10.892323264232248 8.070745327166247 13.382582885037769
Zr 12.338421474190525 14.958950727884643 11.619988957689774
Zr 7.9682050412096865 9.932791027604546 9.708625109922774
Zr 10.597745531529897 9.62507041448308 10.888189713586332
Zr 8.729111682749275 7.428752232645364 11.341980551285804
Zr 13.560251180998 12.95507849258349 13.55853887838368
Zr 10.567539503207483 11.83892103277729 12.902870315285721
Zr 12.965121210766844 10.11061503211694 14.286893101624692
Zr 9.165271411980083 14.50712951691528 11.813712792287568
Zr 7.655328991417374 12.1273306081862 11.641182595645802
Zr 9.97154523904652 10.055829728910233 15.291373806958797
Zr 8.163109205120266 9.723366362595122 13.03372454126166
Zr 10.925341980917747 14.597012723386555 14.132814598032109
Zr 11.44725012682815 12.359879681313277 15.6655844438785
Zr 8.57866708147234 12.67518874762512 14.539127604223424
