32
Energy = -231.15530032 eV
Zr 17.581854238529516 10.922085303435296 10.441958691089672
Zr 15.141484253282076 12.205690392568016 9.540742226452656
Zr 12.428711988340508 13.458989247833557 9.339205092596348
Zr 9.76942101510463 14.5374421673019 9.194110407804162
Zr 11.68494059552442 16.13411159224658 10.773598695626063
Zr 14.495876758315644 14.618205888464889 11.197671920261145
Zr 16.899438963348704 13.170008430367506 11.64085937349607
Zr 15.041530922751857 9.408771349874273 10.422626783841778
Zr 9.933840710289461 11.752861437676053 8.995237525231278
Zr 12.619551966714303 10.454856732898799 9.010543468320092
Zr 10.430764070136988 16.489066228334067 13.397695223668537
Zr 13.090654020756912 15.25305346275381 13.59814956429088
Zr 13.474891501054394 11.954461455816034 12.262582630869584
Zr 16.036256566815695 10.543524178935254 12.964738125552712
Zr 8.696707229489569 15.837437713190573 11.386046521115295
Zr 12.69678371110411 7.831906414614699 10.111337757348291
Zr 13.568309315897306 8.656233867334175 12.830678629857905
Zr 10.774373275336451 13.664827374889164 12.038312819094672
Zr 9.984539214181433 8.524908200687381 9.574764867325376
Zr 10.901125263589469 10.353919117383711 11.63347813688588
Zr 7.96617579465073 10.333289166037671 10.612556009031342
Zr 15.465824026790056 13.224722937940282 14.07976319476015
Zr 8.459510580556373 14.201907141961284 13.826206110499506
Zr 11.110061716451485 7.224722707152123 12.168850176358273
Zr 13.224012279901123 13.286675726852947 15.754887817073286
Zr 7.935646286730439 13.013904009860582 11.109985594901316
Zr 10.837596063954818 14.726384359955917 15.441659008168106
Zr 13.862119206788211 10.682388860748187 15.015743266980456
Zr 10.972235736396067 11.958911857547273 14.631472365652824
Zr 8.458075755956834 11.076737614181704 13.451971218232314
Zr 8.679157798848744 8.367026175638863 12.402371196853098
Zr 10.925134974714418 9.10849671670597 14.373991718148693
