36
Energy = -261.97780883 eV
Zr 14.056633202736942 15.71288210919376 11.101737907612932
Zr 10.867299841951438 11.799743201063526 11.732659535485695
Zr 9.734342066957726 11.184010997958449 14.581869254645182
Zr 15.820233559376904 17.543886604543914 13.378572009428495
Zr 12.044919268270235 10.020751220893906 13.627444521330414
Zr 13.14295291058186 15.697406658544814 13.888739703725474
Zr 14.828059916704717 15.94052937059822 16.018929492157326
Zr 12.807908484873684 13.279189503434344 9.999221302573003
Zr 11.337941055812173 13.448955809541816 14.529036028062073
Zr 16.26864879865717 18.42004807570851 16.445597185719166
Zr 18.435504078043532 13.660177666407657 11.52918661865862
Zr 8.874884106171178 13.50975274077152 13.149766209466087
Zr 18.707240532548614 13.402481680049478 14.412078111938337
Zr 14.465128278040009 14.185554792421964 18.521201038517063
Zr 13.819743994853294 18.872304430039858 15.22456704343923
Zr 9.974665168683085 16.14224196909915 14.124197575694822
Zr 11.033024588349514 14.907511333057654 11.679235233742242
Zr 13.897116762032407 10.666839629813442 11.29386919039955
Zr 11.62447394683294 17.494796195268716 15.912690750985126
Zr 17.949593142373885 16.061877888139474 15.710757685507842
Zr 16.164307605692862 14.53373175462687 13.353667584215472
Zr 13.631952937435257 12.773717047605423 12.79201337229208
Zr 17.210665857396037 11.190490189503892 15.507556868663107
Zr 17.137157182890256 13.6114434105635 17.223434681513485
Zr 18.637501968448895 16.1467049016208 12.996089919719175
Zr 15.205926755979158 11.228485521824172 17.49448639279841
Zr 14.679385280319531 10.100395045997875 14.636004283100505
Zr 15.708970629387084 13.228631364276291 10.427394736055287
Zr 12.416577083237563 11.288328267552178 16.280659545675714
Zr 13.748513548488779 17.336402921426533 18.087764090308507
Zr 16.694776872473863 11.523500489808631 12.719404482473095
Zr 12.07242979725627 14.79991661296677 17.037986748662764
Zr 16.55766403087878 16.278314165846282 18.367405531729485
Zr 16.855887823614477 16.003698818497657 10.807556758351184
Zr 12.00710163661624 17.94761289040984 12.915050468881219
Zr 14.62960802758835 13.106425462478304 15.540908878027816
