37
Energy = -271.17128867 eV
Zr 8.161102210537774 14.468942035705528 10.2097284298582
Zr 10.279867491247657 16.22242597545622 11.472573447575373
Zr 9.086413099627014 14.154169963126902 13.156921883855775
Zr 7.0717401475458805 12.330096046868835 11.919257812214298
Zr 10.899830100204602 15.146021020046092 8.917869722994283
Zr 11.862849163503242 15.530915730391108 13.792336595210932
Zr 10.624283036657367 13.074812176899085 15.357696303456715
Zr 9.180216904959979 13.052164427631343 7.783625288120456
Zr 13.264690298920918 16.143993139034315 11.086057516845404
Zr 12.040365107071493 13.708500119197277 11.47264835674396
Zr 7.302111784960183 11.616834303834866 9.236234078991966
Zr 8.257686097006356 9.62809674286668 11.200250432059748
Zr 8.56611422973464 11.181652809794414 13.914543128305715
Zr 13.183943135464 14.437451477780506 15.978877723766391
Zr 13.653583941699807 14.59389539836481 8.710999855108627
Zr 14.888282311558823 14.868346905786616 13.527286689409108
Zr 9.87404699081647 12.090101516234757 10.657857328656954
Zr 13.006572998801575 11.581968470719989 16.692761207174048
Zr 15.588935195335374 13.052742300207337 15.75848509678026
Zr 9.895612871984413 8.364809614125349 13.677945889369706
Zr 11.331774964504834 10.546067181707938 12.9776899837667
Zr 11.876224323203495 12.36801207943093 7.9543203841695425
Zr 9.799281117287885 10.175921061706948 8.409530810295015
Zr 15.37233911178835 10.319691207790044 15.382594293477844
Zr 15.225749479122499 13.568859532751434 10.854174991418141
Zr 16.306719387903044 11.985569491287247 13.045299316630956
Zr 13.029517339236596 11.10306551189137 10.77862909445318
Zr 10.423489049879484 10.250964018115676 15.925216337948148
Zr 13.46894835406834 12.242225881635525 13.846702895333298
Zr 12.484214571445248 7.530869718575563 12.727766711144557
Zr 12.80032935571451 8.868405622583893 15.185818407809604
Zr 10.94646057438268 8.527937700595116 10.519120726041605
Zr 13.028176415137011 9.612542826698874 8.304405752269522
Zr 14.742996176827068 12.050963156074543 8.293177088714073
Zr 15.781610676108636 10.425007106361974 10.257976474794951
Zr 14.88507661148519 9.275621512005525 12.886153277834007
Zr 13.927693004472925 8.095629395023487 10.418381745319758
