34
Energy = -248.50563987 eV
Zr 9.956627319878029 12.12788729403946 8.670924674706947
Zr 7.853344737145472 10.339494900861975 9.487961119310267
Zr 7.760874946014209 12.92016177567296 10.393496550737051
Zr 12.463733987488686 13.957904041071677 8.66367827666703
Zr 15.251781982210757 12.522151078671927 8.375168838050746
Zr 11.4091850441704 13.081601370707922 11.45314522347738
Zr 10.585063679061985 9.063437279925589 9.550347583504056
Zr 15.224665059897358 15.14122647733372 9.21093602465342
Zr 6.888035860929655 10.817733473104713 12.356632358873357
Zr 12.758698578522345 11.141125733103399 9.131754553084997
Zr 8.211030960641002 8.254020375699259 11.17964992191395
Zr 9.776553963317129 10.763123828868807 11.91664325420972
Zr 12.751102239661273 15.907482369629797 10.740355888101746
Zr 9.739709641058305 14.954149846813463 10.204212775752394
Zr 8.531624151275869 13.738658638184267 12.93044374232968
Zr 16.991746474407098 13.165564974727843 10.820702857889898
Zr 14.237925304940925 13.097288683116464 11.171938833503017
Zr 8.520456743483361 8.81072338631213 13.898805219854458
Zr 15.50981107358065 10.468494871341766 10.232689918248424
Zr 8.577689325036284 11.47302407469979 14.7711452735056
Zr 15.604336839521752 15.707676404238134 11.895700209841396
Zr 10.856130456064145 7.881318873615935 12.273664968001775
Zr 10.761297472517498 15.620094735252227 12.940628987619032
Zr 12.934609889934759 9.790586790399281 11.68861952225683
Zr 13.461254586468144 15.220301510665642 13.682256362968108
Zr 13.407249329990586 11.89171545197464 13.723105209720016
Zr 10.998532789707703 13.178880974519148 14.733021631627215
Zr 11.159014533472245 9.839534166072937 14.503344933517864
Zr 16.12906843529078 10.849675942276253 12.949483062919377
Zr 14.040474683296525 9.132572549464296 14.600391314074486
Zr 16.06256332696301 13.60421937462603 13.898784765747235
Zr 13.881605102885201 13.651809260023239 16.086962121709174
Zr 12.761976766875373 11.072200348375455 16.504131078407735
Zr 15.571136853176718 11.336976016195266 15.788637081712926
