31
Energy = -224.71430336 eV
Zr 13.426693684729237 12.237729027687088 7.860093509132868
Zr 11.819661829740884 9.988541563206034 9.255195991965143
Zr 14.955298195924588 9.729434535569023 13.052474710352607
Zr 10.851362872839463 11.851433922703757 6.983680315267783
Zr 15.15137398902333 12.834218687917181 12.848031170201596
Zr 14.74508100710758 11.22361030974433 10.37453842354161
Zr 12.086363324243937 9.526942671294016 12.182902539753966
Zr 7.711655653956764 13.276264899048078 10.608573870461088
Zr 14.223029843265781 8.404785612729938 10.327958207643059
Zr 9.123567092048502 8.422098695006211 10.528076150928408
Zr 10.513679810042348 7.440706951977487 13.376512171562556
Zr 10.160186315334222 8.674096467585748 7.618397439348029
Zr 10.344647702934878 10.216681907915186 14.912655024559454
Zr 8.155196314151375 9.11937528510487 13.307941222944347
Zr 12.797709911936357 8.588204387425192 14.938264321460695
Zr 12.10512138893825 15.375901730656834 11.366126692740092
Zr 11.804630104677969 14.825328449957686 8.081086015750042
Zr 10.842739471959174 13.100559415397228 14.527327918691382
Zr 8.93185907899315 13.704683211725275 7.877064424490461
Zr 9.72690497692823 11.229030772849452 11.856296048338384
Zr 13.209070551678208 11.371267284682684 14.9086123124955
Zr 7.007516006640598 10.48523873648424 11.17202091468577
Zr 9.497988192077287 14.45084561906681 12.51160218188732
Zr 11.651241838370277 7.115882379467664 10.387202656263183
Zr 12.58123052019955 12.419640717444151 12.232493844660542
Zr 14.125662476941397 14.023162120425736 10.050512734823993
Zr 9.586873328649034 15.548644705097463 9.918515088911649
Zr 11.07138887738963 12.869199316060561 9.895166187407316
Zr 13.480093422187139 7.011967977745971 12.719832042169111
Zr 8.511980460198703 10.916251860570085 8.703459590255601
Zr 7.956994439396076 12.081222760005813 13.728854598364633
