32
Energy = -233.56043702 eV
Zr 10.610209447467135 11.131935991056404 12.112409273619631
Zr 14.284736335438495 9.61136256513011 16.510147406590555
Zr 9.605784300067807 13.167600384298888 10.338730253316625
Zr 11.281360647521394 14.842564159955401 9.001266767340258
Zr 10.148623754354976 15.958469060128941 11.519808863803805
Zr 12.166250508646277 11.228441499860839 16.945806853242317
Zr 12.218011023958487 13.884474483665343 11.910434718373255
Zr 13.939087087302333 14.313050239978885 9.171057562838655
Zr 9.149015476751805 13.58356943211897 12.967383279250205
Zr 12.175800735794725 17.21385714998368 13.156033158704647
Zr 17.204733777263186 15.78765714489257 13.58161752404248
Zr 14.671832064817234 8.663177911659165 13.986758055959882
Zr 12.149984621452765 11.988350548232038 9.526923696211743
Zr 14.327442738246505 14.85045092413558 14.457169252677069
Zr 12.294846069765528 14.041864269805568 16.80455297545498
Zr 16.577351866720715 10.807658328128948 15.20114639436188
Zr 16.99395712980944 14.045313662159948 15.912960551850428
Zr 13.220317758004407 9.86082582339997 11.758938767573238
Zr 14.73926472526189 15.22622019262827 17.50297772555525
Zr 11.910806415193383 9.493799845242968 14.565230420415626
Zr 15.371421460455638 15.195470142233491 11.462260939882638
Zr 13.871369729601868 11.694423055190041 14.185853283261137
Zr 14.812521788157836 12.230657307908404 10.863248778959044
Zr 16.76795284969049 12.980099458746663 13.14538870482835
Zr 12.964340162429332 16.685532810503958 10.49142233732286
Zr 16.17646138989828 16.936261384853246 15.889084025744125
Zr 10.770865614805547 12.364228822574468 14.819686016472241
Zr 13.231947889673432 17.151126162787325 15.840331738507853
Zr 14.956851846520387 17.62385737274863 13.311556721374124
Zr 16.104297148266724 10.26836103879047 12.348003268192771
Zr 10.78935842475414 15.361427556418178 14.597489863650033
Zr 14.88388037196963 12.38778175777944 17.20430467188558
