36
Energy = -263.9237176 eV
Zr 11.401983715215863 8.03833611190444 8.947189320870304
Zr 10.111636228811907 10.566470632460872 10.133607024771292
Zr 11.133586096145262 11.01287885105799 12.63055303636618
Zr 13.397130052775871 13.449318293867636 7.5094534108365565
Zr 8.01753714080415 12.133462430902432 11.97206106654172
Zr 14.054225260748112 12.50777172186231 12.26900560446565
Zr 11.237963522557095 8.102195326923846 11.913307920948503
Zr 11.762638857760736 15.334424174116293 8.805953567061017
Zr 9.4405765611257 14.204451026456987 10.234299664607333
Zr 16.09530411200267 11.160853564604558 14.247037969890922
Zr 11.292888457582936 11.738695006659212 17.256475878573347
Zr 12.828226038416735 15.562893426188165 14.814034980837926
Zr 13.77948991232283 9.439228527648536 13.652269682836941
Zr 9.136083044824058 9.686127601319294 7.717647666128932
Zr 12.16589493710884 15.410276370171472 11.749075672465754
Zr 12.218361549572043 12.73357979352541 10.133085180255955
Zr 14.543644495294442 14.695940607728105 9.984316493057166
Zr 10.463285573837533 12.78716178100355 7.669887600237978
Zr 14.103420261294712 11.060660278942274 16.336100635159003
Zr 8.911251387388063 7.75056281340438 10.10845034594641
Zr 12.373032980451871 12.599033502291304 14.606193248977393
Zr 15.153390269399269 11.91083787395447 9.384134568332385
Zr 11.37750768480084 9.722578341963843 15.217974278876714
Zr 12.364862819801523 10.626690942664087 7.9012010194827464
Zr 15.935825831596357 10.246708276769018 11.673391307735427
Zr 15.36633372885916 13.802363543592671 15.094205817280333
Zr 10.53035592787593 14.32232583753258 16.21838744198708
Zr 16.694176603377873 13.238801213568212 12.187169960339142
Zr 14.843447175688901 15.499559831234453 12.785021142775205
Zr 13.264065393280593 13.846667864262235 17.1425215921002
Zr 10.055410939013456 14.098403165027989 13.197621437501704
Zr 8.675495206022354 9.340101392736749 12.696029027384485
Zr 9.346779016705387 11.846155253130012 14.911145555742728
Zr 7.1811185752387034 9.905840221318233 10.153762211267058
Zr 13.402917076193427 9.58903079793238 10.531787616519662
Zr 7.86973223685389 12.24937712059423 8.904726483894674
