31
Energy = -222.38203804 eV
Zr 15.303163214508047 11.17965139688157 14.784108112283405
Zr 14.031763249531636 13.645563728983237 15.010166046528761
Zr 11.192478269253574 13.30982697256597 15.682503601604113
Zr 12.469157422258442 10.7983233830198 15.51142226334679
Zr 13.857220051724317 8.819554554765455 13.685838273042659
Zr 10.927711078347654 8.960741900326557 13.680024327212363
Zr 12.247201909666593 7.2100445561339335 11.276850778439554
Zr 9.727945499552476 11.51345503133911 14.054759733203992
Zr 15.973261469668667 10.248046548691349 12.269194326641362
Zr 9.61572719274274 7.514044466619649 11.694308290985333
Zr 15.78739667667302 13.066216266286412 12.355816553957208
Zr 11.590499812527202 15.109113168697373 13.587515233856292
Zr 8.904827732783115 14.274199918570387 14.163089211114498
Zr 14.493617074964012 8.630467297810796 10.802906435001136
Zr 13.093993267296648 11.867528939948354 12.7880143765904
Zr 14.225149077079836 15.422224495777941 12.693591282885027
Zr 11.48177367394911 10.099831685490487 10.768397378489865
Zr 9.212255519413247 15.739378506775656 11.624999730035425
Zr 14.801313995564055 11.377114865231809 9.857051005460486
Zr 13.109633798127753 9.136755064836104 8.449594236273718
Zr 10.518121429564966 13.093751039274716 11.4381396991976
Zr 8.566813046762935 10.070075602366158 11.820223705731811
Zr 9.777212658425917 8.161185537300161 9.159069387967243
Zr 12.003919984547524 16.34910958377542 11.058410622238034
Zr 13.39888943019407 13.932200056718775 10.393240131611439
Zr 7.659140710786139 12.90378413596209 12.005373784980632
Zr 12.221426601358274 12.09705420331706 8.477783741632736
Zr 10.682915961079933 9.953793152371011 7.4773008326380985
Zr 9.130591596848825 11.516897745499485 9.25757413624201
Zr 8.147709030837914 14.14014029315804 9.555523053842697
Zr 10.765351231536632 14.764415815414019 8.989940853222013
