39
Energy = -287.17088696 eV
Zr 15.54403488321917 10.79292924205107 12.087345020117713
Zr 15.736995766231951 13.602872750669688 10.837585731932636
Zr 14.888192308049648 8.272300685460765 13.48988771493714
Zr 14.982462645316485 13.044062338958794 13.685849412589638
Zr 14.772457004400826 11.02853479839794 9.112258079500787
Zr 14.40339412977901 8.39452382195935 10.573467997870441
Zr 14.246819382909068 10.796996936301987 15.161633794155106
Zr 14.324978169886403 13.805295021378445 8.274857128525
Zr 13.673566811091813 15.304398199734077 13.00786029836746
Zr 13.754214879354727 15.811413367675673 10.18904118311674
Zr 13.000696118714306 12.921477213587954 10.803111738820812
Zr 12.246501917336323 7.086805275292891 12.688828936646033
Zr 12.638934510389008 10.049460233264615 12.780968617667407
Zr 12.681578940974417 8.349567936838492 15.292321095750621
Zr 12.716441853558372 8.95045196131317 7.672151869766802
Zr 11.683152306891321 12.851371350351208 13.371280878346818
Zr 12.285294088905728 12.044645549476312 7.510692796233409
Zr 11.520956552185103 14.87506735695426 8.486371931065964
Zr 12.154802568053206 6.870281612311941 9.795229134406455
Zr 12.86878948215541 13.680633425642723 15.747411467452386
Zr 9.81630133883978 10.726192855044136 12.30579724663622
Zr 11.033070698426476 15.517882219272781 11.313266144248539
Zr 11.59237804032706 9.840557064320556 9.95006635914496
Zr 9.560886349015178 13.321693416827994 7.202389042913126
Zr 9.79818914789447 10.42418517930601 7.370177825586292
Zr 11.214685294703902 10.832411038777412 15.733129871249822
Zr 9.616171615495443 7.5851054437245615 11.389174198325533
Zr 10.095129529184867 12.515849930266997 10.064144628699834
Zr 9.990289832507964 7.787383086784464 8.42818413045478
Zr 9.909577812853898 8.49983859490058 14.299534164907866
Zr 11.023172231320688 15.606622898083604 14.210018369804432
Zr 9.906817490725713 13.509870484627207 15.650026888304643
Zr 8.816889026743329 14.012531055787953 12.81675842016767
Zr 8.022055916049224 9.556659675653302 9.737932526168892
Zr 8.472990201034499 14.687974075856472 9.655601268371361
Zr 8.364942096123965 11.388904308156235 14.514803443815586
Zr 7.497328253452279 12.041826216715936 8.550778169254261
Zr 7.426422429343849 9.199139404429449 12.600153043400395
Zr 7.192552163232201 11.996983909637041 11.474875344834047
