33
Energy = -240.64583273 eV
Zr 15.227009510116655 12.629963864112451 15.181719045585636
Zr 15.383670092416626 13.707625447775158 12.417367536094423
Zr 12.940800207315213 14.066672245797735 14.40076068197847
Zr 13.125097998758914 15.490033794334696 11.848103564482244
Zr 16.196538066242553 10.655615774411928 13.032707409719265
Zr 15.113449764245372 9.940139900193925 15.834881694979373
Zr 14.143101503487072 14.076543936986926 9.410750602410511
Zr 12.590205248530946 11.589448375205686 16.34420314806214
Zr 15.732088742152126 11.702705402116683 10.360493175797135
Zr 12.914125121929178 12.46936429005013 11.249931102219358
Zr 10.425977451556703 14.786126798086142 12.835513908582374
Zr 13.349149197547435 10.755842500182437 13.622103411858374
Zr 10.33754928360915 13.13594682320077 15.344007683579244
Zr 14.667840170511088 8.08388457609929 13.707127257317394
Zr 11.069129665067475 15.01618816464872 9.940164951677946
Zr 12.538409537739486 8.653237895867942 15.638764026666736
Zr 8.173106880332915 14.144023478270801 10.913680074424434
Zr 14.286699330685252 9.163611427795724 11.068913305722381
Zr 10.753700099007135 11.806791621081954 12.718124737574112
Zr 9.088455346415547 14.357960824919516 8.042496877262536
Zr 13.603394865621313 11.06398720100107 8.598845638056174
Zr 11.756777875863513 13.109784690109938 7.5230992169165
Zr 10.109530343873905 10.167161087403153 15.09183991038384
Zr 9.97777921578871 12.02151966415262 9.743470965662732
Zr 11.423151445842635 9.559342227796 10.404552003899346
Zr 11.79940710510356 8.193802948089113 12.884549250663657
Zr 8.198000402458886 12.309340444338861 13.568641885476383
Zr 7.238268164438341 11.217073054233612 11.16629205781643
Zr 7.13115615184718 12.35125247919491 8.711710844048946
Zr 9.004652904529644 9.441569598690219 12.271053486694719
Zr 11.125007844554545 10.047423488207835 7.565707600404433
Zr 9.15117207896119 11.770422294088647 6.804389582527647
Zr 8.490081574573253 9.634991624322288 8.891442003248327
