32
Energy = -232.71463329 eV
Zr 17.297866340869206 17.100744077311575 11.474542848335828
Zr 14.38138561706293 17.729617567729537 11.686494454154385
Zr 12.867740585358474 16.4988541355008 17.268875585235765
Zr 12.885840458463049 13.355169958160502 13.49284904435119
Zr 15.650734417636949 16.58842718954764 9.19796110180148
Zr 13.524566619028537 13.862668314094158 18.919903366823885
Zr 13.047838750029102 15.829891939329054 9.566687896548267
Zr 12.371317455123071 13.251469987544956 10.678349900515533
Zr 15.079874142502948 13.527400753955627 9.096320490852875
Zr 10.760747101886285 15.810839440231732 15.202829277679008
Zr 11.894656831258406 10.819551668399722 12.7065907411264
Zr 11.920520773073758 15.79182630326009 12.152106319070603
Zr 13.594183915933732 16.475741304617884 14.460131742467244
Zr 11.197806276675536 10.97347080895702 15.528636115845043
Zr 14.666048124501351 11.62420354193363 11.847631449600069
Zr 15.477776123593864 13.905204669375461 14.166955152315944
Zr 17.78567082154615 14.415339605191896 15.707227897734436
Zr 18.288362376970948 14.640217735331087 12.85109537054213
Zr 15.048062720441461 14.90772832855045 11.610982576359303
Zr 11.033085887089692 12.170482591396352 18.33017240078631
Zr 15.701858989615225 12.590033419220099 16.90067457258021
Zr 17.29015589737918 11.902512273805051 14.045501328435316
Zr 16.498164854322038 16.801038367498837 14.173061181647864
Zr 10.735821600193455 15.008926641341354 18.1329175028586
Zr 14.19135899187181 10.860416709901564 14.814613932014593
Zr 17.71305291086576 14.76501421268749 9.875441886736134
Zr 12.710617349564245 13.628366831128611 16.22991502447167
Zr 15.419353733091844 15.522369378379716 16.984134113105622
Zr 17.166965347039806 12.462363170275568 11.189391776809659
Zr 9.528845468153 13.301642722207184 16.19608625724618
Zr 13.433000860936371 11.021802812536725 17.61067823377575
Zr 10.138819705204662 13.147211448985763 13.467097809598954
