36
Energy = -263.46248534 eV
Zr 9.83811616807635 12.16693129461174 16.500960430147057
Zr 8.742732623167987 14.270303492857979 14.83661249782001
Zr 13.430858613745551 12.979051918484885 12.094049784148076
Zr 8.099777898366955 10.312539179433225 10.836870272075076
Zr 11.422092498757436 16.527636434263982 11.353663378369097
Zr 12.852833058826333 11.2353516709379 9.623648548340292
Zr 11.670357635166896 11.599924388911587 14.158863566049604
Zr 10.254572487111735 11.545778602361146 8.201438101675091
Zr 9.28151766776792 14.485807253421417 9.990797859343061
Zr 14.934616071575864 8.258635256987322 12.57534608237715
Zr 15.897492887038746 13.785075541717298 12.566166684242194
Zr 15.11118759130649 13.253191832931636 9.443239281817494
Zr 14.827532195040327 10.896263863117925 14.12065352712179
Zr 7.686080600013328 13.298983176217412 12.08004946900389
Zr 15.657309010878551 10.754666237632128 11.017635872092459
Zr 10.704473231173626 14.052857770505183 12.660299481857821
Zr 15.114742052871788 10.575450256396833 7.991823188728712
Zr 14.159827385591813 15.599824357153173 10.809460847537183
Zr 9.966202773818495 8.764624937086397 12.87767332658818
Zr 8.596348905571421 16.05252041732729 12.355452591157468
Zr 12.70628021272564 9.940133334015508 12.077354490716282
Zr 13.05251729123186 12.474417165276499 7.07210011212747
Zr 8.474980716293231 11.236946940022468 13.898318170633523
Zr 11.933054866546474 14.070509323193864 9.362077345632398
Zr 10.736857961820263 8.85677785816895 9.784554840061476
Zr 12.257331141332648 7.159772963203742 11.944624470600395
Zr 12.7005414877817 11.294200708193307 16.634537897233
Zr 12.400528277715253 9.59417099616383 7.320773417422382
Zr 13.934138271653817 8.420229432076876 9.718651271878286
Zr 12.765480710278977 8.599191383665879 14.671875270290537
Zr 14.378658510304547 13.431158934242275 15.221293569136316
Zr 11.72046327004782 14.322388633482506 15.867154619388124
Zr 10.222654338776161 9.551891518172294 15.7012860885143
Zr 10.659183939228448 16.536035178808447 14.25527295570092
Zr 10.29757695493962 11.691592628812694 11.206195245734701
Zr 13.44465591953944 15.727853139814753 13.65232747727628
