32
Energy = -231.30072368 eV
Zr 8.947086324377807 17.92343332885172 14.933356991569214
Zr 15.708216811547073 16.95177488875976 12.300635555779213
Zr 18.50084254177024 13.658469313562698 17.486202712104834
Zr 15.900011800983172 17.469323408428732 17.84270143230748
Zr 12.685053131203839 12.439908292395737 10.974115732972363
Zr 16.202363698353846 18.2130526000177 15.008771351562881
Zr 13.484384169566823 15.895401336469986 18.074604999998996
Zr 11.355866403374788 19.37452441160275 15.108458405359945
Zr 13.632926700055652 18.37491612571662 16.433647051299076
Zr 15.61925860966585 15.036336925322736 15.73527278104422
Zr 13.690945985328039 19.01547186245124 13.375069807641898
Zr 11.96691670784174 13.945732132384869 16.261668050182394
Zr 16.35828870769294 12.123272573538197 16.78405969246732
Zr 15.497771168215124 12.021348135229076 11.084277779094489
Zr 13.750086418585772 10.644064094952542 12.90374908675762
Zr 11.483986792433875 12.478912145165777 13.64265212147897
Zr 11.459570725498173 14.873732625048167 11.657313988484702
Zr 14.39050466807677 14.804743544313075 10.567711662496931
Zr 13.072884885437704 17.265653968423646 11.207250291820339
Zr 17.99463926133312 16.374672979106617 13.770701513316528
Zr 16.440793176750844 11.619856569761762 13.848380204837182
Zr 13.756069071594546 11.570554813776178 15.583482662442613
Zr 18.367839220143132 13.76811935983239 14.740851228143615
Zr 10.977907268962284 16.776345414795685 16.461515162270906
Zr 14.241035760695432 13.614065598989558 13.313934910336958
Zr 10.011071184792021 15.12568319833146 14.224325995662937
Zr 13.987386153240045 13.122387900717817 18.019761616266276
Zr 16.208404633337402 14.742625936210795 18.68972551758017
Zr 10.793682813909985 17.653359186124547 12.823293734517973
Zr 13.026763357401657 16.248501352338764 14.23195856687256
Zr 17.06170857477358 14.150539686592822 12.13287787169107
Zr 18.202122499483387 16.348191111845434 16.55752247054005
