35
Energy = -255.85399124 eV
Zr 14.158804488286693 12.871327392708535 8.342969061079472
Zr 16.340192763147307 12.800622038598663 10.479290951236354
Zr 14.913087335417016 10.324244302892847 9.104396033984672
Zr 13.869249117771082 14.981787494898555 10.175302539534114
Zr 15.339162925348106 14.713887021472145 12.88338958965531
Zr 13.16682929469367 16.78286685654409 12.369369644838754
Zr 11.423936388558838 12.945007551190342 10.481956488413795
Zr 11.947956941474384 10.893050141791164 8.460992621620674
Zr 15.972560777772243 9.916054257757468 11.642998186566958
Zr 13.870099279708965 11.980867254580907 11.508623888376189
Zr 10.991416703433377 15.970414868666673 10.818886936235957
Zr 16.259666557170256 12.000006183629845 13.392870721311409
Zr 13.534890679929813 15.837850172792624 14.970679224140163
Zr 11.564582878650505 14.135683469949528 8.118035707976722
Zr 13.205437989213642 8.934405914263504 11.30147696076516
Zr 12.125169045726777 14.02353734216479 13.071164985996427
Zr 14.25267209357377 12.942571400817938 15.160398532888273
Zr 9.097010968534885 14.256848739451385 12.004175896357415
Zr 11.651677096441844 14.183933489062483 16.140837490488227
Zr 14.021003734734279 10.122673865638518 14.09480793158757
Zr 11.605278347909284 7.828656258832292 8.937645546061859
Zr 8.918242559744963 12.14392984233046 9.312978033139455
Zr 10.999954668484222 11.319213052352833 13.013835115090453
Zr 10.614379850928957 16.155491970539014 14.01733485941429
Zr 10.291749508341322 9.739964780534882 10.686833884109689
Zr 9.28836804280728 9.416546469115419 7.9348491585410095
Zr 10.980056045712688 6.954340278045915 11.651959947015262
Zr 11.712920811577023 11.328064267052431 15.775147095233033
Zr 7.981632474866892 11.545682887381979 12.296358101704797
Zr 9.334762863604476 13.220941351006577 14.738139527343888
Zr 11.286750397274151 8.565032768684226 14.025242102738245
Zr 8.811151921243923 7.278826159567959 9.853286986964694
Zr 7.363995473032634 9.765143426725002 10.124397829626473
Zr 9.022615100623117 10.280965670683413 14.86266669863102
Zr 8.49377950039885 8.438892146589541 12.656908049141359
