37
Energy = -271.5633064 eV
Zr 10.926651997590128 13.90928167829432 7.53624897162518
Zr 11.515794446521717 16.073306698015735 9.220013535591876
Zr 13.85790447183728 14.574204469139698 8.228731493926098
Zr 9.299768483303259 14.220032864841391 10.002956240976388
Zr 12.733216880165985 11.84498078630426 7.518867221048948
Zr 10.187476483813294 11.31653667027023 8.964679158915345
Zr 10.732898116325753 16.170570493173564 11.940544056599268
Zr 13.775749429088695 16.010793034041814 11.039078792564512
Zr 12.13621794942404 13.201306962516098 10.187016423665003
Zr 8.48739695582049 14.408198318721547 12.756899833749218
Zr 16.065011646338682 14.587843577032254 10.022067532584247
Zr 8.777722560436152 11.704357186371174 11.560984714399723
Zr 15.157444865634286 11.914087489233513 9.159949452818847
Zr 12.914377221575055 9.870266484436268 9.541897328197727
Zr 10.247077507722606 15.226463689395484 15.024852755188265
Zr 8.961630841025771 12.367717676220412 14.719814216785721
Zr 10.378438785252133 8.865627511203263 10.959968036324664
Zr 13.319717629663463 15.753948231067621 13.896960132337272
Zr 14.272961678268068 13.03480974545547 12.188582377297237
Zr 11.86678762629995 10.77387332591714 12.45385149672149
Zr 16.28772454158639 14.90273621365789 12.917111509214667
Zr 17.114909076756064 12.47079228116407 11.356672171739572
Zr 9.081846617140567 9.68993843767465 13.494415741080186
Zr 12.751607651204461 15.27915179020435 16.52132020684119
Zr 15.254324018221835 10.141416219748061 11.62637816496774
Zr 13.218144842075928 8.158100531067365 11.823453649178022
Zr 11.268180089118145 13.50029823263132 13.104272368638652
Zr 15.540409221110982 14.337650538249058 15.760421560861301
Zr 13.266504718138803 12.579588090978802 15.106441731484933
Zr 16.43203207300386 11.962975713399748 14.033170497511286
Zr 10.931191208748382 10.360236161377 15.554919188449434
Zr 13.996710836575755 9.717122737797235 14.459057573366831
Zr 11.365681021815925 8.063040478678257 13.74695290028341
Zr 13.83825332406493 13.233809662000786 18.025128268588727
Zr 10.952149137438777 12.944676666696878 17.044221418267487
Zr 15.575249568164905 11.43905225027258 16.660926215481055
Zr 13.019333665148935 10.54068276669557 17.362158241484032
