31
Energy = -226.30333494 eV
Zr 14.135416812188971 10.078462236360636 13.552816608451359
Zr 14.501656758575491 8.207212992893606 11.225837531457179
Zr 12.036832038885883 7.3586665374485705 12.990478825114295
Zr 11.675655321199946 9.858735720568598 14.786546708081902
Zr 14.920398107509708 12.803029700837087 12.885958231484254
Zr 12.802845219076705 12.669881471445548 15.062172304321924
Zr 14.840543784201246 11.108594473318337 10.638014191305958
Zr 12.239576267659798 7.032106262752501 9.949738125370908
Zr 11.879431933982353 9.512119863921711 11.497213702642453
Zr 13.500528352493907 9.3510892718252 8.596543606254118
Zr 9.282416309156108 8.907153899669792 13.535326411810546
Zr 11.90365856769497 12.235411748407039 12.487044953988244
Zr 13.104139711010363 14.925077975236313 13.021603608914429
Zr 9.582400809714558 11.818120358597568 14.585083442192541
Zr 9.523087739809782 7.495256105397856 10.933024255284252
Zr 10.588811008875055 14.500034680397082 14.039756372671619
Zr 7.171510485953141 11.231134623856859 13.178550192595534
Zr 14.06371120612415 12.20192096429566 8.001969278307412
Zr 11.573684929702472 11.889484600252734 9.541736378858031
Zr 9.285541967630923 10.89641034216054 11.012353861793814
Zr 7.051689945647562 8.9889089253583 11.596384094901095
Zr 13.778885381771751 14.024067128617384 10.276350884393693
Zr 10.556535993778796 8.815197928576575 8.294503148718091
Zr 8.495469714466497 13.672663179314318 12.283101607089177
Zr 7.832677993176472 9.141537774962712 8.917236816860093
Zr 11.017525122055718 14.897623771632555 10.928876103212026
Zr 11.791048871875521 11.035822797711697 6.735395709051532
Zr 6.772716532668593 11.69190321880229 10.19401042502617
Zr 11.548368748343107 13.947060632181117 7.91161533242453
Zr 8.85326137398693 13.77670359993027 9.43236085014806
Zr 9.02751752362701 11.551069427733534 7.80461424206761
