31
Energy = -224.98287732 eV
Zr 12.15254726383546 10.722458627157467 7.872700813326091
Zr 14.33706144421865 12.474403144358103 8.674649315694408
Zr 11.331928888774677 8.320204642769667 9.046511210490669
Zr 14.128050457872869 9.726892063458603 9.677448670222477
Zr 13.370820717460726 15.30246945901996 8.89291142980828
Zr 11.308370807901424 13.301756713005753 8.454530750062665
Zr 9.378600921055972 10.929663107885073 8.887076785860954
Zr 16.007016796762546 12.033912235046346 11.215116851495083
Zr 13.280183155869468 7.837532136861173 11.402471023498824
Zr 8.680680807816701 8.641855049958309 10.469562793708782
Zr 13.030636025320996 13.24342970663491 11.32489671210209
Zr 10.679367814245534 7.242664589091252 11.783780588947195
Zr 15.65680607849704 14.647367708583523 10.159035644253006
Zr 11.048306627081223 15.582736843509151 10.29803414008287
Zr 11.222078907196007 10.313090153331016 11.073228123595774
Zr 13.862555633670514 10.461156023295382 12.728014511688722
Zr 11.986502211651842 8.82667261967403 13.97397640713951
Zr 13.477878689309042 16.108033831042984 11.87452065008806
Zr 15.637364683934544 14.506954772858704 12.87317337098214
Zr 9.067297989041016 8.98285134336874 13.430870611533836
Zr 9.2589203644035 13.456384088357778 10.639651489587104
Zr 7.980482131834313 11.177361591660098 11.781007797544481
Zr 10.72419347733273 11.824685133186712 13.324136791506838
Zr 12.867305985368452 11.347194719703246 15.571371617583614
Zr 15.371230929464163 12.225411899741301 14.184038725154547
Zr 13.068029925394535 14.05705059981309 14.381569688241438
Zr 8.32767404173589 13.709000536360604 13.399646615274447
Zr 8.073825727536303 11.378776098798555 14.836561021815744
Zr 10.811574619102434 15.034705116861403 13.093447559294079
Zr 10.331858687800066 13.18254140433263 15.738350100231731
Zr 10.290334717670591 10.159311438986135 15.927322135381939
