37
Energy = -271.22064961 eV
Zr 9.020542332369615 12.947254472873096 15.413694289845726
Zr 12.973919348556098 9.846390462959437 16.026633763047062
Zr 11.941502757202523 10.908732687155918 10.628808297792261
Zr 10.029024141691393 12.488237719167891 8.95481842200483
Zr 16.715605499767506 10.362570947155207 9.7679003700827
Zr 10.231694393091765 10.49035146672569 16.42890462606981
Zr 14.635505805378495 15.101058764495201 9.878202232881911
Zr 12.00304568005276 13.992150838221237 10.84219687535284
Zr 8.291148180745797 15.136256549955206 13.549966093557202
Zr 11.599867106975402 10.989812528933212 13.741599477485599
Zr 13.544678968800476 13.302067036600867 13.212001747110868
Zr 10.119807695903946 16.33825150101014 11.698765121947211
Zr 10.227246977827175 8.90745411670907 11.918649968425779
Zr 17.77992570245176 10.707496006917266 12.392812003837665
Zr 14.71382643745089 12.112774970833737 15.861969941135165
Zr 13.16116954076646 16.40701641290335 12.496940393028126
Zr 8.441250345058858 11.00112165646073 11.00559159685564
Zr 12.454218096126825 14.190780136557567 8.015529938557075
Zr 13.140400419088039 8.67376425826937 12.735360189633745
Zr 12.279151065161678 16.72504303153826 9.605014886733867
Zr 10.776404776545764 8.326764527243405 14.653998545971525
Zr 14.77482324904761 11.05622342021026 11.964758900412972
Zr 14.379119748177903 12.131564632018668 9.149044667748196
Zr 16.053253708280618 8.426653805355148 11.895261850411378
Zr 11.192406639094845 15.121223274774929 14.365069724712031
Zr 16.673576420568036 12.912020754222256 14.000748913325081
Zr 9.995676275850295 12.938734559509374 12.59909366814269
Zr 14.085061848057515 9.120522837389492 9.825357405052994
Zr 15.789250529106177 15.290306767564767 12.554566120707632
Zr 14.36149033729574 14.986739430838618 15.154588620059554
Zr 8.112383058181294 14.151013287012981 10.684926445378885
Zr 7.125708870730532 12.597440569409597 13.049297016928422
Zr 16.82302977926645 13.098319121320536 10.941013282374774
Zr 12.016561782538076 12.900206574694284 16.196243997996376
Zr 9.983456353394336 15.332488281342965 8.886697411401089
Zr 8.489209076278348 10.220315367347098 14.028151944438294
Zr 15.908058105243056 9.913643435589758 14.481414626567982
