38
Energy = -276.58695694 eV
Zr 8.329398915959404 14.517778698920807 13.563452650850879
Zr 11.834554714457694 12.354674395334191 17.412397745036802
Zr 9.893702018030778 13.376566786108466 15.60068547619242
Zr 11.007553064140437 15.588188059571806 13.784449839481695
Zr 13.48625970415029 16.862633763899883 14.414196327227359
Zr 13.214460129875834 14.179689068391728 15.775896540855037
Zr 15.943859542327768 15.331302247507368 14.816941096608305
Zr 9.31232422047517 15.76397046924551 11.108205907249248
Zr 12.579704668569615 16.610658710828975 11.46731575125394
Zr 12.35733472390412 9.654184106924708 17.67181655949328
Zr 15.379585563667463 16.863138674128994 12.299205338546413
Zr 14.088655463032469 11.083341368893327 15.965898240550356
Zr 15.899402439373622 12.40508687959827 14.021121800459266
Zr 8.492294692234557 11.554533704596205 13.605838332827151
Zr 10.19775580190025 10.398115759919092 15.920910201797406
Zr 7.499087359144914 13.24183627730125 11.294529029852592
Zr 10.474011038111206 13.142249621353526 11.68389987458945
Zr 12.002588103865062 11.838924693864794 13.986024947953984
Zr 13.84734691182046 14.300175748824621 12.905166789331624
Zr 13.156188981131175 12.580637231442086 10.925684910727313
Zr 16.925819654793656 14.482419644425597 12.289349058609254
Zr 10.489399181673065 9.256185582812966 13.059532580436413
Zr 14.336759707629021 10.111856813240857 12.845118395536037
Zr 9.01591254330021 13.650820926396785 9.04969535808003
Zr 11.719457804555718 14.855512628130441 9.331311522337078
Zr 14.898258489854573 14.95345154265422 10.105309250368714
Zr 16.020051571781256 12.059184289447826 11.030795889475232
Zr 9.084710615421963 10.769647704273208 10.506297967129111
Zr 12.02436209532651 10.045687399180752 10.442384635807452
Zr 12.571249738918493 8.747357175775829 14.860787415441408
Zr 10.164357875847713 7.767864962325871 10.663076758332076
Zr 11.262584750737245 12.085271269190201 8.376452116945547
Zr 14.304403825120216 11.99608205991618 8.504434586313469
Zr 14.816270323672754 9.251290007281634 9.931990684349437
Zr 12.972578055030528 7.604236634640816 11.824237499312103
Zr 13.029615963161463 9.745609578517444 7.5063665192903795
Zr 10.283740055062381 9.187090849008642 8.163358429533579
Zr 12.53431317015042 7.430694142872294 8.990692054177815
