33
Energy = -236.7256493 eV
Zr 10.116559707914996 10.607687769499703 7.891593431599891
Zr 7.294750863333249 11.734144276254442 7.873174089871671
Zr 9.371440719197619 13.4179474082104 7.567759018970511
Zr 12.999195200719116 9.95893989314099 8.487369320480582
Zr 12.235928981693156 12.828329998385957 7.704882493226943
Zr 15.798725454252377 9.789273720176112 9.302675175787806
Zr 14.951342977919005 12.193321696937781 8.216367082387643
Zr 10.856348579692254 9.141637470702568 10.546941783741582
Zr 8.20927053727755 10.477049553874817 10.205414661673084
Zr 13.843758273475842 8.483402027846974 11.029466704138853
Zr 8.147906606041733 13.445240703905698 10.263003306676078
Zr 10.981406856786164 12.212544439862025 10.278120395962967
Zr 10.544711153189809 15.104750811274036 9.625920186053342
Zr 14.031231235899236 11.639731150624174 10.955944377973918
Zr 13.554513126892655 14.459660194158674 9.95844450756885
Zr 9.115434143943506 8.894834702521262 12.95392853306254
Zr 16.21113894938309 9.977081579683718 12.035892460825833
Zr 14.303154545378167 9.187759702057093 13.970283640974435
Zr 12.19288266970497 13.540129203807371 12.654330374507264
Zr 12.067234137364116 16.40844879998999 11.542904866356334
Zr 11.82143974181781 7.599599473849309 13.084670379231495
Zr 11.901117035994346 10.603152637364245 13.057960574972816
Zr 9.833024168548963 10.523139232593877 15.344962363941674
Zr 9.535806824822885 14.997596933827973 12.541545594711643
Zr 9.084552729161235 11.903177671388542 12.730182944976528
Zr 9.72327671987609 7.466531228847336 15.272377897343938
Zr 13.353324445422405 14.176084739125233 15.43619722589289
Zr 14.38171883497554 15.300466516627518 12.942405108124396
Zr 14.82158540494575 12.23832079913103 13.813161191345383
Zr 12.601172911569053 11.528054246797748 15.822125640022085
Zr 12.081729686235022 8.660389825465897 15.800971251133907
Zr 11.733621511998743 16.08509270831447 14.265462064051745
Zr 10.37807522797194 13.539585310039692 15.080530255355487
