36
Energy = -263.85765251 eV
Zr 15.327422292558422 9.761805579755618 14.249032618777528
Zr 16.148853524251614 10.016833017986363 11.589001403847153
Zr 15.935475666893861 12.474702660416206 13.34024339494385
Zr 13.882332265748259 8.262920953070868 12.052694686115766
Zr 12.788144245160318 8.916857421273885 15.002557733088072
Zr 15.828066946025027 12.417644768957363 10.211320332777403
Zr 13.586366285901807 11.902321589495688 15.403641423107945
Zr 15.861515780340495 14.878076379763616 11.991174105906296
Zr 13.65005556984788 14.609222813001175 13.959795796958495
Zr 13.478437636361221 11.231890806009876 12.321388560209416
Zr 14.001934782905826 10.044271354900847 9.459696327844336
Zr 11.574931811158521 7.018538869545196 13.207249092522513
Zr 11.020527868939267 10.871472521251945 16.115219833584064
Zr 12.997723077620565 14.102865729483122 10.917046970859541
Zr 15.470103562474042 15.11628020895486 9.297368755158814
Zr 9.578235467447039 8.396602890032797 15.030648589859602
Zr 10.933911812600586 13.842707413168782 15.686901941373694
Zr 13.816938847657774 16.788321115265457 11.332434814037182
Zr 10.5822855511488 9.891454662900715 12.944455072318673
Zr 11.193783502829037 15.814377387492351 13.044219677646828
Zr 9.15420889345379 7.40432506784014 12.145690232467556
Zr 13.14007618389561 15.87573445969194 8.393756277205684
Zr 8.635624391571458 11.587562067796528 14.922399796265246
Zr 13.595126063311964 12.785793942137635 8.214791409612745
Zr 11.140746051869936 16.472620757231628 10.155097304815376
Zr 11.273245087954313 11.609088740131112 10.397592361218127
Zr 11.199765365345145 12.764464547049784 13.304819624643493
Zr 11.48169786620739 8.394389840376663 10.317649454336888
Zr 8.692753642034349 14.32606403458348 13.703090520398675
Zr 7.570607971463365 9.508226718666009 13.043615969690512
Zr 10.92207342470153 13.963584922764614 8.334669607536572
Zr 11.017420159988742 10.699851277247694 7.982968757161918
Zr 8.870919990961196 9.604076105322507 10.220525126377714
Zr 8.028405924443028 12.061413451970012 11.950019813764305
Zr 9.320898790863595 14.554918103120329 10.881815561991795
Zr 8.653414181199587 12.292507965591195 9.118335827370078
