34
Energy = -246.423285 eV
Zr 14.87642663084216 12.686981600445927 6.844709707325382
Zr 12.224300171878735 11.163417137615218 7.503938820383915
Zr 12.673636340667905 14.03733897553392 7.58550612740425
Zr 11.924161862017943 15.461871572833322 9.951034762512617
Zr 10.086450383435784 13.248494455522415 8.511759021297244
Zr 14.801571004372008 11.31092172804191 9.098584921150717
Zr 9.266418242886367 14.471947668178775 11.285880143016612
Zr 9.66596075292344 10.16538919200835 8.982794346536952
Zr 14.825001372611993 14.303854470692789 9.522196188224711
Zr 13.961224691460131 15.368098238469031 12.341372461053377
Zr 12.387444184576378 12.532457863309556 10.28620157467231
Zr 7.784747269294794 12.393009282996534 9.889765922004681
Zr 11.098256949060959 16.402071257333425 12.477835655738339
Zr 12.431147353728003 9.418017551058549 9.971243469022522
Zr 10.026530776064392 11.356242344058415 11.729948545115981
Zr 7.451989920294129 9.904046398853488 10.971077854224927
Zr 15.00824917635819 12.544210706346067 11.99077381963266
Zr 7.547432434247661 12.403248239346839 12.8359501620965
Zr 9.972006892362685 8.359699392968398 11.390385772787736
Zr 11.746800780262184 13.44972042305638 13.080380342378696
Zr 15.123881395193967 9.406479104772748 11.622606831323791
Zr 9.513235434026967 14.786522941219975 14.377097365283461
Zr 12.717851251157802 10.604107594093174 12.84846668441417
Zr 12.398792762364387 15.87422843710324 14.830091552611675
Zr 8.25629256833281 9.627748922574453 13.567604624485723
Zr 12.84269791763504 7.538695505765667 12.310942268526597
Zr 14.271816329840313 13.551928496617293 14.748078762679558
Zr 9.745782415323475 11.723131709089126 14.92858276563342
Zr 10.84782693814817 8.84653906338648 14.37077836491766
Zr 15.446640271731034 10.665642561110097 14.34507158509212
Zr 11.577040749856344 13.625881238485103 16.156157373866986
Zr 15.738264733236932 7.6484772307402125 13.503992488367818
Zr 12.689773774136604 11.056306840924675 15.796215718713524
Zr 13.619903516258733 8.48414186665967 14.944020718759832
