39
Energy = -286.10103874 eV
Zr 13.443889948001358 16.71661160851334 9.486151018845103
Zr 17.605909557076345 14.69986123635779 11.466216960775377
Zr 15.472280441887188 14.716953567463259 9.441320088235255
Zr 15.232116050378918 16.45312885081271 11.970915782434393
Zr 16.932814662345727 12.153972864279751 10.093630746428289
Zr 12.128180043375767 14.034485723508812 8.53874884630332
Zr 12.45389272586722 17.565668543349513 12.00259731104239
Zr 10.605740883714274 16.07692183238998 10.014309150104287
Zr 17.79838563348179 12.215615381439493 12.853541498605562
Zr 16.54355122024637 14.574034650358113 14.321580119290074
Zr 12.76215506507853 14.695706338376542 11.597771608625209
Zr 15.138305211961368 13.233987925144271 12.151004563795272
Zr 14.024112583497343 12.053811248084827 9.546382189142413
Zr 13.567078923154632 9.265840133366368 9.580642974067992
Zr 9.132899497729966 13.394831186178951 8.842574617338014
Zr 13.220262192244395 15.615790435730016 14.398176800757405
Zr 15.363379986200801 10.276285468481557 12.015249270366088
Zr 11.098182065977575 11.076529706833433 8.778339832192932
Zr 10.2596431646632 15.981688553750423 12.88477462988134
Zr 14.811082915100194 13.911268348187356 16.4831378723433
Zr 12.460290711688588 10.832514608374623 11.795450727828376
Zr 10.568512947224386 13.147067786942639 11.10921671518704
Zr 13.335146124442618 7.939721703954179 11.968930781212862
Zr 16.079829379834433 11.646607895651666 15.070407155498435
Zr 11.926302234531759 13.623973248937455 16.709472202257686
Zr 10.473500201904114 13.675624113060364 14.211344463255625
Zr 13.218625186839065 12.50324421751515 14.307306785646004
Zr 8.009077463434933 13.23289590390654 12.473050094549118
Zr 13.585044424592995 9.546541132882245 14.44515084863152
Zr 10.708630115525718 8.623787455123196 10.549394197994648
Zr 13.77275105291284 11.33496332456771 16.96784102501218
Zr 9.897713931009855 10.858464132316568 13.115493589655696
Zr 8.480406791234612 10.851178773139111 10.41758731433413
Zr 10.986102425425411 7.983812970642017 13.587754783135672
Zr 11.109842469578197 10.753622263155627 15.826262040429281
Zr 8.331443886172533 12.051838042464345 15.332369596596426
Zr 8.42446549425301 8.378888949625292 12.29142737142185
Zr 6.939684832915039 10.623150759219977 13.121973763445721
Zr 8.591244171856436 9.149444333478348 15.084507704002178
