38
Energy = -278.59558338 eV
Zr 12.935562226151992 17.42949658978292 12.336765119574848
Zr 10.04431920650552 17.97369170006774 12.618565123288821
Zr 11.308183468972192 16.442730124669787 14.878628858016807
Zr 13.95009991783187 15.179080709383307 13.96305739601797
Zr 11.07783444310846 17.26175996687493 10.064568318604078
Zr 8.38959545749968 15.902975998488357 13.71242027418895
Zr 14.912420180779694 12.972400365833696 15.988487988518482
Zr 13.247992363575397 15.576086079669718 9.821760571705516
Zr 10.95169441045987 15.116921019726927 12.388921225257135
Zr 8.560984119417803 16.12755207062434 10.835810017609125
Zr 12.213197840374082 13.285287645281139 14.906846344062549
Zr 16.799859598915237 14.031128586773214 14.291951364837782
Zr 15.57060414833802 14.926340239489088 11.648746889867873
Zr 14.663001636362049 12.308545527549322 13.049183100740057
Zr 12.706332441597828 13.238787294611262 11.25335802036506
Zr 15.387628858567101 12.57399420199694 9.83249715083744
Zr 16.61906985328493 10.936036109678048 14.53958429133132
Zr 9.588525346234496 13.722013771894154 15.08166514394359
Zr 17.445073902728062 12.635239526195381 11.991778744008156
Zr 7.891566188904095 11.641541808935052 14.370498301379046
Zr 10.539167797513523 14.37065809982647 9.403745460993388
Zr 8.612239162692623 13.377996368262714 11.958238613029339
Zr 13.54273399496817 10.503274064481603 15.433313240583358
Zr 10.422926006867756 10.785592151112558 15.94134389497338
Zr 10.715581056790972 11.336625432694083 13.086373914588513
Zr 16.55546368569206 9.981265334454958 11.565682624136512
Zr 12.882356306670104 11.778349748413348 8.6283087301116
Zr 13.161767512414551 10.22925193201837 11.357281068993302
Zr 8.06081346935195 10.5592812195763 11.723417382669016
Zr 10.500541873470066 11.254815171487305 10.026196773479187
Zr 14.776923123926563 8.602654256641621 13.52885566046991
Zr 15.053460234735663 9.887943540977648 8.818390582372123
Zr 8.94174385791944 9.020063890226853 14.050434211951497
Zr 11.760439278304668 8.533343942838236 14.245303329635783
Zr 10.218405530195257 8.658733698444465 11.390885643462873
Zr 14.924162293740647 7.845987398526726 10.6393766268346
Zr 12.365819100625908 8.632595556729822 9.158204111827734
Zr 12.630857011863078 7.163442922728367 11.852985907649119
