35
Energy = -255.61743227 eV
Zr 16.303238869256518 10.755019298772964 11.045686494323267
Zr 16.363870824486078 12.489436810031192 13.293826689178879
Zr 14.672845038689093 9.71661022712156 8.782131018596127
Zr 15.738808589347919 12.226840918538986 8.53949535582799
Zr 15.984242059387173 13.926697027806437 10.806324853595312
Zr 14.282157191177859 14.367447279457759 13.33298039960513
Zr 14.000322750717535 8.704030582243272 11.325783334609877
Zr 12.283407863010538 14.205526861255128 15.83592342811922
Zr 13.161990989846954 15.575117871836062 10.875315537976022
Zr 14.455939977635403 10.368549738555792 13.626411673925595
Zr 14.022952003507013 14.330735633274756 8.571249692805695
Zr 11.90016041928834 15.870573929094553 13.413547767571583
Zr 11.922745264326966 9.211597807958533 8.994080692054306
Zr 14.63862053011143 12.513480887797806 15.528376779713911
Zr 12.856678129679986 11.80627945202659 7.722966349526566
Zr 13.574440624660244 12.03173541522654 10.760798427538946
Zr 12.33883959911158 8.33834155859567 13.984576629993134
Zr 12.477763888239329 10.68159681518794 16.00984015770526
Zr 11.81752822367162 12.41449199197669 13.759692864316147
Zr 9.716894107545816 7.506452514862375 13.010359609331712
Zr 10.909059981666543 10.138635295190088 11.93538898629926
Zr 11.660354258292182 7.244951291002891 11.119803986002848
Zr 9.15268653890062 8.628623865388146 10.193048656196371
Zr 11.25049639753123 14.4809446167824 8.688661935751732
Zr 9.576984720209584 14.682462972603934 14.23002329337015
Zr 10.741668635818483 13.37723750440094 11.457939841040563
Zr 10.000899030521902 11.289681157623889 8.769603464504776
Zr 9.98732215874673 12.400392910637795 16.14755729728637
Zr 9.842823273313648 9.690988801231873 14.994901754417587
Zr 7.8870533061883865 9.48136398695855 12.774908531656866
Zr 9.991273081869961 15.977933241895808 11.06492750814992
Zr 8.633758145172216 13.830962902992612 9.376695251391094
Zr 8.310381521981633 12.021499158191348 13.79514597849216
Zr 7.916842655247563 11.399077421059006 10.717012066666921
Zr 7.746109830092056 14.170612078043762 11.988523984179794
