39
Energy = -286.22499925 eV
Zr 13.12602151768386 8.70630405113359 15.686558508695803
Zr 12.053544047210272 8.490379742291726 12.87042578041787
Zr 14.89293164813942 8.340611382930529 13.710837758272186
Zr 9.517349525507191 10.08830339106743 12.119308940676053
Zr 12.174468823802863 11.221079264525757 10.872667467283225
Zr 14.361978463399716 9.516296416764089 11.084081523760721
Zr 16.819400187228325 10.353682875531398 13.274714314478707
Zr 15.43001935970919 10.677027454060514 15.77325313168366
Zr 9.79867009709031 12.562491668542332 10.18809111219703
Zr 15.112517236467166 12.60472267961274 11.784115283548429
Zr 10.523255190332689 9.832873605728853 15.069951361695445
Zr 7.633929005780339 12.456873136855174 12.058308585941848
Zr 10.426782302705194 12.675189721451897 13.306374833956252
Zr 14.602094610384103 11.784055622560958 8.94804175768603
Zr 13.255878095281494 10.996192779663458 13.719675472477839
Zr 16.930484601007645 10.515179883786779 10.310757428999624
Zr 8.056003824956035 11.078340926368545 14.474337371945882
Zr 18.20736382089678 12.482560592920358 12.000845731746972
Zr 12.241461462816286 13.649575560635682 8.52531227214589
Zr 7.977482970555622 13.940187361926688 14.564990023694643
Zr 12.303052826953664 14.245037417290407 11.375498653576493
Zr 12.723610037744962 11.381234213463088 16.80867727267233
Zr 17.13341828200342 13.210848113568517 9.516381346212125
Zr 9.926102153948841 12.593059712576004 16.26206620853255
Zr 16.822253344734634 13.103090286585573 14.449961325364816
Zr 14.899350801519274 14.840167862631725 9.409222314840267
Zr 13.155249980518626 14.100113454371101 14.371950156595139
Zr 10.093766126443596 15.402029629835306 9.59130154112597
Zr 12.603411855866742 16.52952346091758 9.381506089110818
Zr 8.896784849005481 15.144525738730781 12.145635652981507
Zr 11.974919115110122 14.072590022917657 17.31672034535922
Zr 16.856797824460546 15.014643185598251 11.93069759366331
Zr 11.195299650810554 16.969528059344572 11.977806523794815
Zr 10.548014083899977 15.546157356579062 14.885719613580177
Zr 14.844779039374899 13.599226106536307 16.76045749379161
Zr 14.364797112710397 16.61622442182272 11.795491587862616
Zr 13.067299988558124 17.248855208593568 14.063022073201461
Zr 15.605739317923508 15.783088620434512 14.661532120372351
Zr 13.320595975160318 16.213330272377956 16.497809855842835
