39
Energy = -281.69940963 eV
Zr 13.686218406563231 10.515624169594986 17.297232263024227
Zr 11.294674973416369 10.719369303830742 15.233014804511388
Zr 9.17863172521632 10.962588410277839 13.303969917904404
Zr 13.348343500113062 12.347072625839113 19.857699155560372
Zr 11.60303958110698 12.44272042233558 17.666803439906886
Zr 13.955237983958499 9.530896487564966 14.485988833182141
Zr 9.393922230703248 13.121356592586622 15.270039369604321
Zr 12.052464502032521 10.110644366801846 12.278204592079629
Zr 16.246775912104503 11.280135068909322 16.096581572398353
Zr 14.974825180347125 9.338306551477338 11.845790759805396
Zr 16.685160253362465 8.950288098493953 14.24801147765085
Zr 8.71995008774636 11.991639000524769 10.743172013419981
Zr 14.758000068742865 13.34288439373483 17.719496340679036
Zr 13.657991592858256 12.594831072516836 14.963786146186374
Zr 11.260031910985877 13.210738511002138 12.762778552666159
Zr 11.381020248851053 12.065255233882331 10.01713062090925
Zr 8.097921632385631 13.623433306005548 12.82525235486417
Zr 12.60355502897576 14.926269568691815 18.83920340099347
Zr 11.611035137499828 14.820191102107245 15.873134112094869
Zr 13.812620985100294 10.713533318319229 9.4397826673897
Zr 13.133020175846315 12.772450012074428 7.509871417581511
Zr 14.187206779895803 12.339379458188162 12.011764928988985
Zr 16.89102787140399 11.59027859540388 13.357762560807794
Zr 15.58297383256451 11.283711168742915 7.41452778172027
Zr 9.917619435761775 15.792763309360703 13.604915836451852
Zr 9.745135938659157 14.80118317581115 10.681068827269927
Zr 16.370226271365908 14.087930359436331 14.888690213221743
Zr 12.834456624857319 14.465600129347413 10.122773086491234
Zr 14.232096133898562 15.752442993847502 16.3047280361916
Zr 13.754880049876697 15.326616167283992 13.402478172204386
Zr 15.467673691908935 13.518934141540237 9.099433276695548
Zr 16.646374709482643 11.265633908427446 10.408042769459756
Zr 12.19866576420559 17.6392022961617 14.593159633182903
Zr 11.856103047532068 16.866715772853805 11.616024989741145
Zr 16.62801278329354 14.12879656224184 11.79621868039329
Zr 14.88841255118054 16.379282458374878 10.688441000107527
Zr 16.532770393106333 16.695295068532502 13.092755703313356
Zr 15.124786636445245 18.06225247429927 15.083750634682698
Zr 14.203817953392457 18.36682223346352 12.55351839553983
