39
Energy = -282.71216527 eV
Zr 15.668311338424013 14.692774245495919 16.984762745774407
Zr 14.167156401892068 14.286290766918949 19.209337462806484
Zr 15.116649003349528 11.843007028464436 17.546804427511276
Zr 16.815747253199 12.908599078907342 15.256148409822625
Zr 15.502713867273373 15.41402369085753 14.101511475307326
Zr 15.820425311240827 12.43297838796088 12.673419572906912
Zr 12.614807169275787 15.768895486909138 13.747954682085998
Zr 12.93631382762734 15.802667529087007 16.809522507701935
Zr 17.091587275483143 15.059657473583469 11.814049266387233
Zr 10.951599836564842 13.823677902707827 15.32238558539862
Zr 12.753063122612936 10.667245991622453 16.10273503218925
Zr 12.37276728111109 13.022212903669432 17.73537738320085
Zr 14.554808364155477 17.150752089508032 11.676594747749432
Zr 15.674262518124065 9.861938810613085 11.51776071749144
Zr 15.336402006085812 10.234203343822585 14.725198913739687
Zr 16.089990749125256 15.856384442796763 9.352201930867992
Zr 13.804673982050906 13.082535728019437 14.851574036487543
Zr 11.589190567491706 18.17916105134078 13.150723195158273
Zr 10.480933878165384 16.789364543471645 15.583687717808097
Zr 10.128444980886828 10.958921707930946 14.530873182447579
Zr 11.764061619553361 8.386864054296884 14.665393974251423
Zr 14.126729418458165 14.33623555501157 11.187437568419487
Zr 9.587627851455 15.952433901706732 13.015945640725155
Zr 13.407855890094314 16.384118690743335 8.903384991034208
Zr 14.512792469422171 7.871967796667956 13.006206660013701
Zr 16.574494737570358 12.956134044705017 9.846661177427732
Zr 12.98676652100718 10.549362530348425 12.848436125164701
Zr 11.263962108740484 13.062786752594397 12.265655838173318
Zr 11.523231298651774 16.06629406174848 10.941611339073082
Zr 14.52662317847296 13.80615587380665 8.086958641110549
Zr 8.56564665627399 13.414435157307238 13.711112466407915
Zr 8.503807634630826 11.370223057498027 11.927559941660569
Zr 13.758102573525235 11.562736017602312 9.89588694273414
Zr 10.312804806035814 9.269521207849246 12.055896022661127
Zr 12.065749513735899 7.131047778573487 12.340909794370118
Zr 11.77620646674331 13.708142614746961 9.229304030446439
Zr 13.138360149746914 8.749828425460995 10.391636425910562
Zr 10.604133394669336 11.155440529374452 9.862700433985957
Zr 9.033614099703989 13.89283543517144 10.647054197953135
