37
Energy = -271.20623258 eV
Zr 13.657506661598694 8.83297227238056 8.522324071029521
Zr 10.720551391572627 9.289926591380915 9.065783483158022
Zr 15.053556316794014 11.142800987043973 7.8920969938928875
Zr 12.094275271763374 7.133617695818985 10.302071503925978
Zr 12.19135160151207 11.111034872087629 6.882442012865319
Zr 14.82754623379985 7.4672780287726175 10.96160224478116
Zr 15.861722873568144 10.11588221658217 10.42119195757702
Zr 9.300135152942524 11.113032952329617 10.99244641784533
Zr 13.969063466029576 13.605654985504692 7.40200568892224
Zr 13.01122958486978 9.87337017004296 11.525250756412596
Zr 15.390483336938741 13.257851612557307 9.96416594723086
Zr 11.228620895892325 13.9630207157341 7.6073759142026995
Zr 9.662250339444586 11.873435647663335 8.342506966921711
Zr 12.807278799261837 7.270235857599061 13.018300088257089
Zr 10.269027499793626 8.640611750865872 12.110492836941495
Zr 15.18462834385972 9.113319679816094 13.333711008084263
Zr 12.518795171765934 12.03777591644688 9.608461118038587
Zr 15.292319962260313 11.93230027905927 12.573478594677967
Zr 10.325163873568457 13.934869687488364 10.49725464749651
Zr 12.924505369772035 15.16689134097047 9.652502512186187
Zr 11.912574169728714 9.36205862441129 14.57896038278404
Zr 13.229711153735002 13.915442867389876 12.129174504759225
Zr 11.283868210658573 11.910887519911777 13.066256538500626
Zr 13.833148907508424 11.512449329465738 15.016100721895578
Zr 9.079114559421447 10.717165194424902 14.211415716371148
Zr 14.897045025036881 14.266784901186943 14.808914027780862
Zr 8.681689674946796 13.630453447113146 12.994708653987045
Zr 10.710925753007169 16.031146496327242 12.550053212554786
Zr 13.422592683929814 16.530269631835033 13.580866304274318
Zr 11.728402981184693 14.267467573413665 14.788429905749084
Zr 11.224516842659256 11.663191083785454 16.572941623643192
Zr 13.456649656816383 13.378855390737613 17.221119536313342
Zr 8.886000063692828 13.034375158050763 15.842523087682263
Zr 13.407208463195987 16.091285316576634 16.543067695528855
Zr 8.92581539077416 15.662024848712097 15.014320372684024
Zr 11.16335722858547 17.178117017300963 15.307551930913657
Zr 10.728341607065556 14.780011589736771 17.38061610442644
