31
Energy = -223.06703276 eV
Zr 14.611897234675213 8.088220651181057 13.321388311536495
Zr 13.12011663244812 9.405678849573654 15.167096858842259
Zr 15.947641732729323 10.512257394633874 14.850525261741018
Zr 10.498818084647574 10.45061498385636 15.0260997028592
Zr 14.399118399698203 8.747100826444683 10.53835631786647
Zr 13.160908070407077 12.13773613074525 15.813379016832885
Zr 10.241120735124428 13.40266675318189 15.481352473027375
Zr 7.9416767344275945 11.40561168011864 15.31557679876039
Zr 11.844930678206799 9.138135155491035 12.323104527816433
Zr 16.79663069723721 9.465335397883958 12.109915489327122
Zr 14.2349428344135 10.93466600355931 12.658987252434612
Zr 16.898257973215 12.415238791778084 12.470473988248655
Zr 9.085782865087047 10.17860012903057 12.361283171553989
Zr 15.342513729717247 13.439113690555608 14.58094081306413
Zr 11.66319681654766 12.352228511013312 13.161806746328915
Zr 10.289367822524161 9.675548606728464 9.855950792161158
Zr 14.203775300446702 13.433478899975052 11.163768461830447
Zr 8.423463442206693 12.771960257322569 13.063026121095088
Zr 12.923211540543809 14.857183712324439 14.223153350058134
Zr 10.526006929321559 12.831618112651192 10.679999801272057
Zr 15.885440473013857 11.207130434484554 10.015985908388588
Zr 8.012580047720679 11.617979949307225 9.848965238249194
Zr 15.48505408205081 15.38589905896705 12.60056557718296
Zr 12.903616981104555 11.143857825938069 9.638044883421854
Zr 10.068884287044668 15.232046876863132 12.959284221810645
Zr 12.201990833374992 14.097286093535926 8.607988436678424
Zr 10.50233967540628 11.631025340251048 7.9313473073291885
Zr 7.900148942636902 14.477454880200803 10.85914743051683
Zr 12.519648790518259 15.548517705461732 11.371790363987193
Zr 9.123610948778113 13.99631782195574 8.305199592414553
Zr 10.185707661498201 15.912249856975796 10.024182893245364
