34
Energy = -248.98877833 eV
Zr 15.908798998354433 11.29711482319012 10.409646428191724
Zr 14.98369638228423 14.11791605923157 11.503867240839144
Zr 15.183063738412354 11.798593012329778 13.133282353318215
Zr 15.287327832337745 13.597378184564066 8.652307594571326
Zr 14.989945556248722 8.951511775024489 12.591472072411854
Zr 11.426792226861485 12.33640913958327 15.966480541252455
Zr 13.174506049154292 15.251154094360965 9.448532946606889
Zr 13.861097982528364 9.001549917393056 9.666993401403925
Zr 13.518580063372303 10.521040521089171 14.951203766100088
Zr 14.537372867421352 11.020929724744782 7.785232633446117
Zr 13.093972128319585 12.269213682796952 10.230584007888027
Zr 11.521423189084144 14.681606024961386 11.701070255618545
Zr 12.272923687277698 9.976584010319721 12.196512285884626
Zr 12.608278891002477 13.19109626449547 7.321198599853776
Zr 12.834847261402102 7.097845543651651 11.61786799387022
Zr 12.849225565600069 13.27122869398125 13.706835936176345
Zr 12.793305483478356 7.841531035283729 14.298639752166688
Zr 10.204883347473777 7.786847300600511 12.902137697232915
Zr 10.635387320839849 9.52023110295029 15.362473531293032
Zr 10.398966432570859 14.63147213404686 8.937001142604517
Zr 10.073024661449383 11.713592393197121 13.107297176106561
Zr 11.791928506498753 10.231842103925956 7.732348169688144
Zr 10.200123911161045 11.749698957208853 10.08768699598304
Zr 9.830746605345794 14.292941944045696 14.459104886322768
Zr 8.683380087978637 14.17388585529035 11.476108011045596
Zr 8.447277760723411 8.979781903517473 11.108027985953274
Zr 8.728774596946424 11.814011709646755 15.796326486246425
Zr 9.904119799202025 12.307172408109357 7.123108734209501
Zr 10.856602168151266 8.272274211687819 9.863682649161762
Zr 7.930540274683892 9.805492503019297 13.84890344296709
Zr 7.842694919562937 13.08335481740601 8.84614465867103
Zr 7.309240893283456 12.892649044798459 13.672033385468845
Zr 8.482339533404257 10.14693843109014 8.519067950108713
Zr 7.224291876622133 11.450266752982634 11.177745387162744
