33
Energy = -241.04183385 eV
Zr 16.3965546462748 11.442243433504203 14.560951233271414
Zr 16.026895954911673 9.066938516663967 12.989567559609073
Zr 16.46604449809714 14.676276147680662 11.841960084121517
Zr 14.960660585372658 9.23036148345027 15.699724051912588
Zr 15.836956165458274 11.607098079772209 11.514624724770362
Zr 15.454545477178495 13.533983544907104 9.26429994297107
Zr 14.720371622321732 16.167374960210964 10.064758103336011
Zr 13.752273649323817 11.85657580015806 16.223688929471585
Zr 15.135694354138746 13.90972515146124 14.383666435767578
Zr 13.668326699066576 7.713957585355077 13.737663952006537
Zr 13.661515695362786 10.927401337445438 13.460237522670242
Zr 13.722121458756249 8.837048977449705 11.093252791402069
Zr 11.918886345877539 16.815933920989842 10.62013624554627
Zr 12.64045729723194 14.492391877685979 8.766532468675209
Zr 13.978096567961934 16.378284341291472 12.93912441470286
Zr 13.246929390276492 11.499884015643978 9.783967346492213
Zr 12.013048637042903 9.354823049743244 15.538010795565752
Zr 13.784480764788698 13.741691202741768 11.65483288050673
Zr 10.666296042390021 11.944758572779715 15.516136961135382
Zr 12.358765591642456 14.295131960001209 14.784797680293442
Zr 11.17384549394663 9.420761480156008 9.936447756715834
Zr 11.12978009462313 8.195265553557691 12.558252708536543
Zr 9.335502577683995 14.417004182995582 14.112315977270612
Zr 9.833089084634118 15.10768704604244 9.277231403560608
Zr 11.209287914347517 16.655355824751837 13.544738118507494
Zr 8.184265858690583 11.84773655801209 13.727305372599336
Zr 10.96278926771107 11.32104707890037 12.391089917946507
Zr 10.408771867203823 12.218157205030522 9.457963432930839
Zr 9.38108674294377 9.519972726071629 14.35132600940342
Zr 11.08946544296609 14.157881286516886 11.773898440944508
Zr 9.05498069887317 16.240237904688804 11.749267680162793
Zr 8.725402389652182 9.951356095556353 11.447641223231233
Zr 8.336545162872554 13.278944801861273 11.274503515831537
