35
Energy = -253.89766523 eV
Zr 15.976715690431517 12.74405937612436 12.707301524844908
Zr 14.23233455057159 14.85887445021811 13.653153234360445
Zr 15.085509657679127 12.745121784197998 15.604085090404439
Zr 15.804606740098006 10.296777303353373 13.747610840470115
Zr 14.047796963784688 13.894677467420093 11.039698904840348
Zr 14.364348386330027 10.565636214862156 10.999311287258854
Zr 12.704693335113982 16.623364449271733 11.007917906428162
Zr 13.688547718767225 15.139944113181146 8.645564850160373
Zr 12.299906658098813 14.289459833518746 15.550226449895627
Zr 13.063975611804382 11.901848580725675 13.64792793043875
Zr 14.227711618126406 9.975649162947859 15.981523511390806
Zr 13.97146805530269 12.101290328378992 8.12088152830465
Zr 13.585878085450576 8.253767193987184 13.826724252528125
Zr 11.339819335979525 14.363239415113728 12.756478183682333
Zr 11.580837947837969 16.84889452211056 8.237292476652712
Zr 12.349129828501034 11.861458267429462 16.72226352378442
Zr 10.754068262898633 14.857263394041164 10.006551672422232
Zr 11.62852907602834 13.925942787320052 7.214001986132959
Zr 11.491907889255755 9.733480930709476 12.092869801380326
Zr 11.866386358411347 12.159624278810167 9.925834264515721
Zr 13.252356932449235 7.603068166289787 11.162253785035265
Zr 11.41096482105758 9.419728528588395 15.4354285227375
Zr 12.627129438087136 9.310625361266881 8.88793463230877
Zr 10.101862962568 12.269856240058001 14.790193844743653
Zr 11.204970131494738 11.158762892817101 7.184469459978153
Zr 8.110801643601175 13.98921504733756 11.266383244569903
Zr 9.660536368156205 11.724067989735333 11.737557272229601
Zr 9.006917858345924 12.832514993090742 8.564454363125776
Zr 10.700556822868668 7.340357846091813 13.100720557555462
Zr 10.546900971746826 7.550867872682668 10.14109546875304
Zr 8.941990322983717 9.593880640404882 14.239113864768418
Zr 9.450245753603228 9.851420780314717 8.963056251109363
Zr 7.258954188311543 11.606401655469188 13.053279900965155
Zr 7.129745444179542 11.382481208003428 10.207381094985077
Zr 8.258339468469611 8.95016965980469 11.614856574629774
