38
Energy = -275.82757879 eV
Zr 7.466395292470661 16.091092985654665 10.235315699161315
Zr 9.732009808313276 16.172130651541675 8.534972305662064
Zr 8.74283912413789 13.604236431800011 9.601178277509772
Zr 7.684076476595647 13.787147074299975 12.137972007319128
Zr 8.436524978250171 10.868236156681531 11.610863741610148
Zr 10.105798882149783 15.856818228508182 11.403882032904853
Zr 10.746378056335711 10.837747870396775 9.867168207545792
Zr 11.513355165993046 13.802528311680788 9.204552550497894
Zr 12.359989176581847 16.571857743641946 9.520855098287173
Zr 8.681951789429236 9.057193145190388 13.848959771566923
Zr 8.560492333230906 11.97793853551215 14.385145100513844
Zr 10.630869464264606 13.10877702727733 12.286310405440512
Zr 9.194867897452264 15.008566571855262 14.222059041339616
Zr 13.149731855738999 11.55894746880306 7.854392684041628
Zr 10.187705767721088 8.3444515455675 11.402718751481844
Zr 13.301071076729084 14.650775043694875 11.614895820940617
Zr 12.73251819209194 8.854048976711594 9.081218852916143
Zr 13.383548211331567 11.71819151140643 10.89495392717042
Zr 14.441433018042327 14.092957436072828 9.035596850488652
Zr 11.198069592191045 7.805304616860525 14.072019872334227
Zr 15.082038602717798 9.550928127440205 7.386797323008918
Zr 10.838059921032997 13.164196234712946 15.798463536884674
Zr 11.20860816120012 10.621017929458372 13.143273530291857
Zr 10.583590865477689 10.118833805925549 15.95162200618101
Zr 12.088476891694837 15.517875694396135 13.969731551354077
Zr 13.188592283782175 8.57040861480019 11.955009152214524
Zr 16.027029374569214 11.899351244221343 8.566889459016666
Zr 13.79327232915148 12.47613657393222 14.079698018234085
Zr 15.275389424075284 15.054361005919153 14.043581223651733
Zr 15.398930133277421 9.506144530348557 10.139033170446801
Zr 13.403625849652393 9.27513138261852 15.074666379772975
Zr 15.891884592248559 12.897425697455105 11.519632959162614
Zr 13.233260164985857 14.588683530950888 16.315657543293963
Zr 13.179444944805546 11.664437731627793 16.978595892434996
Zr 15.582963070198096 10.076993028440091 13.024971643129115
Zr 16.915830690490992 12.488510761030287 14.066620281899034
Zr 15.724241377732575 10.64814019709299 15.866901607503321
Zr 15.657538017077433 13.370131758466757 16.448422678222048
