30
Energy = -216.9330775 eV
Zr 10.224903774543833 11.619398639219314 7.959034694829001
Zr 12.479161047489374 13.602419406508666 7.833939203873061
Zr 13.409386977212353 10.884294301981704 8.123334612643628
Zr 10.15536834118917 14.6670542652897 9.275465436748597
Zr 11.585730369336737 8.910272561567405 9.17437959541516
Zr 8.598145009144728 12.474983804159756 10.479778237743703
Zr 14.64975545357433 13.086298306379303 9.501653941862566
Zr 11.619494640431725 11.805586277596317 10.213772068123763
Zr 11.856091299180546 13.981154088130735 11.837519829659794
Zr 9.155114828243361 9.694726006106183 10.343603474197884
Zr 13.201118414634008 15.659469953096691 9.896643750096514
Zr 13.438849815344534 7.766227506934756 11.36771245918635
Zr 10.813593111672517 16.67405207621413 11.492345674529293
Zr 14.484019064953337 10.867261488449735 11.221121277844981
Zr 8.919423836729333 14.701814786898568 12.058492906596458
Zr 11.5542948620304 9.865973394447446 12.312331132144939
Zr 14.55976517175162 9.121881160775239 13.523122232374691
Zr 15.018548079408363 14.103322599502173 12.127577534222112
Zr 10.609211311379129 7.294590522282876 11.457213113051203
Zr 9.063815038965387 8.813254792016325 13.353806470697613
Zr 12.749468428023839 11.916161025318793 13.504704954177138
Zr 15.302199005785376 11.870271134438848 14.338885289547033
Zr 9.582490532054305 12.114682674259193 13.400389086289685
Zr 10.830784174000383 15.209090501927474 14.279531616488406
Zr 11.931958464422125 7.7070303491833485 14.156472005722927
Zr 13.285342026984909 16.38322048556656 12.839684337752713
Zr 10.443448111222652 10.119712433584315 15.372510287052851
Zr 13.195421871632856 9.97154166316372 15.825450235511061
Zr 13.722991485923862 14.441720500433053 14.798819089360459
Zr 11.591559095245596 12.703986937078486 15.962159094767763
