37
Energy = -271.50434865 eV
Zr 11.250924247355355 15.879616841138512 13.470319543702724
Zr 13.570517323399237 14.36601938844335 14.727366413859695
Zr 11.265731441786881 13.146976848705865 15.680352771726051
Zr 14.130273060040265 15.315041800311542 12.098930115350173
Zr 14.190200220086416 11.86700228394907 16.341721902263693
Zr 15.888174368642925 13.013703552662864 13.630166203329848
Zr 11.74935936875884 15.989180399778338 10.562472468835542
Zr 11.566721931337053 10.258686419568116 16.44490446459591
Zr 8.710828975952463 13.520868657760346 13.761458724983294
Zr 9.707478382467787 10.79127258605974 14.309798744440492
Zr 9.109979137364657 15.047820648157545 11.256147739491167
Zr 11.545852132645656 13.392832500399072 12.474857114804895
Zr 15.920615959643646 10.21256997141863 14.353500029670698
Zr 13.96594588012517 12.235812463538313 11.533555247679026
Zr 13.67662803683865 14.347811934331602 9.15762604472635
Zr 12.965419355053985 11.11752196419358 14.012217294334828
Zr 13.893102141517614 8.883531817354555 15.675769288031038
Zr 16.11543112049688 10.473838719606533 11.555480823193122
Zr 6.694453608893093 13.26346315045669 11.504614495125113
Zr 16.20827349883178 13.448166712914196 10.569871644292633
Zr 7.110523893223384 10.977726175232357 13.083036336963717
Zr 9.221514640505042 11.798311878888173 11.210589199568457
Zr 11.422378396778432 8.406864936505007 13.979436781318173
Zr 12.272915192275242 12.479123931790765 6.975394923728311
Zr 14.357292324074193 8.8068951949525 9.873268275849956
Zr 11.770891639019261 10.055877165819261 11.364945493475823
Zr 10.370106013910101 14.499007104910696 8.441863645931909
Zr 8.882428651603398 8.79140890367358 12.037625917885839
Zr 7.8161609566640236 13.444368942468197 8.98223260188848
Zr 14.545223258382832 11.445499211042417 8.711793434192707
Zr 11.583646858984682 12.269455580583822 9.598767273085619
Zr 14.099367357459496 8.369542943097517 12.715048790581587
Zr 7.074815023552361 10.59556777597659 10.022855743811608
Zr 9.463458930936671 11.403847480432702 7.746971172360059
Zr 11.846362448235654 7.463077425570684 10.638347874808149
Zr 12.113872178937175 9.538699028085375 8.169912241338617
Zr 9.561496103896973 8.989654317789235 9.340163233923068
