36
Energy = -263.90937523 eV
Zr 14.473270503360105 9.351489111778736 13.911671003782752
Zr 11.834869762442297 10.487096818432486 15.677139524723673
Zr 16.572761713472584 11.359341130525843 13.53441076060391
Zr 11.795400035768337 8.003607945219743 14.0099157053278
Zr 16.376739782477635 9.501746719935904 11.17389427290555
Zr 14.286507363567363 12.247170571964553 15.02684732005465
Zr 17.092204376925032 12.564098651010172 10.991200322749538
Zr 13.323716649220414 8.184707782829761 11.432077110225109
Zr 9.208459566428909 9.111522327129723 14.697793106287621
Zr 12.032096464811858 10.542462416645382 12.704895916311035
Zr 11.233781181195841 13.627683039314137 15.160509983933746
Zr 15.851196968483503 14.108892384136606 13.176165681222068
Zr 14.362229077121034 11.29001946412289 11.275997712474375
Zr 16.06290270348376 11.529385446477145 8.78171885627159
Zr 14.423903022965018 9.188064009340268 8.909246473304364
Zr 9.990605450207237 8.621193118677395 11.710821005188276
Zr 13.76777434604725 15.183422339832681 14.858178079861974
Zr 9.292445443664294 11.70268735109221 16.309565039610057
Zr 12.794431309562436 13.627414798010875 12.597868941504613
Zr 9.59100799835094 11.698540571606308 13.303187012380544
Zr 6.979940803135854 11.200311859506147 14.746901025435688
Zr 11.588550996979714 9.511434927877197 9.221815835718104
Zr 7.435220368219035 9.820438275278565 12.315042509697157
Zr 14.159060004110358 16.277131704196147 12.141567381028358
Zr 8.207623544654963 13.896489042358429 14.694008762812556
Zr 14.475790083185744 14.10711129040074 9.899038991310352
Zr 11.703408498077632 12.515030058727774 10.24008469886964
Zr 11.509799708605865 16.197035382444305 13.392338948638562
Zr 13.310352637994184 11.538490538001598 7.713859665259454
Zr 8.953871338512608 11.310566678137747 10.25305106156584
Zr 9.66154407085097 14.350611747285837 12.027823983508295
Zr 7.059751885593735 12.728728774193307 12.206181696289597
Zr 11.82452835139318 15.697557296223723 10.379171555316006
Zr 10.441261769034272 11.817001522156998 7.709158924421338
Zr 12.134865223350602 14.23169677970252 7.802791558898119
Zr 9.5009392877735 14.161242272964348 9.089900418444348
