35
Energy = -256.88050857 eV
Zr 8.30577427541253 13.41917577380689 8.817276416498233
Zr 11.077073883824673 14.08383253610722 7.969268975795699
Zr 10.157668891734177 11.195766008113328 8.237183793522563
Zr 11.464003324567955 8.658448643137216 7.709458653881005
Zr 12.998431421682042 11.040958100359019 7.209892694701748
Zr 9.460011816036754 15.790409252241963 9.77412001401039
Zr 7.964083939861018 14.096919551323499 11.691883664513641
Zr 9.74307447679453 8.660490711341264 10.037195801356557
Zr 8.055909572968492 11.206390071145005 10.753518114905061
Zr 12.381008976295949 15.716147233803724 10.260127379228024
Zr 14.214209171298057 8.496405208658587 8.118673821299454
Zr 10.528039118212819 13.051194066382209 10.676113853551481
Zr 13.546334385056483 13.151477109079183 9.287986175366143
Zr 12.614368798846352 10.256967728219047 10.217581228616288
Zr 12.41795091452194 7.167101310408246 9.990826608746403
Zr 15.338614786736766 10.927295159332392 8.914671700745496
Zr 7.749335619054604 8.678008716568955 12.138169872122495
Zr 15.010012551943293 8.697829884181726 10.987795872892365
Zr 15.046768795190111 14.625244740825952 11.381879312031895
Zr 10.4496304908443 15.724855407952903 12.568916496375257
Zr 10.157176216821595 7.1779973398643495 12.684286304068538
Zr 7.538383977457443 11.067055697227964 13.731266257722206
Zr 10.424745125401339 10.268981584405571 12.830477345595929
Zr 12.538841583958897 13.249610427359485 12.370144813302854
Zr 12.940286144688754 7.674766319207681 12.722012802643475
Zr 13.376300492144033 16.12854877191057 13.051170334257236
Zr 15.138166644029518 11.737333297929917 11.6769937418075
Zr 8.631012868975116 8.519842697577301 14.77404300215889
Zr 9.692599340567476 13.168194984871898 13.901809561939379
Zr 14.008873332057323 10.002536201897161 13.614743676464515
Zr 12.023559841131693 14.642397662303681 15.004756310626297
Zr 9.622086745359217 10.950428588410654 15.74122418405773
Zr 14.698508689489765 13.665197002537205 14.170559494809515
Zr 11.594234861353012 8.709459402505537 15.058140623291896
Zr 12.314183827199454 11.748856441907678 15.058860067017829
