30
Energy = -216.58123812 eV
Zr 11.604842548866417 13.320518562884018 8.023105495126089
Zr 13.344990270108243 11.025405642998077 8.646362053018786
Zr 10.883800917315376 12.374744494372388 10.66814431558048
Zr 7.968596083339224 11.962330378404225 11.099117037738653
Zr 13.870326299425075 14.048927066536852 9.682126903837686
Zr 9.944062026891563 10.469686938675897 8.990569548675463
Zr 16.001724138800935 12.066520583139962 9.939138553768313
Zr 8.973522373622215 13.64377675624651 9.052760562439675
Zr 9.178549862862724 9.449077490236313 11.929360045254692
Zr 13.69762250663348 11.513836701156198 11.574772897377995
Zr 9.89455374084574 7.451895391914082 10.032223818179663
Zr 15.458104372811444 13.762299525506009 12.565874295747832
Zr 12.136330323883096 8.973330771674554 10.634601920586219
Zr 15.142115236718643 9.310815652679109 10.367644944798943
Zr 11.222704291562035 15.514032588438585 10.123084514198485
Zr 12.099025585928917 13.77956860450504 12.747670394616637
Zr 9.049454179372242 14.69342827383341 11.96599539609746
Zr 14.234409243089308 8.885034338532792 13.179349657986496
Zr 16.347256433209967 10.888704303634858 12.596492905931873
Zr 13.758165636744064 16.025805678312874 11.815794192365862
Zr 11.320531640832607 7.906396052631647 13.256984059524502
Zr 11.448578252291139 10.883129959953546 13.185509668402016
Zr 11.280121559491649 16.50373519602082 13.050160725930278
Zr 8.879917773544486 12.290500548285708 13.8532539692654
Zr 14.392631918416843 11.839650745430333 14.663420538163255
Zr 13.371020298143321 14.91506470323677 14.78866735399189
Zr 9.75946570369879 9.727910929644995 15.106020521945803
Zr 10.17906809793187 14.633246996578407 14.828599995734063
Zr 12.647171369653257 9.541674968095116 15.498963308590241
Zr 11.599673266653637 12.287286109129324 15.822566357813946
