34
Energy = -248.34355231 eV
Zr 16.03100974538836 10.498200921126262 10.875180486472427
Zr 15.11004272037955 9.756085225252352 13.4798794539606
Zr 15.292911460638184 13.031668342780195 9.606787765324801
Zr 14.670320118072171 15.739544961708685 11.679578056863225
Zr 15.473794013550975 12.777428074226615 12.585824289738007
Zr 13.748928569271776 8.520911105443265 11.06498746437799
Zr 14.328389998021802 10.204757312437177 8.641827287434413
Zr 14.062482330207105 15.384124639970556 8.614163616800411
Zr 15.143556242468634 12.106844626105639 15.274569202835373
Zr 12.362820225196879 8.356918751384459 14.011524031990986
Zr 13.075419747079339 11.356062890388962 10.897591393354423
Zr 13.682904100606931 9.788197112094208 16.089888819817673
Zr 12.779458229638585 12.702473439926639 8.07800603263493
Zr 13.226118593087834 14.291896569818993 14.174012682457384
Zr 12.423083084706183 17.073707216756866 10.137195034439852
Zr 12.46240589673728 11.510258109646886 13.907635703155407
Zr 12.762665002564901 12.432294271195753 16.737787382387744
Zr 12.53531902352349 14.137981844987136 10.963852211127254
Zr 11.236635374290467 15.269742310972394 8.256267634876545
Zr 10.746199419173477 10.216389856511778 15.991795677037796
Zr 10.51511149906584 13.282668252384186 15.558833015389405
Zr 10.229481538599144 10.628869570386971 11.899471984980316
Zr 11.265315500541414 9.579414703752681 9.210606861823946
Zr 11.182010358979024 7.569204678194124 11.578912715245103
Zr 10.22885247281175 13.791948930725676 12.850621441566798
Zr 9.33114073542468 8.49015380626229 13.754569598994244
Zr 8.586782266794327 11.475508332271785 14.356628839140424
Zr 11.817118940351108 16.43670602149472 12.789082517082017
Zr 9.85319816195255 15.71283018044784 10.681163045427553
Zr 7.931571049286126 12.72573223298026 11.59695920576684
Zr 10.180085754892367 12.788706062889512 9.585666109545684
Zr 7.268990679692571 9.987243303594537 12.23943216895425
Zr 8.24979269477848 10.69562163216278 9.563018796416824
Zr 8.820295057235262 8.210383272068844 10.662398896724302
