30
Energy = -217.16445813 eV
Zr 12.682444574433577 15.733936911981377 10.241121711941075
Zr 10.783619160848014 14.50109309252809 8.384181861474014
Zr 13.252997167677307 13.293413148726101 8.530345633696344
Zr 8.622969958547923 10.71180865243461 10.17346187584505
Zr 11.300335087634583 12.85816475867178 10.885008868212104
Zr 13.898645124493454 10.880417052127903 10.125951656202487
Zr 8.684359614244944 9.874686714885563 12.868901930682682
Zr 10.870556254315701 11.488768380091512 8.387703594895084
Zr 16.31105200251982 11.845829898052084 11.98122464762894
Zr 14.50813064598992 16.21738396660393 12.530818320695003
Zr 15.786851072451293 9.252153901522856 12.148370275718756
Zr 13.249647765569282 8.204867022356352 11.702154033878545
Zr 8.571046053757897 13.293504321605651 9.449164810510652
Zr 14.944287187297057 13.881769563358821 10.782985993321606
Zr 11.109788448775399 9.889045489749414 11.301968110142838
Zr 15.796010481417989 13.961166382843762 13.882210030925513
Zr 11.752904402356595 16.605647950709074 12.916001271843639
Zr 12.864561475523626 13.74828729887746 13.151573928762991
Zr 8.512080830326559 12.811193701380624 12.359139860612967
Zr 13.483704840482485 10.943737144692241 13.11580101030854
Zr 14.349777766805746 8.30032619276439 14.418364010725142
Zr 10.463849122696354 11.522963501560849 14.306724390360074
Zr 13.281959762620566 15.530989664195562 15.229334390858748
Zr 15.911176348849912 10.783560667899243 14.787959664182562
Zr 9.769590810377574 15.383969612824286 11.180995943000815
Zr 10.181923332901896 14.650976347651852 14.221630169712274
Zr 11.471083504645621 8.71282487180512 14.066512074963585
Zr 12.958256271344467 10.417331483085482 16.015133273867686
Zr 14.384606357209268 12.935884748650507 16.082054540838225
Zr 11.667394821581512 13.189907804060818 16.198812361890692
