42
Energy = -305.89286533 eV
Zr 15.250351848909371 7.215741997648878 11.859014433876625
Zr 14.384718722138688 9.127505968939776 9.83165634968907
Zr 13.62194714984612 11.12073449350309 7.839825643771571
Zr 12.747725323991608 8.583219580206086 12.185392739913828
Zr 14.472427851715848 13.702030227571504 7.724230873768554
Zr 16.268503415582245 9.871501366894647 12.038868493831206
Zr 11.760101192463388 10.519168758590977 9.959205751079876
Zr 15.646816461732973 11.807932181928273 9.804255515595075
Zr 14.848282187663768 8.550055579128209 14.268312973967445
Zr 10.072880157776972 12.91945290288158 10.809285858616544
Zr 11.527965269610661 13.024352657230866 8.033568702111243
Zr 10.733001609488042 10.943111603081176 12.88173786054296
Zr 13.692772457527592 11.446234879691755 12.48059496340185
Zr 12.78422654261793 15.702420862549953 8.346210507505297
Zr 13.078374851089126 13.548930988538123 10.435186068417748
Zr 12.477467751047024 10.091571666238474 14.970354692774782
Zr 15.893427169909403 11.317837812184088 14.74964086518587
Zr 16.212471915281483 13.099577807522577 12.45763874818686
Zr 15.534653923235146 15.275570411970765 10.200915697481635
Zr 8.439402959867673 12.60659374060134 13.406225342580889
Zr 14.597380994125935 10.123880952831978 17.026341591135434
Zr 12.070893329247777 11.398610592267891 17.777787682355378
Zr 13.415103683698979 13.01515846146475 15.407523163293416
Zr 11.14963755033386 14.026587966936816 13.478653879233907
Zr 14.320271017220788 11.181530265011961 19.661510200038347
Zr 16.971377564563397 15.85315034079713 12.882928965681375
Zr 13.283022512441288 17.34749037099696 10.411079694206661
Zr 13.965647113039676 15.240952784296569 13.008369835523405
Zr 15.592977830658647 12.803348718700649 17.571865158764073
Zr 16.39063401753139 14.47016962437046 15.191948036267886
Zr 10.923936966540932 15.878578982259201 10.863567491688764
Zr 9.997951267246997 12.014550350715707 15.692334693573036
Zr 8.515731002932565 15.075364052523348 12.300101431603125
Zr 11.157600019818847 14.147401044311243 17.258371051401937
Zr 13.304812746778426 13.65050913881557 19.143442700236047
Zr 11.983429725258524 16.41113114827205 15.586857971610549
Zr 15.399758295684206 17.83138407423582 11.978100192793013
Zr 14.293119458257411 15.414370151301656 17.068639163518228
Zr 15.027948789934388 17.25461197143562 14.853111959123444
Zr 12.654553867448492 17.96658729539154 13.157278336875303
Zr 9.027924711917974 14.912253431007496 15.312313927907276
Zr 10.007712297854873 17.012947583744186 13.566051564113467
