43
Energy = -317.42693162 eV
Zr 12.763793187072665 11.522626754588682 17.395028224297636
Zr 10.663682865671086 12.311727202485127 15.652319659026617
Zr 12.832818797626365 14.377351941497926 16.741692214350124
Zr 8.881766798276209 9.977127560654317 14.607671608996919
Zr 10.114368309986258 15.02524182846188 15.125849140747702
Zr 7.924001746280151 12.818347365841074 14.25713906103001
Zr 14.728625448517422 9.829152988238121 16.713746682411937
Zr 11.988610750764403 9.359509412139126 15.184068609210339
Zr 15.489396380635048 12.84268696779657 16.628063832308076
Zr 8.070148957753064 15.702957743011874 13.079968838208716
Zr 12.555258228090196 16.796978248727413 15.110682617886678
Zr 12.69306195856487 14.222806091623589 13.67405535683051
Zr 13.848846231280469 11.464045472642747 14.461452820174397
Zr 10.111439969604843 8.632337819478867 12.100279660457586
Zr 11.030294770378926 11.148905355960961 13.109263725611443
Zr 7.057256683849422 13.581996513001615 11.547140524640945
Zr 10.880653423995735 16.57478677850695 12.658560567367243
Zr 8.00948164913961 10.894782747623202 11.88138953366011
Zr 15.258264273222697 15.605612049748604 15.428649302394158
Zr 14.948532483386426 8.662584077746143 14.196777566281218
Zr 10.042575573547486 13.709896869075775 12.247108331129509
Zr 16.837637006334596 16.22556584949629 13.080575734778094
Zr 14.071202420573128 16.71097896749236 12.622507316132578
Zr 17.929718586619224 13.979760900880494 14.765149793258647
Zr 16.97363845191523 10.873596310360858 15.00510872877564
Zr 13.15968024112028 9.404346343644404 11.974501542826339
Zr 9.010479555477378 9.62172211967337 9.51170627665406
Zr 11.17097352297198 11.653849749653181 10.313572391053416
Zr 15.819781177849972 13.288936673447788 13.170206747305963
Zr 8.442887616025544 12.494128823476398 9.183048805483013
Zr 13.66900992099955 12.589970217434054 11.307251212060143
Zr 9.036088033664326 15.440124317305186 10.187155733955619
Zr 11.65875493747578 8.694389657056362 9.513772123934913
Zr 18.180813653406855 14.343162483815027 11.66137373394236
Zr 12.238246224834498 15.24894299402356 10.421912533542839
Zr 15.442610562675068 15.054080950432517 10.567255223895387
Zr 10.995166270926212 11.04624343398955 7.672658045284832
Zr 18.372440885626226 11.781653292064597 12.624454486244167
Zr 13.857619479105855 10.37603959011365 9.14467114997512
Zr 16.129285624677582 10.073217432972015 12.113501561405217
Zr 10.682608602313405 14.00485290655816 8.239674444861253
Zr 13.38839208899077 13.094114083350275 8.500211306064685
Zr 16.441091881177694 12.351767839962543 10.275422282125845
