43
Energy = -316.6055577 eV
Zr 14.928619996124318 11.116959897889409 7.122807192313984
Zr 14.376276795124618 8.596724342130166 8.4138709888843
Zr 12.464604833449862 9.729277308862695 6.588320765340071
Zr 15.874811099713 10.672362594056283 9.910465090115945
Zr 14.730369640437443 13.426717549602866 8.796626202695139
Zr 12.447526057150641 12.74063204210157 6.836832320479693
Zr 15.378612193804468 15.951466482295336 10.119422863665568
Zr 16.438262281428248 13.53815425603565 11.344293815374954
Zr 12.827887737749542 11.032364514553933 9.357505588596682
Zr 15.54062904092069 9.696253004232878 14.188931621170747
Zr 11.398443432203388 8.448770921812176 9.075977326479089
Zr 13.939799872361602 8.775845268320055 11.227038006687303
Zr 12.589248955301247 15.706388434644184 9.021163107508544
Zr 10.236872026162645 10.994258419553377 7.690306460607162
Zr 15.531108211211823 15.733409500200333 13.141809637268347
Zr 13.295483572026287 14.226755621516059 11.399357021549283
Zr 14.25963487371756 11.517377097582385 12.290121533035341
Zr 16.234521346441923 12.961554243445002 14.221034368752544
Zr 10.76121948715561 13.442521479172543 9.259085359701688
Zr 13.27522799970127 17.235059670971438 11.44802572840619
Zr 13.23398525269599 7.746401130178593 13.823925093781769
Zr 9.34243054204612 10.433451266046776 10.266132912147055
Zr 12.30643743995172 10.698577866991181 14.530205354917333
Zr 13.226496415590784 13.632651957332964 14.293211464562606
Zr 11.08403953908285 8.874149230525449 12.118991319362573
Zr 13.837787605688156 8.721141801578217 16.311849843775086
Zr 14.620498810825602 11.631980299560588 16.380115463948755
Zr 12.953628175908412 16.683458719524943 14.174816739175826
Zr 8.56122450195478 13.219442027911967 11.643189765030417
Zr 14.7597673919053 14.884651102911047 16.070132907515134
Zr 10.606727190110169 15.602094921991744 11.637005433457722
Zr 11.326038091697669 11.99366722704989 11.779137334285886
Zr 10.879266138480968 8.480257120704293 15.48409246779096
Zr 9.262588445202695 10.6930999749953 13.418798310973147
Zr 10.401514933225315 13.795423226674428 14.151959582419028
Zr 12.004873426033258 10.276484864853414 17.584479497580233
Zr 11.922996587693687 13.100882702320638 17.01560263289986
Zr 11.76702589158464 15.742601178770958 16.4568537816812
Zr 10.011785369503283 16.918492426005674 14.538286950519792
Zr 8.03776824895374 15.45666162326862 13.461617389190605
Zr 7.554620954938958 12.858631169572321 14.49103288540414
Zr 9.709383974296637 11.45251083212078 16.139160285179464
Zr 8.89013548327296 14.731972945518855 16.360907624410984
