40
Energy = -293.91504213 eV
Zr 16.398185654367538 12.685417795330418 11.058178619712384
Zr 16.751053528999208 14.374171081367232 13.415116222539137
Zr 15.512452570778057 11.257510764565017 8.723218442459357
Zr 15.357825083405741 9.856318553217873 11.304221012337532
Zr 15.652523296025503 15.533978457086445 11.248896046678503
Zr 15.74433051975358 11.455268893280111 13.791182566863244
Zr 15.07823778045652 14.253485206292428 8.764554658656056
Zr 15.40008833722467 13.959473836024662 15.632950061081507
Zr 13.951183030499072 8.801805582229395 14.069512678100004
Zr 14.380512848449042 16.276697125738913 13.844911639603122
Zr 13.192683818186843 12.57408052366022 10.285553975760497
Zr 13.038045322654758 9.652318657888962 9.152732104262713
Zr 13.490341842318715 7.807869035516039 11.409870386357342
Zr 13.661268688269951 13.648878706065695 13.126193413759408
Zr 13.347776542033893 12.134154903343704 7.297071583139276
Zr 12.69818209746806 10.705399126066325 12.652122634859175
Zr 13.002635887296837 15.89366336304274 10.614590398908966
Zr 13.580481683544047 11.592757483650054 15.611112240619429
Zr 12.8468389568777 14.856637226650705 15.857545124336381
Zr 12.1893551478773 14.566143331427519 8.164615844019588
Zr 11.11963044502756 7.810356590680749 12.97296156795231
Zr 11.132691711358556 7.217239795999158 9.863943471415652
Zr 11.02916714667004 9.861136824893999 15.164643262840645
Zr 11.044141845655922 12.785007585978764 15.661260664829541
Zr 10.574120456730684 9.239674766603477 7.666078731049824
Zr 10.127507827524802 9.901955187461612 10.620252672732436
Zr 10.616823619376074 12.10692540477523 8.575977473202158
Zr 8.683530541488146 7.297440254887098 11.554026159896642
Zr 10.558137014075957 14.304595104893592 10.566614252652466
Zr 11.075747126412526 15.152521209090686 13.364287336273318
Zr 9.970618551967215 12.267929580294535 12.855924124609333
Zr 8.512145596873468 9.348909824770415 13.524539804981346
Zr 8.357929227797163 7.913892103247877 8.92826417910089
Zr 8.526921096642754 11.376517435995451 15.519639293235121
Zr 8.114801814569923 10.60287829609547 8.330462171243292
Zr 8.588383842409062 14.130084928309124 14.871989993990963
Zr 7.909024621293019 12.581186604144076 10.35043820740613
Zr 7.063790761413209 9.75700271652941 10.955694231992421
Zr 8.255116498152864 14.70211645350819 12.233874674428078
Zr 7.008764010845827 12.093109820942242 13.159815445287615
