43
Energy = -316.25803016 eV
Zr 10.139135509466893 10.186076079643783 16.36675750817416
Zr 12.325836307442387 11.251636205114337 17.789186769187708
Zr 12.431431397314844 8.547489040785345 16.501709077241077
Zr 8.78499646943587 12.649481199409797 15.489054441623818
Zr 10.783886198826714 8.582216957130768 14.002412667473262
Zr 8.279648700491569 10.17626505319555 14.290979466482455
Zr 14.516067346515566 12.838993058910251 16.824256800923983
Zr 11.713749020159442 13.742866642053771 15.765897604348996
Zr 14.558179891179783 8.714292574995604 13.975767043970801
Zr 14.785270320082766 9.874815098342758 16.98440038948921
Zr 16.67931937570252 13.81571725043087 15.109171244253503
Zr 10.791277607773306 11.850915136985 13.155603023238788
Zr 14.456870206664867 15.627069232966782 15.793120709304018
Zr 9.395445096609464 14.822020817663518 14.042726024251579
Zr 16.31235962984682 11.064454549410673 14.944990732334011
Zr 15.186142837794607 8.543209329550113 10.961725758991973
Zr 7.921571881311896 12.511847481886582 12.622164146005158
Zr 12.897387362298728 10.941941157265148 14.8553352544822
Zr 9.193701921085514 9.817247427437195 11.635591234778394
Zr 12.331540010554985 9.401045250834839 11.706276712192198
Zr 17.190150815366383 9.667825853492687 12.552503142276295
Zr 9.644887959969132 12.431359975112427 10.188477061775329
Zr 13.886115225367442 13.951858430011658 13.523630160829457
Zr 17.341285200519074 12.638001357171415 12.493629829967505
Zr 11.858200805001346 16.554562406552687 14.521871596344113
Zr 10.954796585431355 10.029630146458672 9.247579031819795
Zr 14.658962182359296 11.177327375069092 12.272379648906258
Zr 11.334715123664596 14.862550683153792 11.788814592922845
Zr 14.425523549675512 17.5485792875532 13.663935389559414
Zr 9.663122552453487 17.301557865593697 12.503873500604676
Zr 12.803413554571774 12.54960299912579 10.496634893290732
Zr 16.329898650624735 15.614647982375908 12.992748450126482
Zr 13.78132954582751 9.972236294292454 8.987700953414866
Zr 8.638224807938284 15.297218116706976 10.821720484916096
Zr 16.50982859133854 11.119515587039375 9.977008320743334
Zr 12.195217846111277 18.31109435089951 12.192169014003305
Zr 15.73447304534964 14.031172152503018 10.410748435865866
Zr 13.982824538895143 16.24982326346301 11.14885760466639
Zr 10.389530471738121 14.656619431454631 8.619564374381435
Zr 14.72690117367903 12.522426523466487 8.104665366306527
Zr 11.833779660999129 12.355724339313847 7.7746436514493285
Zr 11.0030291353967 17.104443411677046 9.850864687263385
Zr 13.282702992457711 14.934018214228548 8.637547036920104
