43
Energy = -317.34874069 eV
Zr 16.551538033234266 10.703220317184643 14.162795683992524
Zr 15.33550426104208 8.259521495231176 14.184194729135623
Zr 16.208648709499396 9.350483349724648 11.43636098650466
Zr 16.74800090730058 12.324475775290269 11.841674762212126
Zr 15.958650710431451 11.366543329686047 8.928046839842768
Zr 13.833103170893146 10.542919253891505 15.831480548494229
Zr 12.876772069927696 13.2457924552573 16.741356461466435
Zr 13.650853811954152 7.399471223116007 11.903289478381659
Zr 14.855743680817028 13.067767425894413 14.478351396995174
Zr 13.895064950336788 10.444462693861928 12.856426437712955
Zr 12.558884573937661 8.09555677037451 14.515983033221461
Zr 10.775344676833646 11.358691635021959 16.849487265357656
Zr 13.750406304354316 9.234731633402273 9.602197244874066
Zr 16.05115207751102 14.223385658360208 9.667651799526135
Zr 14.061150331302693 12.420292190540797 10.647314246113845
Zr 14.901370767109695 14.964905090560965 12.395716632902703
Zr 12.777082491152663 15.422679527811608 14.902809725403532
Zr 11.807313120003572 12.054769081349752 14.211050399504549
Zr 10.189082439390225 9.536926802444533 14.620203519212948
Zr 10.150030309435886 14.132705680672418 15.857634947675926
Zr 11.2490063023816 9.78663558529385 11.48276808366051
Zr 10.52219117066699 7.164198713970426 12.584890784529442
Zr 12.603694055670527 17.00675461066616 12.398859784887138
Zr 13.447838904308862 15.645725530017236 9.89431994116179
Zr 13.272590735685027 10.902328429522589 7.460297310437838
Zr 13.731935502340168 13.570369221717211 7.724339580833523
Zr 8.29317505141958 11.735963884284503 15.109439695022417
Zr 9.508088788001894 12.72809711918388 12.42714311532962
Zr 10.038203572863583 16.165281968295574 13.703991297030536
Zr 11.607283681702311 7.148958571437871 9.860511176012121
Zr 11.972565348558868 14.199510318493878 12.205028080236234
Zr 11.491970336758854 12.392380427326309 9.76010016368153
Zr 7.677278706113855 14.362710142481303 14.327928411116671
Zr 10.834577423700173 9.544470144597216 8.312024986491648
Zr 8.998514690533073 8.157139799890588 10.23381277372075
Zr 8.355033850147397 9.752630341659946 12.586592494189698
Zr 11.161712642022398 15.067289431863905 8.166073898886953
Zr 8.768990829653212 11.036730058929137 9.853932512625883
Zr 10.334892685616644 16.186821906431334 10.62823767542284
Zr 10.715355766520943 12.461837298494016 7.118867347322969
Zr 6.864095303621191 12.550611058313091 12.053962605462804
Zr 7.899731163986615 15.370096416668293 11.799732112991993
Zr 8.732925648372133 13.862430638670455 9.453005981059075
