40
Energy = -293.76516912 eV
Zr 15.818358244634208 12.426203655681203 12.093628242916061
Zr 15.78282290264944 9.794830308441503 10.622280223097684
Zr 14.998580999071024 12.032480061859808 9.123760848946352
Zr 15.707377642002568 14.389373161063796 14.308567362253127
Zr 14.346451945570706 9.083740843131192 8.027784310396582
Zr 15.656490603402405 11.689031165948448 14.996437057665206
Zr 15.351515250306582 9.297968975500318 13.530726498816177
Zr 12.327152437114057 12.942753791931379 10.298078080673434
Zr 12.862728790751115 12.037531069298023 7.25324794780287
Zr 13.336204745300922 10.657376598103586 12.173773041570279
Zr 13.788162130105118 15.121780941702628 11.893032799211786
Zr 13.880893310812688 7.75206769363735 11.07278724111143
Zr 13.817918192910007 13.29382652565495 16.66217927229357
Zr 13.09772613742423 10.1973774135751 15.579734934659704
Zr 13.090590913106583 13.085621966553772 14.001878265579645
Zr 12.329666533400696 9.966095760265544 9.547127291462273
Zr 13.620090202563517 15.92694577979012 14.986273728753574
Zr 11.507702487598783 9.304238219738057 6.872648726099233
Zr 13.62213460011879 14.78577928566394 8.70230848555279
Zr 11.986994759526823 7.228507460184683 8.856669663853404
Zr 12.712243146855316 7.993647895289333 13.805881136270058
Zr 9.82553610709705 11.553346579891796 7.675659244779331
Zr 9.39267265877657 8.836121897435174 9.035644467720646
Zr 10.835987381973426 8.145347757371361 11.643623801040969
Zr 10.951062087988738 14.247217365117917 7.82628872244109
Zr 10.770418977857787 10.861776719734163 13.301226849357931
Zr 9.989925884036609 11.250883541885873 10.647810122301713
Zr 10.61178262059926 13.676785368499978 12.55397564013994
Zr 11.169907392468463 15.757465792855543 10.409281992331634
Zr 11.074197823705706 16.27899366855435 13.601186187434728
Zr 11.335547233491404 14.79598814220664 16.11833166738473
Zr 10.140226678143938 8.990739305952705 15.02724496776296
Zr 10.732114210206033 11.953204280954097 16.151479057584805
Zr 8.136957375152317 9.53477334827153 12.206897007959425
Zr 8.751791921902397 13.913023306480031 9.69812513489051
Zr 7.408058263587154 11.19437463350353 9.59879235520808
Zr 8.906836058239506 14.122663470008819 14.80180190410083
Zr 8.179540487102862 11.246683875448964 14.721241090114885
Zr 8.512229682789094 15.530707767743777 12.159491705930792
Zr 7.59826224665856 12.590835925724901 12.269318844897407
