46
Energy = -338.51096962 eV
Zr 16.32247195473692 8.833210725937754 11.409573036059857
Zr 15.20587043047634 8.247567727962023 14.299188360679594
Zr 14.152923716229665 8.531674094686025 9.33815184653039
Zr 13.702958254522706 7.2998279183002515 11.857239310324708
Zr 17.495698674306354 11.473490595559337 11.237315044673629
Zr 17.116163031287392 10.53550557377008 13.985226647298362
Zr 12.659925867009349 6.885975551020476 14.638362139849319
Zr 15.374185022405593 10.358548735511851 16.274592198038548
Zr 17.569406988885113 13.31712428909848 13.321986017985218
Zr 14.366191130594931 11.007176098379194 11.167695990473813
Zr 15.849578409320536 10.749589779612512 8.893249000171068
Zr 12.961974872295018 9.010502851700352 16.40695214690774
Zr 11.462900024575097 8.94280325573943 10.358971260498393
Zr 10.824796420733298 7.254197584977345 12.579195911905853
Zr 16.318825498869614 13.007528351298518 15.88349507831605
Zr 12.665126475585106 10.993183201164713 8.544352440788499
Zr 14.510187020755048 12.379584628456135 13.774531922875896
Zr 16.123926164569944 14.103609643789193 10.916684260747651
Zr 10.315719881745297 8.580921792290956 15.075105888371187
Zr 15.591774784132692 15.43805410488237 13.613403980494006
Zr 13.074628038723784 12.136694083051948 16.50850797438175
Zr 12.58194425694017 9.774676636540855 13.512391619750131
Zr 14.195702404567164 13.321659028927789 8.917350735682549
Zr 13.374871330529478 14.659639238031987 11.711457136839948
Zr 11.750230113029986 12.014622865444567 11.555202877611567
Zr 13.880121994646107 14.929453506779225 15.756199111518157
Zr 9.5914991974191 9.856750720238834 12.449713774277003
Zr 11.724996492692652 13.973567280041419 14.036696379278684
Zr 10.304681028286979 11.519474034051957 14.857738310343652
Zr 12.651260050431901 14.673198168529577 18.204728896317757
Zr 14.62408924117616 17.112494868197935 11.257076723477562
Zr 11.238209302954528 13.724343595952423 8.757375080100516
Zr 9.625335742672815 11.462052437832467 9.755188276808775
Zr 13.102440992720396 16.096520924975813 9.012881379311565
Zr 10.50537821911667 13.561095782724081 16.93713775140348
Zr 12.834989762466686 17.06443143268926 13.71118386445097
Zr 10.51176634471796 15.070573954549866 11.45600036827892
Zr 8.699853473148531 12.748840217890947 12.28147986976954
Zr 11.022454473872246 16.248462179273204 16.060989547662057
Zr 8.907606699282868 14.597852145941031 14.731165171356157
Zr 11.68969947680947 17.878678190530238 11.109058186177887
Zr 8.312155797310036 14.579739817914769 9.654148935104994
Zr 10.354974328165826 16.507550901030438 8.702505129767856
Zr 9.805204429437394 17.285090369714585 13.455766999699886
Zr 7.613120869126832 15.488471573836492 12.349569417826386
Zr 8.741110639273273 17.446263027182855 10.724578627619248
