49
Energy = -361.71415945 eV
Zr 10.288379780179838 17.11996711924909 11.938994451044609
Zr 9.114776262202101 14.537449865454509 12.622797840273256
Zr 10.767193938236232 16.46126470685487 14.862512936938007
Zr 9.27189838076955 13.666744441720322 15.491786141576906
Zr 8.318341776135735 11.759941179060416 13.417912705979186
Zr 9.562767165262878 12.178112414792578 10.826162692469332
Zr 12.573625685838842 12.531957713010804 11.050292858174055
Zr 12.175699902101922 17.452509014849948 9.701975361350627
Zr 10.382814910248529 14.986578910485644 9.949557772179409
Zr 12.911894718291116 17.912183552284205 12.651571797194698
Zr 9.955866357271743 15.417643196141857 17.607337152455347
Zr 12.177472495746501 14.966756193615966 12.864270471936317
Zr 12.271417792959857 17.087006723083235 17.40743505118666
Zr 9.499217195315742 10.464652680339237 15.481897611321694
Zr 14.72165058965175 17.024949678347983 8.145091326568018
Zr 11.299734215021514 12.166736785614487 13.888606038147477
Zr 11.71895155717082 10.143436364695859 9.708146061852235
Zr 10.580632666530189 12.584421463030305 18.01984431955454
Zr 12.515747145563322 14.145909422241942 16.22351702405491
Zr 12.148983006517705 14.812164034597913 19.21502573680819
Zr 12.553063321135939 15.001056916623504 7.800129613998308
Zr 11.006236917442953 12.62473999387587 8.36875104709418
Zr 10.345680944699422 9.739733122001542 12.358706743486529
Zr 14.998312638072429 18.06831805484968 10.729074728533721
Zr 13.760906409117702 12.188327000894201 8.25588491937515
Zr 13.984220864455924 16.56038676942801 15.126098207435778
Zr 11.599420104763444 8.192498579311305 14.458672406744427
Zr 12.805177491461077 7.916632040303746 11.462190199006914
Zr 14.693034538772036 15.500140212494147 17.89600554712275
Zr 13.566480987250547 12.464023478846416 18.48659304229454
Zr 12.150439168883956 10.62931687131549 16.491474596855152
Zr 13.681755313995902 10.02621478726791 13.286934400237827
Zr 15.559491165224108 14.362204160040683 7.909080676582769
Zr 13.95829456934493 15.183895672878766 10.419944914317126
Zr 14.61284220999602 12.966138608527643 13.351996900268814
Zr 14.748594902378123 10.174260561060695 10.236442628664715
Zr 16.82553447810229 15.955347785957835 9.971284671229633
Zr 15.638374475973933 15.925469105873018 12.809301432076518
Zr 14.186617337702343 7.008591443695898 13.83834465064441
Zr 16.993069989382832 16.502162744771077 15.487343052380794
Zr 15.775509677330644 14.161295483784494 15.618839132235427
Zr 14.900288886491436 11.318883323907675 15.981478119848665
Zr 14.010819822150046 8.510841350640945 16.183676995523374
Zr 15.973613606605376 13.019982079997364 10.565525221660263
Zr 16.88084205617832 10.869593009066811 12.353247716864416
Zr 15.756548462323076 8.175566714662429 11.877064475341802
Zr 17.549575779086023 13.84599190302986 13.120343016466226
Zr 17.52637412702034 11.76659065206634 15.039227898902901
Zr 16.39052512228265 8.950778675982502 14.59820652290016
