47
Energy = -346.48514102 eV
Zr 14.973217800673375 8.460373019655265 13.952649798167467
Zr 16.25462024520989 10.133051636340548 8.197791517778859
Zr 15.815681774923652 9.134193242227283 10.92423815023647
Zr 13.408235105472215 8.701816833291858 16.731707628512588
Zr 13.538165382038734 9.328260987180084 8.807686505097582
Zr 12.087319467297355 7.888903073809693 14.01439282264114
Zr 15.928436767048074 10.177294909264894 15.873513608616733
Zr 12.945975285477566 9.298577272402547 11.613084097170379
Zr 10.179502435038074 9.712060416362208 10.279958908776655
Zr 16.398898762586814 12.897768957432731 7.7805105382059185
Zr 17.56092705751517 11.681638859477896 10.385827440452283
Zr 9.769286406191984 9.707511715727255 13.200536283635536
Zr 17.26128095355122 10.619716037351836 13.270302824719757
Zr 7.439007504998817 10.31432142770487 10.93761685111612
Zr 10.466246627544258 9.061833691806747 16.003102455419608
Zr 13.896499512241737 11.663680511640504 7.196959377338079
Zr 11.758946052377285 11.910670039283495 12.48689268230606
Zr 14.642525768872126 11.911400664537965 10.095454970045125
Zr 12.755179051928813 10.738802908661295 15.038669994368199
Zr 11.788571138681787 11.810776913609264 9.308522000294403
Zr 8.69332628866064 11.936231538202719 8.978417605892158
Zr 9.258040919946593 12.320258532734524 11.750555986593074
Zr 14.69362353443719 11.410395229418366 13.03861979407027
Zr 10.045187416745756 12.173455730804175 15.238943797018146
Zr 16.368096495856403 13.837184190144304 12.510054736780258
Zr 13.274075204051522 14.335183372325973 11.576158750968688
Zr 16.122693453418776 13.03339417395033 15.411792825261276
Zr 11.499518356161305 10.878150652158146 17.76535086294588
Zr 14.28390519002949 11.818108856211143 17.550036761754598
Zr 16.72472350814456 14.517042162002463 9.913900777329793
Zr 10.509104694220735 14.888078696480601 13.161984414319747
Zr 12.995609171388988 13.706233937785845 14.632470777584423
Zr 13.885336069508831 14.514053945477228 8.674625804793548
Zr 10.555375152044183 14.527636347728373 9.90096934504835
Zr 8.02379151632725 14.872033319450644 11.319524715831866
Zr 15.100132103420181 16.496544264670938 11.119872402868992
Zr 7.803276532771507 13.65548112005072 14.013474569073432
Zr 15.033201888119441 15.80273763016303 14.316844516054537
Zr 9.49834298693481 15.19307976402425 15.987064644367987
Zr 14.471773557016133 14.705799119435166 17.06908094530995
Zr 11.839251333440691 13.66116953522655 17.420257167144385
Zr 12.759674085283795 17.28088230203017 12.97543412686953
Zr 12.463234669949584 16.79872382282037 10.06666583409748
Zr 9.967526525381663 17.28181374965563 11.540408054633334
Zr 12.361163597347238 16.367253607342057 15.875928820180052
Zr 10.287950168169814 17.692675861166318 14.444582852351658
Zr 7.958487687676848 16.470425154174436 13.729684062195883
