43
Energy = -317.06799289 eV
Zr 15.025636181396354 18.590854913785584 12.607340957353403
Zr 16.25276424748997 16.78138667558004 10.920339732351794
Zr 13.388822748896617 17.397317271212536 10.197052253954363
Zr 12.237967785112277 18.483903973217412 12.802882209720904
Zr 13.90197203752976 17.534930384652206 15.083839651594474
Zr 16.449779848242 16.301160145947456 13.958637149224922
Zr 13.859108853506328 15.877779948697965 12.579592583197917
Zr 14.834496419285813 14.654206950736327 9.57148735226883
Zr 16.955362447814146 14.118005066568822 11.80021504069831
Zr 14.468549173736278 14.62698862327729 15.789182844282056
Zr 10.702920590622504 16.268797025987396 11.777985032949834
Zr 11.919959371858052 14.282078001678977 13.994780955891764
Zr 11.838278375881236 15.02273218149884 8.892154670761137
Zr 12.405850808454947 13.654660192546793 11.098220492986512
Zr 17.048722108942034 13.601416525506838 14.725786426915588
Zr 10.36318664865708 12.37373203254002 8.811122963283726
Zr 14.521603837883928 13.035328968220721 13.26334371049891
Zr 10.99084891977317 16.837694694481286 14.741946995842483
Zr 13.106770153895349 12.029474588216354 8.553344699041197
Zr 15.31620157699599 11.645599761763181 10.561360918915913
Zr 16.800642309020656 11.147987152819193 13.098800669162143
Zr 9.20339603625665 13.832121859316503 10.908156188251738
Zr 8.867692231829182 14.649789708231287 13.850690033992729
Zr 14.047334406180182 9.331697224717942 9.338536547955844
Zr 10.289291680198062 13.39802699932286 16.188557216229484
Zr 15.425756175980213 11.38533485657544 15.75218749846573
Zr 12.01277850322096 10.769585993617456 11.157952290648163
Zr 12.546056045793929 11.65560649671457 15.64229365612813
Zr 13.892738945261954 10.092930863692066 13.330414620413926
Zr 15.613184783120486 8.509506914670549 11.632333229410811
Zr 10.23001919378784 11.824697453300137 13.453621958564986
Zr 11.131756042390082 9.459194505923238 8.906115759083931
Zr 7.3180600295514795 12.396920951313287 12.566229901385011
Zr 16.15330198973454 8.700256984125897 14.627267364161193
Zr 8.730335408319503 10.803648748454133 10.620291116823056
Zr 7.842204628734304 12.17218124270409 15.276884775766899
Zr 12.625650159445467 7.71584026806477 11.264859075577107
Zr 13.597191061706756 8.90123664618831 16.058672328373618
Zr 9.918207976809894 10.382640847043742 16.118052125937695
Zr 11.267146788217772 8.72586011155612 14.061390993617605
Zr 9.89166065936774 8.42551947788646 11.503669964089601
Zr 13.906592259024233 7.147829816787492 13.757388847967311
Zr 8.262386838229437 9.706486325420396 13.600541625768253
