48
Energy = -355.4855093 eV
Zr 8.007651379841937 12.143315757329875 8.534641155377278
Zr 7.41259245030367 12.114602432878444 11.496146016353158
Zr 9.340995000583082 14.197314722683874 10.073038219502898
Zr 7.569231773170672 9.563748117475871 9.706927951024129
Zr 10.988267863874327 12.55326871732431 7.995809961417385
Zr 9.752208767787238 9.87129220046292 7.792671430489664
Zr 12.36353337140587 15.345722444675292 8.867675386090113
Zr 10.797385387365384 16.338776204610507 11.414205656734305
Zr 9.95559337178978 11.174603968957467 10.452802558333843
Zr 8.511543368947539 14.67248123185475 13.02452872694496
Zr 13.367816952067944 17.606930292218337 10.215292670936849
Zr 8.29895781437607 9.021924145457753 12.391234322387305
Zr 14.23489312936789 12.88805304612804 8.261731752709839
Zr 12.406873777137426 12.958667894728226 10.505884940664515
Zr 10.179292016040824 8.056382869144173 10.08819839278431
Zr 12.799531064131948 18.09893271966337 12.915537909125742
Zr 12.463799728461943 10.112022456202267 9.150601117390515
Zr 15.346380997264292 15.48659596334415 9.414348905740889
Zr 11.40142875045397 15.924296735158249 14.369069993480402
Zr 8.786047318618579 11.53547541376522 14.20260495066505
Zr 13.52262830782825 15.356446114767557 12.141921021297476
Zr 9.905994711133332 13.77140524372561 15.857456566341241
Zr 10.893231141016662 13.311876248478558 12.868419719380336
Zr 10.998765986066996 9.94703423408337 12.651804095149311
Zr 15.683490615858146 17.280229764091708 12.02228281986006
Zr 10.80883969331102 7.123109880973123 12.837653420436325
Zr 14.322066382027506 16.628264206446072 14.92064741930255
Zr 11.381554125889274 12.452275159271815 18.24001114360618
Zr 11.861309819152398 11.432214241745728 15.285013841229157
Zr 13.607632342363292 10.96241128306802 12.45678649485156
Zr 10.210465228496476 8.819532640101185 15.268173527502539
Zr 13.724928110227639 13.597085215667654 14.379564032328698
Zr 15.377625067404345 13.00409245460113 11.476079985881961
Zr 12.63512225212437 14.71505960947397 16.98506455870672
Zr 17.020953937664633 13.041392602592758 9.004032508537918
Zr 13.073736885314215 8.215007595794031 11.269332696803712
Zr 9.462883388276287 10.94518468446777 17.047427779284664
Zr 15.54130582454795 10.50643308138074 9.81888608395291
Zr 16.574807523579285 15.333089526474796 13.978169031718956
Zr 13.059350375365309 8.588728060281328 14.313572112027602
Zr 17.699000638307968 14.669687086232985 11.405731885024542
Zr 14.040806346593106 12.1682758940388 17.60109262279754
Zr 15.658947242422737 14.079886136276379 16.387742713882965
Zr 15.00665680357611 10.941616546900152 15.16734052235186
Zr 12.234097789666524 9.70455745696948 17.46332851007379
Zr 16.283301207564804 9.933831098021006 12.625259953609682
Zr 17.252328252739375 12.595076128621832 13.863184980894601
Zr 18.037040442856384 11.629988910624416 11.181904679838023
