40
Energy = -294.02329614 eV
Zr 9.788393078140313 15.310613977196498 14.672737047272543
Zr 14.954774951539656 13.296966310555765 17.143461884918057
Zr 12.309690814237527 14.026488302033869 15.971698821133161
Zr 7.420507305825517 13.610821279114669 15.233214750087036
Zr 9.832038567950377 12.520997370886349 16.329501436729277
Zr 14.76154958399331 15.654079019918013 15.42868062981376
Zr 7.48320961916398 15.13431927927424 12.751565742578784
Zr 12.842323446841819 11.235591878338056 16.684813905424168
Zr 10.008384523502084 15.591275757232856 11.623602453401096
Zr 12.408961390278368 14.845836337820277 13.164321466759414
Zr 14.239906698813167 17.19590317817638 12.906443904008757
Zr 15.92474147736885 10.770855090416202 15.875021302152001
Zr 17.151956433472645 13.797332153251215 15.185872988605265
Zr 9.355122382325522 12.844986455226596 13.008316332109652
Zr 10.514881961094327 9.742168902958287 15.839602617444708
Zr 14.415672990874056 12.36748416933624 14.348130203841814
Zr 16.977459889320677 16.518078518490668 13.865857566981877
Zr 6.410622683206113 12.49842200573094 12.77849298321488
Zr 7.995382877838613 10.69515750380745 14.68630628885606
Zr 11.715093044990967 11.65694100044934 13.77758843731613
Zr 17.51102152176056 11.72109614834345 13.447821599423847
Zr 18.155650764136094 14.357227466920037 12.067349357152112
Zr 16.41145482965532 16.70791258279665 11.057781122491894
Zr 15.416949565755832 14.400390737112511 12.554945604771785
Zr 13.235798691631034 9.222007650242125 14.60351370657119
Zr 8.284281593790036 13.217144054182182 10.430093643302243
Zr 10.083792038506887 9.09985268761618 13.071331337456446
Zr 7.845461119112118 10.418144343580336 11.691107423671466
Zr 13.595867359273697 15.747832084185362 10.39434473784067
Zr 10.347059428164355 10.726380622669092 10.637268761235045
Zr 11.547146935097135 13.309655766467095 10.626175234693275
Zr 14.22389435534908 12.213341589009385 10.95156859130187
Zr 15.580882660184978 9.812206299463282 12.708930520455393
Zr 16.26507047601121 14.37572346982019 9.459926608435683
Zr 17.217759143729626 11.73185375907564 10.623054712113
Zr 12.774227680931338 9.5410423914953 11.573972567552785
Zr 13.516316928128836 13.734286701025622 8.349035983614598
Zr 15.132272760599156 9.553846884730339 9.835577840058754
Zr 12.798006434403357 10.937480058375948 8.711322610382027
Zr 15.565011439105566 11.804644036730917 8.202230124346324
