42
Energy = -308.79926148 eV
Zr 9.376724121212 17.53222729947202 12.226630062047604
Zr 9.9788035392443 14.528001530311707 16.045861930307673
Zr 8.33639638020723 15.251570825839305 13.752207897385203
Zr 10.97914580223469 11.927523193173288 16.569317023998483
Zr 13.618096778410576 12.34317893628907 17.57837795476028
Zr 8.197849033875245 12.305080065630179 14.998236617567576
Zr 7.784023930610028 12.947956094660256 12.156702816683671
Zr 10.325763138846735 9.827384484795889 14.95179881259744
Zr 10.748901310795329 16.9647533364072 14.766993498664885
Zr 10.965161904294987 16.952161743861268 9.907441121837467
Zr 13.673656333500052 17.09657974587371 14.739403925701923
Zr 15.79643013454424 13.903064117857328 17.000334776775258
Zr 8.750233247085845 10.451380748766276 12.612954361565574
Zr 12.91504355065347 14.401271755661126 15.441501479467487
Zr 11.20440931329612 15.27035207518627 12.431988369344557
Zr 8.94678230963145 14.990676901817183 10.576627390808039
Zr 13.098937416339693 9.47822006041054 16.961989271231463
Zr 10.665635875164913 12.641425453943826 13.53020888901398
Zr 9.996003471271575 12.098430998163586 10.463474056608094
Zr 11.536164999205058 9.883195591695957 12.061450587128098
Zr 16.265827442658097 15.372074390179458 14.290731755019177
Zr 15.112212027530129 12.532882172770652 14.65997357932671
Zr 12.319217813121407 18.158086294979263 12.321922572640876
Zr 11.869506433055466 14.223717950739319 9.552445438623536
Zr 12.681631812460562 8.09529036505087 14.191969955832164
Zr 15.247365502298004 8.668801774908642 15.080556972123446
Zr 15.219997065209174 17.686654787957874 12.516341951462191
Zr 14.020787473750266 14.889100851367436 12.442636085819943
Zr 16.017292103695866 10.776135706675113 16.853208980390313
Zr 13.17405252744471 12.091502942774213 11.479271105761045
Zr 18.030624171755584 12.886684256884882 15.000951769609745
Zr 13.754645221443315 16.630255717603344 10.030480087559084
Zr 13.024955533588452 10.930217858024742 14.476325317112481
Zr 17.265367122519255 10.26293797880085 13.818173547792055
Zr 16.610939084713205 15.720623533506245 10.986048105176573
Zr 14.977709203327784 13.722319770489245 9.737301435626222
Zr 18.80379358741646 14.65526166664785 12.67317623934768
Zr 16.283564098401023 12.893988834743334 12.323717568638173
Zr 19.144029505600862 11.835500721280525 12.299149959516695
Zr 14.730888055037845 9.500918401772799 12.3400484553178
Zr 18.144497509610442 13.373408516800506 10.105005207908805
Zr 16.888651903211212 10.752024791910788 10.65811101403999
