43
Energy = -317.23979579 eV
Zr 15.393418822965145 16.29897873566069 14.056266315473518
Zr 13.989148629739129 15.196920853667136 16.194740296098058
Zr 15.789071246484248 13.358098934345065 14.682561339039415
Zr 17.019165861442207 14.750884582305329 12.155865785933978
Zr 16.874267112635444 11.483182603780545 12.676305861703863
Zr 15.524968061707845 10.501880416137585 15.26254023349097
Zr 12.559743260271938 17.123268211429814 14.21822339856549
Zr 14.411554824761104 16.499901101599008 11.42062465055803
Zr 13.02314659133243 12.257589540218436 15.76320253720176
Zr 17.359342125097363 12.676935382957438 9.970434741601764
Zr 15.940031442828683 15.11717530675539 9.336878817205022
Zr 12.968536564792087 14.440884927180324 13.455783519349536
Zr 11.31039447857337 14.842880246269253 15.962638922466748
Zr 14.748172532185341 13.255574388459802 11.243252084612452
Zr 15.040026798736177 8.62288649511184 13.088683754175497
Zr 13.854196099208163 11.341855008717747 13.049620937731168
Zr 13.085333754702079 8.883013339523188 15.442128164182334
Zr 15.469957081174709 10.419126663687305 10.357995751178068
Zr 9.930649042326177 15.769456126266482 13.694688857431197
Zr 11.403960958008874 16.705977423399418 11.237248902503634
Zr 12.971919229607826 14.726040990993297 9.269383229212277
Zr 14.940122156931247 12.552388889103502 8.316343656179987
Zr 10.922412046409915 13.616075964458908 11.218111690918533
Zr 10.615274125783616 10.44913171005061 15.954648026668233
Zr 12.716334201575245 11.258586829831144 10.152613365431938
Zr 10.442963863513151 12.648184724721894 14.082533913850481
Zr 13.158911892970208 8.301398057466896 10.745329970070221
Zr 12.696421971940827 6.968167396661269 13.29115235887008
Zr 10.147933827753945 15.264767676402098 8.861191010932295
Zr 8.64186503263846 15.691772232114603 11.199886106417736
Zr 11.404418988714157 9.7005891507078 13.02505103457558
Zr 10.11677332729266 7.8257672974244175 14.601183673746506
Zr 10.805900163942402 12.266515068895197 8.460671821217082
Zr 8.057852260582285 13.099914834003066 12.609865374234731
Zr 10.498185254316468 7.1960966484794415 11.373227369187193
Zr 9.601523146971882 10.740242473452016 11.075785524064946
Zr 8.337958432549867 10.448920088905407 14.158139695731823
Zr 10.916866882001912 9.02231710469079 8.863619654614817
Zr 8.218446712261626 13.133840112178778 9.783931154293024
Zr 8.022925259546863 8.236866636289532 12.572298326456364
Zr 8.350856458251544 10.56765905992085 8.364939598890672
Zr 6.795324894665731 10.5533938440776 11.021715694001077
Zr 8.245041165061865 8.224207541772422 9.833200416525235
