40
Energy = -293.60758315 eV
Zr 9.716010894220965 9.754946019097737 14.56716916238346
Zr 12.087567882085011 12.345820676985392 16.55639550565666
Zr 13.598525598076845 9.814731376419564 15.88460710373675
Zr 8.704718126322739 7.920344450486083 12.733479690437976
Zr 9.332600294888138 12.78722581863282 14.02204718724214
Zr 14.974686346349856 12.007441464404083 17.42899471528277
Zr 11.80705946746019 8.311246325237567 12.535754111584696
Zr 9.915584278744854 7.6143785777443584 10.07390636349343
Zr 7.326618496414637 10.7163978907729 12.855434584019203
Zr 11.909256559762094 11.20916600517476 13.77054174459216
Zr 7.446633439038347 9.00562047062063 10.409233792389324
Zr 12.06207718258514 14.682879469800946 14.582287694067448
Zr 14.988541921917172 9.62010430656367 13.243757646895203
Zr 7.002575332499458 13.600702698216516 12.383971680536993
Zr 14.126342296308051 14.5588234767274 16.60982270129933
Zr 16.48595085898265 10.542057670488147 15.536219550338885
Zr 16.802302778358417 13.58060269890555 15.444707477531548
Zr 10.0565282754908 10.21241392367271 11.462923885198586
Zr 14.31831176852426 12.405726474364116 14.586591410119636
Zr 12.094865026645122 9.166911902085788 9.281825870320453
Zr 9.38171808343154 12.80663296727274 10.870925345143874
Zr 13.126546252701832 10.87654852743891 11.165855568899483
Zr 9.417463287321835 15.387103230992615 12.261338344103699
Zr 6.883447595940277 11.819873025516447 9.849437912106385
Zr 9.27765442929862 10.231226507044928 8.45108266643791
Zr 17.325721786713626 11.676994169791001 12.958673405380395
Zr 7.616464036266592 14.836754720902425 9.880802746245433
Zr 11.848132877649945 13.602500787018828 11.902123739589848
Zr 14.90193465059356 15.708291026095072 14.031688953174628
Zr 16.0171778037442 10.476193233200673 10.62406241109556
Zr 14.786269162138842 13.239931653742236 11.916770149500604
Zr 12.884124539293133 16.20578631447562 11.72896572442652
Zr 17.357805241098696 14.573900480720727 12.751280150452446
Zr 8.931415645052525 13.167665508800413 7.990366775628695
Zr 10.662461650319111 15.146696923622422 9.52972501223877
Zr 14.611016988987494 11.76780792395093 8.744346581300436
Zr 11.633121188034176 12.206912049002074 8.778873596881382
Zr 16.84017625796298 13.36202477208667 10.017516285161303
Zr 15.643290261925499 15.971714783684105 11.068139398712756
Zr 13.829042850334755 14.544240984269242 9.279378871236945
