45
Energy = -330.24938687 eV
Zr 15.9055733117751 17.08783430034272 14.56721045666116
Zr 16.975578120637508 12.505837782374426 15.302157360973663
Zr 17.23801272163055 14.867979863693224 14.004354486821331
Zr 15.805486021694948 14.784669837405925 16.64050410578216
Zr 13.52675561139743 17.608066724739153 13.344532049874633
Zr 15.494336186274165 15.829340619038948 11.714756427247835
Zr 16.096605793296145 12.587936967692572 12.570240435819935
Zr 15.800048924121567 12.399434631319822 9.876762084906028
Zr 13.520270470252695 16.780536577949075 16.340878240047775
Zr 16.003362070479113 10.011375979544761 14.631979073815
Zr 15.04683782905911 11.712421057968227 17.295443459714544
Zr 12.605733059226177 16.579516766678214 10.904349480583143
Zr 13.58063380065108 11.82337226232605 14.73861485069217
Zr 16.024732810163783 9.629547784081149 11.527526542077759
Zr 14.039620301120447 14.717626456579284 14.093563979901498
Zr 13.121041086332463 13.979861702247707 17.379679136421455
Zr 11.106760626931576 17.18541731514685 14.687611224509672
Zr 14.041120314416892 15.238018346640544 8.972326500035887
Zr 13.564609410094375 12.675114819746229 8.237806816360154
Zr 10.81286784711467 16.003824347766866 17.299967586302184
Zr 13.772200640994525 9.233419175764086 16.3039107400952
Zr 14.443274176156976 9.829866319951721 8.769859547115795
Zr 13.255690017385982 13.635895548803369 11.34338451212187
Zr 13.551611969804723 10.846695756584099 11.5769660962952
Zr 13.74860010181413 8.472416157860387 13.483883933978053
Zr 13.711916062867209 7.939081161193287 10.726864842766178
Zr 11.19001015889472 13.938771407140951 15.233313873318277
Zr 11.988636838745425 11.23725399246696 17.22777056610043
Zr 12.422707001119965 10.370122528043069 6.835268312157791
Zr 8.84127243399525 15.675413448241871 15.334166111125313
Zr 10.954775003459275 11.997556167481056 12.753678917356176
Zr 11.191590811364842 9.504352767070618 14.821262691724783
Zr 10.391506167879186 15.124072777975075 12.5729078152259
Zr 10.913445613904768 12.802220128974888 6.86592265361318
Zr 11.223909530134673 11.408839945484944 9.594819357500423
Zr 11.015135760470628 14.347476799102042 9.536222930581319
Zr 11.02314170431567 8.683134031864052 11.918170148528006
Zr 11.40692488430752 8.477312265836995 9.01377740948092
Zr 8.397970344804431 13.254856382416122 13.872451982887787
Zr 9.461115948279659 11.5614903689547 15.75760052677395
Zr 8.520640134062354 12.751874995585668 11.124689307614135
Zr 8.673251386304596 10.288022454116282 13.106274249105423
Zr 9.677935975434837 10.1112997706727 7.285670955502789
Zr 8.614366050318615 12.450295470929666 8.437746421834813
Zr 8.831849939018335 9.814834342719369 10.098302858386694
