40
Energy = -290.51747234 eV
Zr 13.635054955282229 9.245852445782106 18.281132489602275
Zr 15.311602776221356 10.337603657997875 15.724496295201359
Zr 13.861522149639217 11.88275944374858 17.56805922412713
Zr 12.443806191722734 9.102850362073676 15.80687362885594
Zr 16.96477947574854 10.491797248387725 12.95935794896997
Zr 11.253957196989905 10.867156848640647 17.764341362975596
Zr 17.40975153421378 11.062420410249615 10.054611447617528
Zr 15.594974409124971 13.181654747678325 14.032969222171708
Zr 14.153244400269422 9.317051824475127 13.227173532232374
Zr 14.618836333371224 14.372879611153072 16.21535181312194
Zr 17.574342389160762 13.145065658783535 11.955373686620447
Zr 12.867884810460598 11.858103888553364 14.650439830237334
Zr 15.719149550043142 8.991011277865624 10.843497783759165
Zr 14.931542643799558 16.648729508237363 14.216743771767137
Zr 11.711636530716822 13.754864105989425 16.71130304381988
Zr 12.96216414852159 16.61948193362538 16.355495917994652
Zr 11.115988288411137 9.214365089765467 12.891828449720007
Zr 14.708422966608024 11.867677653495356 11.419609388657431
Zr 10.065137316275854 10.710264713415995 15.125681683833385
Zr 16.2871319421031 13.540414300691003 9.230345184277951
Zr 13.392015896457032 14.276815252882066 10.387901077396576
Zr 10.36751464911266 16.176292588828428 15.706290025829322
Zr 12.741189690133632 14.774447600255197 13.708733769412328
Zr 15.825566655427723 15.302050211437964 11.753723178578499
Zr 12.029781540916293 17.743691604311646 13.856403218487188
Zr 8.717051194523608 11.052182084110916 12.503729407159717
Zr 14.86247354390807 10.90017996163013 8.574256123897014
Zr 9.80357708227016 13.618949386110069 14.312366432933173
Zr 11.380880096774723 12.13460591436303 11.836961878502942
Zr 13.43148270658366 17.017460229520612 11.591818954654476
Zr 12.848845819664437 9.335786057302027 10.455010367625391
Zr 10.017923159347044 9.870773967960416 10.281256037545845
Zr 9.308807211337946 16.452125857316542 13.180759293776687
Zr 13.794872663194404 13.458808365972462 7.686249839387296
Zr 9.056504012562106 12.592253952263302 9.754447004787105
Zr 10.924133451269642 15.178909799197472 11.282163821230995
Zr 11.847061795320137 11.531921103297131 8.707959199882502
Zr 8.128254849325957 13.891562080731164 12.154376168327714
Zr 11.10661878900399 14.343141723772545 8.474383635029307
Zr 8.640785312073907 15.610996215323393 9.994103940310676
