43
Energy = -316.47780679 eV
Zr 13.027814523665088 16.52045563427123 9.316446112823439
Zr 13.992708965394833 13.50622000963912 9.309028098150124
Zr 16.023475399631863 15.62878099473254 9.620481720309668
Zr 11.334256652489946 14.210547244368822 8.747758984481433
Zr 16.66626832290302 12.571815492963825 10.223721579425067
Zr 18.431115916491322 14.533272109827022 11.02659574406157
Zr 9.981556865259959 16.302138852136455 10.21699612107835
Zr 11.807555584799758 17.859069269181095 11.70397665468514
Zr 11.801999917620414 11.840421009984013 10.73089631261886
Zr 14.504365504138503 12.175222718766722 12.095672098730414
Zr 14.586547809723315 17.471243455340062 11.751750103064417
Zr 15.677413524096455 14.700415390609495 12.442779480066324
Zr 12.346416050933264 14.800948858729479 11.657288170567627
Zr 17.38530592176277 17.083247287108755 11.869766856267129
Zr 9.166872544606335 10.707987136184675 11.417208191835217
Zr 17.692353540185447 12.433122355983206 13.061142935018493
Zr 13.907292193131363 9.968309122806769 10.432135364015801
Zr 16.180556330156342 9.768024120935353 12.3969411873184
Zr 9.39738219156408 13.457191315176914 10.755787256116697
Zr 18.41728243196818 15.26581119570496 13.766505205996667
Zr 10.030440883052027 16.399998181147527 13.331270748944682
Zr 16.732226736879262 14.051135398656633 15.651461551683212
Zr 15.977618259097321 16.767765645111954 14.61021771574757
Zr 11.248458950186016 8.79627975182857 11.809214077890084
Zr 13.863574536249386 13.403441766868516 14.702963757118637
Zr 13.006869290708702 16.442678571733456 14.129294649968847
Zr 16.158822947017367 11.052496815757829 15.184599982866345
Zr 13.90728955284719 7.890416112608124 12.324499599602964
Zr 7.7810401749101885 15.041040302586595 12.25011643865674
Zr 10.646772831596639 12.80843622262678 13.558391959609061
Zr 12.93510853304673 10.486493824205128 13.79606135556784
Zr 7.691089340102238 12.141486273002396 13.398728045782716
Zr 15.0767090552354 8.42476163604446 14.77779947595657
Zr 14.16618078534399 15.316167001812268 16.768470761351963
Zr 14.994963550088814 12.600166677183264 17.41987909491606
Zr 9.497150093728568 9.677163567906504 14.065324176375508
Zr 11.117086773816059 14.917128400966863 15.766759391257022
Zr 12.084364172108383 7.915027499044345 14.66177950918962
Zr 8.395334637139054 14.567317468998521 14.925505960442251
Zr 12.116466081690287 12.594613545898245 17.064650980639446
Zr 13.752238078049853 10.027295979430987 16.75647825307876
Zr 9.158041179493283 12.043108460123221 15.980234110478898
Zr 11.023144611935892 10.016835514528633 16.421550981402348
