46
Energy = -340.91615584 eV
Zr 11.999432685911522 8.463204805555227 17.042427671215922
Zr 15.011335455195319 8.745565890684828 16.700733932204802
Zr 13.125872796905146 10.6009925753721 18.347965003111785
Zr 13.105084310256762 7.513235952408038 14.568213386390381
Zr 10.434341511998031 9.165726016392764 14.74159405354512
Zr 10.594532873599135 11.159237307665132 16.752847026147023
Zr 15.34406303697933 11.755133778378832 17.254848522144922
Zr 13.296869652003265 10.56966459671526 15.31974615154286
Zr 15.96879344718506 7.972827520056713 13.772063626915946
Zr 16.71219810228666 10.695561955583372 14.970859053969408
Zr 12.729842813170954 13.189083910634013 16.857005165185182
Zr 13.77487111622136 7.40883080644791 11.670938127908196
Zr 11.68836610612113 9.27660086633842 12.269573394265514
Zr 8.92951538611401 10.34344336095813 11.826477258411233
Zr 8.286191730051033 12.22545933021802 14.124335312935857
Zr 11.302995988889766 12.02259366913842 13.964733169810037
Zr 14.599538976623768 10.229940128500493 12.541734495824668
Zr 9.728941827697131 14.197181943923418 15.356800363453806
Zr 14.986135738059135 13.339152129448642 14.887937196729773
Zr 17.582417844551582 10.111782868151971 12.290106737492986
Zr 16.116130448891912 8.451918524874777 10.678963203989827
Zr 10.455940116732 9.242264870810457 9.599296310684169
Zr 7.363451952669024 12.652554218713709 11.457602105570912
Zr 7.714941427543621 15.189717563271268 12.909390787290107
Zr 12.509516664074312 15.022545299225724 14.3679319527919
Zr 13.48713799329724 9.780717474525744 9.70795213018292
Zr 15.944386112351456 11.461232415303314 10.070696811459811
Zr 10.124194052239043 13.99339102446173 12.27341555326399
Zr 8.830357059700853 11.733645114327075 9.074409176640124
Zr 13.716920381620627 12.901137720483518 11.98648350783729
Zr 16.620878009617357 12.828253792811596 12.588289032465834
Zr 11.510447683584019 11.050658588864172 7.678461545749649
Zr 11.41261528644952 11.884804550649546 10.499842236438177
Zr 10.066998325823485 16.61015767503702 14.079529107641406
Zr 12.264961852906985 15.305637045869917 10.643644885325568
Zr 14.755799469064792 15.657360556578933 12.662253455267571
Zr 8.451069500895656 14.76379033109457 9.813250019814665
Zr 9.53350620951232 17.188309286126866 11.286851218357995
Zr 12.286353601321403 17.621896576039543 12.60494917351698
Zr 13.630544653155603 12.899233506515097 8.370967469004034
Zr 15.228574215735618 14.614740857152121 9.995819849599004
Zr 10.860177257860588 13.874741626804235 7.931207791488633
Zr 10.258270288437663 16.56716336212208 8.484756793936093
Zr 11.917452924270501 18.25027265031357 9.790370140738274
Zr 13.142644444335767 16.062094202932133 8.007972213572828
Zr 14.471192720212821 17.39462073091494 10.415293602423924
