43
Energy = -316.83754827 eV
Zr 16.02216383620734 13.32526929634601 10.856621266824622
Zr 15.872003803493246 15.76484802413384 13.340455219276397
Zr 16.462978276086833 10.996659189124994 9.11338037656242
Zr 17.3541311211343 10.488979556442166 11.831275950247322
Zr 14.225884395204337 15.644896941327515 10.59057549607908
Zr 17.53142502705652 13.091587212637355 13.215029472145126
Zr 14.11493962026643 12.812969597366658 8.604870209585181
Zr 16.34009547364008 13.711031973811364 15.5293286365423
Zr 12.58114807087788 16.35425511876096 13.149828720853984
Zr 14.096320311129588 13.76788472816414 13.313742428119234
Zr 14.192512765468765 9.783193055341792 8.007610991087134
Zr 15.58286152461701 8.381575020991868 10.364433234561481
Zr 13.907415207100298 10.693775703404851 10.782871670967838
Zr 13.955346611339555 15.298260912988209 15.766939227825004
Zr 11.34920661980341 16.227547885496904 10.390026688714556
Zr 16.005837180733508 8.425232120937823 13.350277485767636
Zr 12.41209115547903 13.364131819552744 11.003594598954278
Zr 16.87460743973406 10.7043380209253 15.167318301561501
Zr 14.951239030841139 11.16899090110288 13.4663036481285
Zr 10.983250361041826 14.038661006138591 8.544695101121192
Zr 11.503966029527364 11.01258068762954 8.845995776125198
Zr 14.179065767226522 12.069828312940954 16.357073967476378
Zr 9.708412804035072 17.226715804916903 12.346901607758397
Zr 12.119238558645232 11.125910467944676 13.31029801559302
Zr 12.623403425000166 8.164484299140273 9.698848851883966
Zr 8.791754171332066 12.473933327843662 8.110203970164777
Zr 10.176851132928807 14.320881456776618 12.865038917876783
Zr 11.623411692934587 13.60586519202664 15.263172877963083
Zr 13.920160474860854 9.107979647690373 15.40670136836372
Zr 9.647026175779525 12.01396338289485 10.975392152374948
Zr 8.504667994458119 14.817873538709943 10.39167488270713
Zr 10.07856405396536 16.250538947583586 15.067334235661784
Zr 13.259059734173338 7.996399498301278 12.625435282857518
Zr 10.598556723329786 9.221155574990313 11.55403913102905
Zr 6.793682702954719 12.115775708601104 10.057724039498503
Zr 11.528107779165286 10.795529794984118 16.24843193133101
Zr 9.409415451732704 11.22561626986203 14.13772975330692
Zr 7.604356770818101 15.760429375755775 13.430447859824076
Zr 8.613679963736388 9.856561584871791 9.314301310872757
Zr 11.01876860988668 8.625368769661593 14.476857487724637
Zr 8.561380221738135 13.792174707964197 15.367081448304447
Zr 7.176263675315843 13.015444545894821 12.754759849530103
Zr 7.609777952393679 10.064359675833112 12.018672336072182
