42
Energy = -309.49854726 eV
Zr 15.647976162776649 12.540364380253699 9.913699572472618
Zr 14.631862670563978 15.358158239547212 10.669917376027772
Zr 17.16462302878087 10.918689000754656 11.896299154984614
Zr 15.761932131444826 13.475758845912349 12.696306789389693
Zr 15.719990946633414 9.51491821894977 9.570579984593246
Zr 14.387245620353147 11.36876353716189 7.60601286537791
Zr 13.294587124459435 13.907437300150027 8.330758500189187
Zr 11.850710104933643 15.902555919906428 10.177430757635491
Zr 14.989711661125146 13.832241068918638 15.322763147152857
Zr 15.664727334121505 8.394724444378323 12.802707483657025
Zr 14.281569339104067 10.596049855622551 12.11574079813557
Zr 13.01711408650863 15.16055650342668 13.487259125699618
Zr 12.82839519311557 13.165662734344822 11.261803892215589
Zr 12.870438513800917 8.81040701611701 7.785825938932725
Zr 11.420254169523583 11.709191636069697 7.354805494234895
Zr 16.01890000793663 10.992715271533713 14.597654581987978
Zr 10.582738236779123 14.585681304232521 7.9700978762933055
Zr 14.061614376449745 7.507731410604981 10.424179544906792
Zr 8.886770076769187 15.418173343726757 10.24575487279825
Zr 10.61301269947748 16.745539664371265 12.583959136336171
Zr 12.657702839472515 10.355928860150993 9.914363726665073
Zr 12.275512301491352 13.693220019216142 16.641198639603996
Zr 8.006568884916598 15.885944902598442 12.988397355904485
Zr 11.351630677729737 7.471984942387479 10.019618888281265
Zr 10.131484586215755 12.525799883177296 10.188179872597548
Zr 14.357637276545509 11.591098859240612 16.894728062495115
Zr 9.97205838585076 15.365670120023417 15.201777803907484
Zr 10.171262181792482 13.744325880094577 12.88407580248507
Zr 12.72013444696139 12.064715223648314 14.35254729719424
Zr 9.814125579653457 9.666127623474347 8.79927460248032
Zr 11.00668528439795 10.702717897549837 12.284974449129358
Zr 8.351354512246012 12.590739866998092 8.379078156177696
Zr 12.386812527803208 7.946808598439656 12.755104915512932
Zr 13.612800809061179 9.195071017766777 15.170356442791713
Zr 11.764635762008249 10.740351797157958 16.98234697589654
Zr 7.257072370923559 13.308263735621862 11.502007019607897
Zr 9.704869275765434 12.291569668653489 15.723512949841998
Zr 7.534876821835683 13.71190093845112 14.506771164832596
Zr 7.682157337803692 10.588502477276366 10.582604984214411
Zr 9.40024471213065 8.569734449001736 11.671111910908076
Zr 10.50437040065185 9.417175376212334 14.795484783635123
Zr 8.130989253424362 11.07663810719475 13.396924631027492
