45
Energy = -332.28785977 eV
Zr 8.434044947837835 13.600849602832753 10.029089730247923
Zr 10.694442012660604 14.128216501171664 8.62909555462652
Zr 9.550046755904175 16.614353122074597 10.027431776405452
Zr 10.966133300466643 8.255401835131579 9.616536883952943
Zr 10.868640370369546 11.173292487138843 9.076081842295592
Zr 12.615884807844942 15.895518890633053 9.291514793293212
Zr 7.805406300194277 15.418754738441583 12.080231546955542
Zr 13.193563515388533 9.13640371107655 7.960405959001306
Zr 9.084957710436239 9.81473303224414 11.109498010514404
Zr 13.198610946325637 12.540228805362188 7.865884978322999
Zr 7.528324213115854 12.755458617473645 12.989360197021705
Zr 11.138534219313694 15.194403280796108 11.823673806212868
Zr 9.574195365037083 17.3410501291021 13.244625497182389
Zr 13.63204072366604 7.526286423174759 10.649660279054693
Zr 11.92699924688729 17.960011384433788 11.413130661954785
Zr 10.284103410289063 12.349067364791658 11.886985283893896
Zr 15.701330890574617 10.979051748182535 7.618312122463138
Zr 13.031772948301771 13.208774600053834 10.825263854104973
Zr 11.005311203696836 7.418299503675983 12.450849652913314
Zr 11.918224323814744 9.942486828713356 11.97556683739648
Zr 7.799117912511821 15.195802683876236 15.014280948662913
Zr 15.905726013326946 8.538631476279917 9.002186076304248
Zr 9.501728171958614 10.25060869673567 13.98572430350305
Zr 14.127220053078128 16.007397032328882 11.759441314547038
Zr 8.165055169308893 12.257176827761754 15.73177519798489
Zr 10.30896805333985 13.993884827017403 14.400154619007612
Zr 14.203305642557913 10.6955618215647 10.1066625496261
Zr 17.235391553106865 10.978093708342275 10.23388570842462
Zr 11.620774976352694 8.789537280249371 15.115506523231991
Zr 12.517256215554783 16.89076860377044 14.122455218021443
Zr 13.714775708801877 14.101336405757799 13.740840170615876
Zr 15.562670234372385 13.379858832429221 9.262103413835314
Zr 16.373919165534186 8.512241118483612 11.829551783163149
Zr 14.674372664600796 10.797116928108128 12.976877891262244
Zr 10.43302509945045 16.53446025699945 15.95280918602418
Zr 10.83022622320714 11.5565993340563 16.729714682944934
Zr 9.628675198803771 14.182438840661995 17.246797999292834
Zr 13.944904980522194 7.811758584688618 13.675914290380922
Zr 12.2857181670665 11.724985641656518 14.453315514229784
Zr 16.15189208423986 13.336335463988515 12.070155596209744
Zr 17.64995760498324 11.051981668224357 13.123638225229621
Zr 12.541929709986249 14.2216344079461 16.41007853579012
Zr 14.027039624123123 9.926133954034984 16.004130609192195
Zr 15.809026009774682 12.25597121217579 15.116277987043235
Zr 16.436761868544497 9.233691277859835 14.794591026053963
