45
Energy = -329.38819843 eV
Zr 15.294685021310798 9.53555826559876 14.581166239760034
Zr 14.275659609023014 7.479923997793049 12.806006370803066
Zr 17.253426519083437 11.248129154975722 12.877113143788605
Zr 16.361491838458264 8.799994218612335 11.687043962440054
Zr 16.012316799769607 12.096882786413033 15.36082160607029
Zr 13.86454521462606 8.213804073434899 10.023036058550291
Zr 12.417261276722655 8.830459323488592 14.72243096915148
Zr 11.614791294800726 7.568895743627562 11.94668203392706
Zr 13.510825716503302 11.08306400312198 16.583094566569503
Zr 14.320490260298609 14.229596913361119 15.53077785881989
Zr 13.824028615843964 10.414281878230813 11.8525856032789
Zr 17.368186311315675 14.212492839705881 13.828658918506205
Zr 16.07904638151013 11.124157096420218 9.984410493422718
Zr 11.071570259584504 8.445478443493752 9.052468754995488
Zr 15.076288931227957 16.277130777151513 13.788181892637779
Zr 17.583207256884858 13.294832379204145 10.894574993559894
Zr 10.49125776852594 10.989207780165955 16.105782953769506
Zr 13.234146790217293 10.962743000394346 8.8501190437282
Zr 9.707389832530694 9.260040918563824 13.792332429840616
Zr 16.69519196175844 15.784209713409375 11.408585701617513
Zr 12.771643456346963 11.812312027597853 14.00133573629674
Zr 10.760931089717706 10.498119922472341 11.022832215539513
Zr 8.991550842874817 8.095003076684328 11.129704957901945
Zr 11.487674343160252 13.748363434354012 15.918631375537124
Zr 14.046512013591206 16.507404774687007 11.201689636568052
Zr 10.604820147092303 11.421491040049556 7.913827025862979
Zr 14.889008469797847 14.102194577486895 9.436281895014734
Zr 12.107012790373153 13.145022958709266 10.497310775218267
Zr 9.935493196974129 12.589431058492478 13.296442849871104
Zr 12.156548666284534 16.682104102226663 15.434886459206227
Zr 14.956182031994064 13.44376605498026 12.457654077575567
Zr 7.739630631874782 11.086916068839876 14.867021518317863
Zr 12.632760602811528 13.580833550995472 7.505322877277148
Zr 12.316881749001157 14.985967550887452 13.086823370532137
Zr 7.654515065566883 10.638948339996793 12.04408508555243
Zr 10.129516588462963 16.006001234649105 17.149323696328164
Zr 8.039987318861085 12.509322144201173 7.422982452144742
Zr 8.394359283642281 10.036702816596062 9.123307913170413
Zr 12.205951533911048 15.833802493367838 9.317540928705155
Zr 9.619802486624105 15.597285600811245 14.304172455856213
Zr 9.818132333910624 15.06427368267078 11.269324504195458
Zr 8.534124365721652 12.782323116924301 10.25028416014283
Zr 8.563215931768031 13.505297648246234 15.955524507408187
Zr 9.934395108830593 14.463694743291754 8.230382334145304
Zr 7.303389032812854 13.515996206202848 13.17077325925597
