44
Energy = -324.65394128 eV
Zr 15.052225815976435 10.960531775488535 9.133511822358455
Zr 14.662289550107525 12.914689348398214 7.1538375243149925
Zr 10.920873630753409 8.402886279788051 9.659281521563562
Zr 12.156905810244771 14.010757000901084 6.93802200212492
Zr 13.62555616258189 8.58870132148756 9.694467464500336
Zr 12.179501643724382 11.013268253489374 7.956972020006159
Zr 16.46143317255087 13.65765755736737 9.409951949489072
Zr 17.229707356685235 11.079201602295496 10.889098973265549
Zr 9.319667466116892 10.543152268479005 9.44983755121948
Zr 12.29832604539059 8.251542006708357 12.374726435618415
Zr 14.28862462587384 9.366791741322164 14.928572883039593
Zr 16.763056034614074 11.215467256864951 13.851244404424865
Zr 14.32522298230583 15.75217722496837 8.312051086731858
Zr 13.212751683868095 13.622872721928715 9.699906835538622
Zr 10.122695734323658 13.22313428775063 8.913314142996196
Zr 9.656273015063947 9.423759313529281 12.243735274023445
Zr 17.81696355150718 13.547089638667877 12.043467482143488
Zr 12.011710822185137 10.95850102435209 10.83042564613314
Zr 11.419818909608674 15.98579416468718 8.715004043935398
Zr 14.708066455233364 9.890383709879734 12.142583232378636
Zr 15.611762329381797 15.655460067001744 11.273338285239912
Zr 14.95896529971699 12.872312086750098 12.058566322069769
Zr 11.82309688091709 10.993204591448032 13.792543918149427
Zr 16.571157524523333 14.010224511057965 14.578085050482963
Zr 12.870668430458359 16.510749361255975 11.152294534767856
Zr 11.871863514069148 13.797706002113655 12.49645299304978
Zr 15.766393056685716 11.801752481073754 16.870537628395997
Zr 9.907770903256747 15.314627098788145 11.010724480503843
Zr 10.795061872890676 9.066542734493531 15.334335710519035
Zr 9.063047375237794 12.35596061838508 11.632461192293878
Zr 14.0316878709967 12.536248407994893 14.953141744056408
Zr 13.005046534631328 10.361340771548619 17.042130672753487
Zr 13.998705381039743 15.603748755199778 14.042044837763791
Zr 8.836530726725899 11.417924189928666 14.56017035233782
Zr 15.04492653290386 14.737665802447015 16.793043198058527
Zr 11.288998708578621 13.697451991288482 15.497427702809143
Zr 8.882133837313784 14.437405984361915 13.77298989487962
Zr 11.192216144023284 16.339007926145754 13.863189548642476
Zr 10.339382205310077 11.355979183102981 17.247009013800948
Zr 13.055690999265307 13.048988487682886 18.09702514841966
Zr 12.476918468111295 15.944914905975903 16.931627812668665
Zr 8.404356644213623 13.432711823798435 16.535447909954417
Zr 9.553792255333724 16.01803841941409 16.227166928543603
Zr 10.455241588529965 14.26140831879557 18.333651625347557
