40
Energy = -292.50560246 eV
Zr 7.162016153424769 11.703669084202849 11.545249351304403
Zr 9.035162398470948 11.46728655252549 13.678125140941829
Zr 8.935974569423117 14.088093378044524 12.031018987489198
Zr 10.412255976325895 11.276813761004707 16.272446180401605
Zr 10.38881336441953 13.88397254461906 14.957095615487578
Zr 10.570357371993495 16.42394776736374 13.405089210081146
Zr 7.697277940597752 10.247472701125023 9.01339668038278
Zr 7.751003453220437 13.28705849678747 9.337406242749838
Zr 12.685612833640963 13.04916590931923 16.76764481747949
Zr 10.652809558877735 14.149129748233465 9.127756178132595
Zr 12.747209263325528 15.808698880678076 15.113616845839145
Zr 10.709631815516866 16.384531234863264 10.692742260301687
Zr 8.363657736218833 9.16715837769464 11.90827987044766
Zr 9.678936085579133 8.16885407688882 9.680374051583112
Zr 10.532589744763321 8.905303660806883 14.7449085620576
Zr 13.077699166636295 10.094703346999772 16.271839929281693
Zr 10.106143630663997 11.31493303139997 10.397878430122546
Zr 12.020582045528496 11.147856529700011 13.635855442534764
Zr 11.8002604330171 13.983500015048838 12.082687363517438
Zr 14.91525501955663 14.826434542330842 16.737547677145933
Zr 9.391537621267842 12.25827498773394 7.397285614168543
Zr 13.341807072899332 8.338430551159554 14.144897733530856
Zr 11.423953774949656 8.565055111154763 11.963604412257736
Zr 10.330675982804467 9.785260478895003 7.5243670014119415
Zr 14.007175362590488 13.302930637402948 14.057866263059328
Zr 15.606454519438355 12.039365457026962 16.598057106576377
Zr 13.349231480662125 16.599465916256335 12.262587883615117
Zr 13.43924675511034 11.801211843282228 11.011240328646618
Zr 15.315328109495223 10.516483499656267 14.012928894977625
Zr 12.43820749548251 12.046125161800088 8.202467043423908
Zr 13.349831555263687 15.117429895013206 9.675815280734584
Zr 17.55049974466039 14.417450556458366 16.28967363724085
Zr 15.710127780936858 15.956951011346812 14.262799757525217
Zr 14.603167423626177 9.03012921462056 11.561382008189105
Zr 12.455983303091143 9.244568275628994 9.387953895028614
Zr 16.931283871910516 13.153516033357635 14.089326176650532
Zr 15.493053978847334 14.437934224009881 11.605885777027025
Zr 15.404398470907497 13.111863487962376 9.089870354273684
Zr 16.371810585926617 11.462165475503008 11.35792782974194
Zr 15.033382700795931 10.398370593191697 8.923202129376252
