49
Energy = -361.96383458 eV
Zr 13.983106588165182 10.760171234406245 17.793615207143898
Zr 13.682300477368889 14.984782105720198 15.215059318006048
Zr 16.544812383053415 14.518290573975507 14.214813262608342
Zr 15.297952315190411 12.531961262335251 15.857222013093656
Zr 12.241936882582062 12.72316688673881 16.749967888554785
Zr 16.03324599182331 9.759763903404073 15.73729535671223
Zr 13.856537505337169 8.177239563242976 17.101819504580597
Zr 16.900604274158674 11.739368730051194 13.196904567437787
Zr 12.537142155629654 17.41938198825914 14.15694833455152
Zr 10.741374894663164 15.265499730459958 15.308701686148765
Zr 11.207916246421666 9.88526981430045 16.84186676334353
Zr 14.76634441226614 16.244691505435412 12.662737203729964
Zr 16.76488221193007 14.22295740693429 11.326178896791214
Zr 13.306567667804723 10.150555567462542 14.828139644231037
Zr 11.638546022891973 12.578949394025907 13.812431053544156
Zr 14.395695436385521 13.009864965731639 12.84801677523756
Zr 14.490910484668152 9.861455858173496 12.165039601895634
Zr 14.83818270996565 7.512654420538833 14.321965707486571
Zr 9.242544223660653 12.093308955958474 15.299206310735853
Zr 9.903760836981274 17.28778309996579 13.256516057091012
Zr 12.094039528361073 17.702327523783516 11.219463539920595
Zr 11.881888756311954 7.426639522465297 15.377390931200537
Zr 11.861982960961948 15.141638077752832 12.322533652934695
Zr 8.773248909165671 14.588693563540131 13.264098890489706
Zr 14.679996579525152 16.160317065179537 9.80927037908964
Zr 16.310874716323067 11.491152114828429 10.154016245025954
Zr 13.775929486580809 13.230311021057863 9.958691724502586
Zr 11.734997009391794 15.68014314073596 8.959034492864587
Zr 14.9446271515647 7.475878799028012 10.938572832987319
Zr 12.565910253289541 7.227321665301382 12.708891018364366
Zr 9.300705273276884 16.222651167710957 10.630722640556026
Zr 10.469021644746396 13.399445268848567 10.441693317453101
Zr 6.657864561798143 12.496630873581578 13.55288449569498
Zr 11.822446343808314 10.862549989740433 11.16009992943392
Zr 16.391917862146546 14.03817847761902 8.541198685660078
Zr 7.689795645214327 9.75388967088939 13.753017878976669
Zr 13.891653800277204 9.973422686900179 9.07275289196288
Zr 9.142316090956138 11.753621537619221 12.306190432968387
Zr 7.306312948196227 13.680963827917962 10.69910011335616
Zr 12.129832602405589 8.000700400090636 10.126162334239483
Zr 10.605955231359383 9.405181128110101 13.570688197857308
Zr 13.903866137131871 14.733006128812168 7.325266352818906
Zr 11.741439473669807 12.630061877920273 7.831492877366678
Zr 9.101394149230577 14.326036730950454 8.194555554128565
Zr 14.851524531132263 12.026371837108472 7.389740364223758
Zr 6.657949987631886 10.748820032292102 11.173680076584736
Zr 10.836393917939805 9.901569365151255 8.46523770369799
Zr 8.525657517768023 11.473120532390206 9.036574353547635
Zr 9.17466010209629 9.03426940634859 10.92167240288304
