42
Energy = -309.39749317 eV
Zr 12.047324014621381 11.78694113151649 7.551701211886478
Zr 11.972455353293105 9.152868526480528 8.794514017727586
Zr 9.58670421477608 13.062847027443231 7.7620347545247546
Zr 11.809041766565242 14.957411221398598 7.173554220256667
Zr 9.45682616540301 10.576351406160832 9.002442505273088
Zr 14.299186716141936 13.575224998404998 8.106643016819888
Zr 14.350252798489926 10.992146609374192 9.508679972185801
Zr 10.155291049705841 8.541050420488366 11.132093280600042
Zr 9.242889540184589 15.550697980840013 8.676673188580047
Zr 16.20075533052707 9.02167352058244 11.109846151259784
Zr 17.04128006013939 11.83909605995612 10.994436468459956
Zr 11.749136624814419 14.217579431745097 10.008820842255657
Zr 13.279843884642414 8.598186610527254 11.298230695723776
Zr 11.705526718370368 11.261999005064746 10.875555740393775
Zr 13.974202098453484 16.134142430375256 9.06061040608113
Zr 8.812679554461509 13.2118192866558 10.66759578435781
Zr 11.452803696716845 17.172028748455816 9.328325296372558
Zr 7.821272703137467 10.357289855448737 11.690400214274879
Zr 14.914415506259498 14.000673279963072 10.954421641468684
Zr 17.342799799841128 10.234536969413044 13.431742699449662
Zr 15.015581651272703 8.407370795153854 13.942976203851563
Zr 9.008358913301917 8.519532836015939 13.794975471220678
Zr 9.626079567637422 16.21768869723049 11.363675062503582
Zr 14.607157262961227 11.02935109534225 12.454341870828346
Zr 11.831178821189171 8.580574395452343 13.736490584866615
Zr 10.090515489337985 11.385980406624203 13.408464043989307
Zr 7.517261425842608 13.046847842406473 13.11079162426555
Zr 13.05248068234954 13.551079383411691 13.100379686652087
Zr 12.937040135712612 11.152670519170702 14.69261701636954
Zr 12.691150819857462 16.275203231707675 11.96453625192042
Zr 15.100775772434 15.59586461884901 13.652840527742201
Zr 10.287466027265568 14.39312437614751 13.411461064389332
Zr 7.527772096907907 10.594319221175446 14.713229770788345
Zr 16.501235372250644 13.04976730864741 13.765815070645077
Zr 15.692048270530986 10.772950023696756 15.764749814181451
Zr 13.344820615269837 8.824115005517415 16.332239442029433
Zr 10.445608505626945 10.2354639298196 16.097054712828594
Zr 11.477045571068787 13.325601496161404 16.255261465579025
Zr 8.720861037926216 12.973526308646063 15.644789806585596
Zr 14.533809495264611 13.643333575006999 15.958719435685099
Zr 12.544878560002637 15.75372142135326 14.98894207414698
Zr 13.177043446686794 11.356219494918863 17.53298520504333
