40
Energy = -294.59512525 eV
Zr 15.451710302661514 10.774560068614106 8.449546855790336
Zr 13.112148794901183 12.090553849768886 7.077374068016296
Zr 12.997906501532766 9.290912926468312 8.665774644392444
Zr 15.486185961605882 13.491315160136764 8.305488515492227
Zr 14.93009828100937 9.455237412828055 10.990869607680816
Zr 16.130278078979792 12.221669032766522 11.066590653894682
Zr 12.656381307508044 7.077780028519083 10.980867659991013
Zr 10.400673955251085 10.831127733363079 8.451037805099826
Zr 13.210173455460154 12.216689647409789 9.875738083642586
Zr 10.467840168938245 7.996772067526363 9.117803760777134
Zr 15.62391623131284 10.773957469320681 13.93557153571352
Zr 14.057254422510592 8.325760865452594 13.368742216768148
Zr 15.366288449765646 15.05119405260046 10.687436032849924
Zr 13.031703769247697 15.008781880514842 8.487935696166463
Zr 11.517598782276288 9.59495711692685 11.455137073351276
Zr 9.704191655359915 7.152300694199726 11.586390354474581
Zr 11.376622924225284 7.653764394970178 13.897954036629248
Zr 13.418391753645842 11.512021390170842 12.776892725963139
Zr 15.52003912082867 13.983380477432748 13.533049322319702
Zr 10.652227610746783 13.56746420926032 8.061625518187245
Zr 8.342328606814014 13.017383828752166 9.836774399389913
Zr 12.999544187957788 16.990299897254907 10.545521530462478
Zr 12.676024272761977 14.363803780822144 12.221335571977601
Zr 10.490072340472494 12.387033882364369 11.148465978199226
Zr 12.845979756884375 9.922316155241303 15.506105695102141
Zr 13.517811835857971 12.77324430969489 15.485165971520225
Zr 14.563145000058515 16.764341621425835 12.825146398564735
Zr 10.483905216640437 15.478893960872506 10.269077740417394
Zr 8.5050830021869 9.843549070992076 10.57623466103994
Zr 8.49788681019128 8.978592054386276 13.408632357239295
Zr 10.519921361357465 11.3577892547008 13.962148267355948
Zr 10.084187008702099 9.049332097390417 16.0320829767818
Zr 13.453987520006097 15.677367453437894 15.02456211621441
Zr 11.043563402873902 14.269769514443716 14.835509266634737
Zr 11.503438111141655 16.846785813568438 13.051416236318559
Zr 9.06053119725605 14.53775060259539 12.654034360975624
Zr 10.534539144772548 11.833223569332628 16.791992997434775
Zr 7.637988034009774 11.829542384127903 12.774149355361839
Zr 7.934939154272918 10.744362995779506 15.582936908430336
Zr 8.431730504063983 13.374440050084278 15.288110897549135
