41
Energy = -301.68762497 eV
Zr 9.301662186958048 11.183115513212815 16.061167446766817
Zr 8.410976555430377 9.17739602311409 13.768640872974835
Zr 12.822318256107627 10.955468940350503 17.070018570526198
Zr 11.34462324913789 9.560604889473934 14.888159516890923
Zr 13.846693456116617 8.449418287774837 15.93293231948918
Zr 6.952605094821974 11.69030681473743 14.478684849037549
Zr 10.690546797217028 7.710706553145664 12.79061086642575
Zr 15.69692006307829 10.557054631982584 16.720471867358015
Zr 11.685226985694802 13.010240204612781 15.109970892924721
Zr 7.088193836360403 10.9295097348908 11.749022896015463
Zr 9.213444898985307 9.282000239299451 10.79368952918964
Zr 8.773793912797846 13.872415338418458 15.091874926237951
Zr 9.716477834198304 11.751577540273168 13.149693608455948
Zr 13.780781866901354 8.14518841324825 12.756781983837882
Zr 14.560754859014898 13.187257705326067 16.2698515850508
Zr 14.002463469232099 10.956049032551386 14.23358710971806
Zr 16.23119776307048 8.985852357268708 14.344009731029015
Zr 11.780858193410255 7.832591621333698 10.260829824372964
Zr 12.062517839233362 10.383661959895326 11.734832906447773
Zr 7.454035198093965 13.704804267102844 12.436288333181588
Zr 9.156408444715735 12.39467251354889 10.199482953051554
Zr 10.307861886770155 14.689250809738088 12.68822753587868
Zr 16.828827351302785 11.92007628029041 14.392757121303246
Zr 11.469271568459519 10.764770676177234 8.969618664585305
Zr 15.939177071767869 10.240917260450784 11.869589041470665
Zr 14.04582666231951 9.146775575415468 9.724611282311038
Zr 13.10613084116567 13.262429830861096 12.515634556395295
Zr 9.250883687219126 15.175338324054735 9.947826509305244
Zr 12.777449432395276 15.795052478887596 14.027267417918711
Zr 15.423400907478417 14.591584161287154 14.003251574159925
Zr 14.348891392263038 11.873022851063347 9.874222761813062
Zr 10.257207889633632 13.460271151795322 7.504724626368741
Zr 12.110863991805047 13.98259725103 9.645163035441973
Zr 16.26549187015397 13.160281604140762 11.712833610743756
Zr 11.661414479043085 16.718577388510234 11.076725971888669
Zr 13.206168039594731 12.29253183770544 7.2560100293184835
Zr 14.488638628418236 15.514537207361904 11.309413390391063
Zr 10.835958364874822 16.408971855332176 8.157206603430602
Zr 15.04089294357618 14.303299570348681 8.450324414478978
Zr 12.745107417945103 14.98728350838081 6.731758416839489
Zr 13.575415781813495 16.722016210693887 8.881370863579445
