45
Energy = -332.63206766 eV
Zr 13.895319942696236 13.555268064890187 7.258045415969317
Zr 15.073939183429315 16.153951375517227 8.475628173370975
Zr 12.387523806465207 16.129986320616297 7.677832352139655
Zr 14.911202227046429 11.28649300043798 9.07788944911658
Zr 16.362933490847087 13.798631428422718 9.451319543995076
Zr 10.800309916807349 13.77106297960253 7.811935771166879
Zr 12.131338333166973 11.162314103945988 8.273492025264908
Zr 13.297052871367905 8.261575959387562 9.514110864104955
Zr 16.00484257263101 8.857169047930078 10.272043251207192
Zr 9.30150608786318 11.477820152254925 8.825394761540684
Zr 17.234322475619674 11.342037434416557 11.136412811471407
Zr 13.212063156241467 14.257381636509752 9.897767528373514
Zr 15.360508670841726 15.986399539533833 11.455346158347472
Zr 13.106114850580836 17.34166821362612 10.215276588324409
Zr 10.569542839275766 16.001250602570735 9.893160015576873
Zr 13.539291182882307 10.165838930161609 11.65515827296461
Zr 8.625735444640398 13.97978797560485 9.962103545577204
Zr 14.743889237760152 12.82877658544488 12.076203484812682
Zr 10.653118728080317 9.509734306987788 10.485219419611383
Zr 11.148895186875828 12.52557677265305 11.010999964952777
Zr 14.571936925511324 7.2741976496763625 12.037770622386846
Zr 16.257716573778676 9.424171951798519 13.20666486085486
Zr 17.378250526894472 14.13659243267391 12.268395626004526
Zr 8.321528880829634 11.547006840760536 11.65409985186646
Zr 9.732911864745347 14.804538637832326 12.676151232706584
Zr 12.74886419058428 15.533595656526106 12.64252993206233
Zr 17.028347167685922 12.103042240842043 14.01654564614856
Zr 12.278810627522779 12.946074605237794 13.956576537569388
Zr 6.950921843147284 13.667051734112516 13.481334266663177
Zr 13.557663408382599 8.560966860901207 14.496149132961875
Zr 11.738143849832998 7.596952094263268 12.29033035322415
Zr 6.767603622976649 10.8319150221552 14.187165633902293
Zr 14.905905537555409 14.349847807314896 14.52777581579652
Zr 11.249319394592675 10.278153738340583 13.427063219612013
Zr 14.472206935483307 11.26914309551378 15.001973456283
Zr 9.383474962102369 12.344736897399462 14.367444795509586
Zr 8.567932040363281 14.995659635418821 15.523185113235321
Zr 11.350131699246077 15.19357653989649 15.520853211476947
Zr 8.695018173844636 8.947415694077504 13.36904302976503
Zr 7.212932948566111 12.637382925641054 16.337255143062677
Zr 10.74630211123515 8.062971565246805 15.210002548722008
Zr 13.065759073276665 13.175536009193895 16.808613047070494
Zr 8.885721480322001 10.11849948479297 16.287817475168175
Zr 11.868072396128818 10.523746986624648 16.56649556172545
Zr 10.107624693168972 12.886350030774672 17.196132961213422
