47
Energy = -347.55395024 eV
Zr 7.6599970628678955 12.261092401636962 12.883003588881891
Zr 10.701167142354942 14.763337014230311 16.684747296016283
Zr 10.547338085814163 11.611854776009137 16.984088821258222
Zr 8.834673421599014 13.285470628071119 15.289755940096601
Zr 6.649447164273644 11.484177219903607 10.342502932126722
Zr 12.493222445431746 13.447529514068643 18.361232978170193
Zr 8.234136525640178 9.301979661629101 11.753169837596593
Zr 7.904152380747929 14.160432114854673 10.459716605309657
Zr 12.280568578539144 9.750808217176505 15.063069380294289
Zr 8.781478690544386 15.129154136077766 13.107916360933395
Zr 9.687130870081297 10.496870957428637 14.14298133217422
Zr 11.814661910687182 15.711632781041486 13.98164012542364
Zr 13.374347606982141 10.849884610797716 17.560324036383182
Zr 12.723186431579458 12.795493994758091 15.40503906828596
Zr 13.57301813795827 15.591282300991018 16.465561096742974
Zr 9.661919004188162 11.73669587364572 10.540281687569314
Zr 10.728043142026912 7.8529545989672505 12.933265525731235
Zr 8.173342928210696 9.668283660283603 8.805494842537454
Zr 10.960100356888297 12.992381217156348 12.993505756169466
Zr 8.12851279264859 12.374225873391737 8.018623635133943
Zr 10.823207487773091 15.271113969867532 10.925776770317217
Zr 15.282998344686133 13.179588680002183 17.162960706997932
Zr 12.016637458326626 10.115287266389604 11.864010438269657
Zr 15.310254575192367 10.808749035580526 15.375229674152315
Zr 12.857037263584933 7.361576900209318 11.020232708549324
Zr 10.489706882469928 8.450087741341251 9.847211677485877
Zr 13.544972931449564 14.492801633428067 11.867284285032936
Zr 16.551872801199533 15.655930956652616 16.023628431782402
Zr 17.501350788657707 12.9869891486836 14.851145672283842
Zr 10.461068307638003 13.876208059950464 8.3975882741708
Zr 14.799367860469953 17.043955201513036 13.811279361518574
Zr 10.819839893784746 10.97216669768113 7.852945533503382
Zr 12.656222282852625 12.58281176302195 9.979885096852332
Zr 14.264726146263708 8.436512484628924 13.476529304221248
Zr 12.980142137464284 17.309844328084367 11.50456242933977
Zr 14.988931508131182 14.074348939719613 14.21303720295376
Zr 15.233405450251809 8.727897124720238 10.847680675008418
Zr 13.241334066962898 15.604338376999932 9.074440698429777
Zr 13.262407132860568 9.511167355593171 8.852385385082654
Zr 17.41876896121803 15.57704202055994 13.354605681990382
Zr 16.80096168071777 10.327015888650378 12.662591274276403
Zr 14.338746055992322 11.529554667397662 12.526384657134738
Zr 13.659378134132542 12.278969470108814 7.499453855247055
Zr 15.747407715427462 16.236759930288645 11.047286466001616
Zr 15.71326421053433 11.162900969465783 9.581159819825697
Zr 15.470097559644564 13.938671300343573 9.21206569966962
Zr 16.852073424218037 13.241134466455746 11.684584126419061
