41
Energy = -299.42984494 eV
Zr 9.728150593556833 16.022153085738886 11.360295812859654
Zr 9.022107900320494 11.3291659185474 9.629011002587287
Zr 9.911882949421797 8.916056637355656 8.613252970455013
Zr 10.74871749322078 13.679873602095586 9.087813294531163
Zr 8.09633852922296 13.81954282606464 10.416218173118878
Zr 11.98100083429843 10.650752334362739 7.924881975708049
Zr 13.698601248781602 12.845297379610018 8.729350196927623
Zr 12.68497028512804 15.588084656531954 10.178896055211395
Zr 15.529577581307958 14.799868785056274 9.645049156290359
Zr 12.122005779562375 17.174241198800324 12.818070599070099
Zr 9.788480289030984 8.599420432835602 11.37185568238313
Zr 10.617410100614025 13.397358073069414 12.236563695678424
Zr 8.014531868443711 11.5811461261088 12.406489592133658
Zr 7.901731761418845 14.388105086625552 13.12137777162829
Zr 14.406252757352416 10.117925563469496 9.77565146498687
Zr 11.70120345151618 10.917523736080206 10.851894677316754
Zr 12.281061750531357 8.204384353360158 9.666412306100021
Zr 16.56006364178509 12.158182699200621 10.738293969908623
Zr 13.848589165037312 13.13388748425823 11.540112703732477
Zr 14.957107896578497 16.395920246974686 12.048059767261549
Zr 17.252797201751363 14.713405887716364 11.810045755576486
Zr 13.02711855760762 14.740071880114142 14.045304934173345
Zr 15.31825839454683 10.390661431168486 12.651392904795527
Zr 14.496141940832523 17.414207022788275 14.69083985052945
Zr 16.79307716847711 15.640192362754693 14.504485984078446
Zr 15.355278408440356 13.05953103883843 13.969859952087575
Zr 10.02164851837615 15.65841638247042 14.492054197821234
Zr 12.837556291557261 8.763639631183942 12.512744440222546
Zr 12.624535135977187 11.584590427806283 14.061356733437208
Zr 12.145934840015952 16.838660474692865 15.933620773259173
Zr 9.539331812727774 12.696032385785626 15.012108494231905
Zr 18.10517445149222 12.78726841194184 13.718310492373393
Zr 16.637036476807776 10.84334857945518 15.4539094374069
Zr 14.58414852631393 15.227231943554962 16.692722423531098
Zr 10.136000105050506 10.218417124146049 13.632013726946626
Zr 17.0003691829444 13.438192913843244 16.421190842250194
Zr 11.728058812999896 13.951694386666604 16.630450917863794
Zr 14.150482078157 9.54727703386054 15.657454481083537
Zr 14.26692421326872 12.259794581651471 16.932750068129835
Zr 11.665909348825107 10.836131951523559 16.76529540692682
Zr 11.628895029224575 8.536175674246305 15.161079368894622
