43
Energy = -316.35379907 eV
Zr 9.765862289019985 14.962095263290626 9.360762460440155
Zr 8.252714370061726 12.971378162921008 10.654982126102912
Zr 12.545490585047913 15.434369535477394 9.045069825069497
Zr 11.54741122285302 12.525243388002574 9.462984487387928
Zr 8.32325602596169 15.683639804227496 11.70878322592976
Zr 10.338934824018942 10.35192946596768 10.807194878946168
Zr 8.049760240474482 11.006248027315493 12.500352414021146
Zr 15.485610810163614 15.825211687517104 9.696689928674012
Zr 14.44950151566323 12.901453733853758 9.040135046780518
Zr 13.296684223559849 9.943899649046037 9.45533008868348
Zr 10.908660841052598 16.963683014870945 11.273897063895259
Zr 12.175996843268742 8.753193617009632 12.361009080888946
Zr 10.724691324179803 13.879537683698599 12.122339242612412
Zr 8.048503999967846 13.62618684099601 13.696185328184871
Zr 9.416183923769298 8.766475846643317 13.267903642623196
Zr 17.043629419137734 13.555688022153982 10.025614674564622
Zr 16.300225434939104 10.744611773522934 10.15778247421042
Zr 13.728956093785255 17.472188127233718 10.960659816801504
Zr 14.877424451075006 8.759547378852188 11.587698725703957
Zr 10.016959855305268 16.027887492825418 14.11460508814128
Zr 13.59398292361664 14.53318799103137 11.586295126706746
Zr 18.599479319303175 11.828090779681252 11.59138081372954
Zr 13.387339243784936 11.492127262754515 11.877605999684159
Zr 15.940652305782557 12.829167344158778 12.794160028280826
Zr 10.163224505899349 13.556025790447663 15.710678856912505
Zr 11.02191587361326 11.324437256982474 13.773115087781346
Zr 12.744433288094765 16.92446689414521 13.641988008215991
Zr 8.511533937094491 10.721091921030709 15.317835417743636
Zr 13.264224903879509 13.860152479777673 14.491246030765407
Zr 15.73277583110584 16.167716151521095 12.870786225150885
Zr 11.175204139282068 8.939214091832007 15.50044876056316
Zr 16.95689091819228 9.970637440572602 13.145713433371938
Zr 14.153973354996557 9.585609584848573 14.330635368090869
Zr 18.464397794665288 12.268213773818541 14.372605879247548
Zr 18.338166790485133 14.592771316186846 12.569933407964003
Zr 16.041711521811557 11.651620095555957 15.680822033840702
Zr 12.165070975797153 15.811562694241452 16.52707713345231
Zr 11.959551744333531 13.352260250970458 17.960213283845178
Zr 16.816053495602965 14.56588075007206 15.177669799525036
Zr 10.426746450039538 11.087492514196047 17.26770211928859
Zr 14.697295095123298 16.486420898616455 15.700778022904073
Zr 13.102312337649533 11.301339308687494 16.310821860297352
Zr 14.609530709163284 13.977096985304602 17.187774986376247
