48
Energy = -355.77708245 eV
Zr 17.456628745825633 9.897406159262097 13.173210962468962
Zr 17.05427860449456 9.57914006164761 10.17777856702014
Zr 15.496036894564025 8.009235111253602 11.942479663912932
Zr 15.64732249001653 11.4477145279597 15.435490998256029
Zr 17.618938118048433 12.404193067728073 10.740255837340307
Zr 17.202352562179403 13.23212224313873 13.656587499947786
Zr 14.560083087309538 9.012043864499475 14.467569048252047
Zr 15.919326613299464 14.314136334481937 16.25049033787784
Zr 15.240307195170137 11.07261599610454 12.14598127043462
Zr 12.9155437378587 10.652091557265734 16.519663665314564
Zr 17.764880558357547 15.161413110721154 11.492021188296246
Zr 14.358876821592297 8.83642738414682 9.36938519492254
Zr 15.553761184450394 11.665698225482583 8.731165720445198
Zr 16.093414265523652 14.839511741151435 8.895902403252643
Zr 12.567270264366517 8.482741317339524 12.118680091493681
Zr 14.978321296151371 14.001391560719922 11.25567348296584
Zr 16.182686822588916 16.14731167719852 13.807010921142941
Zr 12.843673733651421 11.335602883876838 13.59348432103627
Zr 11.129465063108587 9.242656901480272 14.752665801189957
Zr 14.10269993253594 13.88405203153898 14.069419162148893
Zr 12.769694663953056 13.489749762972528 16.73359478657971
Zr 12.86329854835037 11.207522789656428 10.47051577297661
Zr 12.871252961634498 10.789713283910569 7.6736773273373835
Zr 15.681374643308988 16.975510737818915 10.977766438904744
Zr 13.832585646202718 16.2575008148578 15.717523522954698
Zr 13.162133088988854 13.592793019368852 8.453054038034388
Zr 10.181741129380306 11.52400638110459 17.362218839462493
Zr 9.20176986410982 8.062274227138124 12.17759800723979
Zr 13.37194202022669 16.76826235815342 12.714913431197258
Zr 10.552068271771098 12.4778449301312 14.818908581734647
Zr 13.245570232795778 16.099965082261733 9.765087565795977
Zr 12.058397969922252 13.955558781099063 11.464105324437341
Zr 10.323706823094259 11.900408045218558 9.007166375031437
Zr 10.21069315478083 10.56859308757528 11.974621540963508
Zr 8.368662569123211 10.251951128106585 14.6256275932719
Zr 11.162590302438662 8.945107202057612 9.57662265272954
Zr 11.377566947386772 15.348495492787272 14.425494369278304
Zr 9.953796497391139 14.522299210194099 16.912420002169746
Zr 7.811626262955667 12.794894657927607 16.063715741971805
Zr 9.47075464798684 13.318888523592967 12.2343426436696
Zr 7.075773695970497 10.141778889180715 12.039121814551915
Zr 10.146092993437195 16.25737622724958 11.929111080341732
Zr 8.424207267002098 9.66348394254155 9.654813020030547
Zr 9.709511895930493 14.644114897561835 9.581974265186654
Zr 8.32911225985591 15.201844235162008 14.402975867349207
Zr 6.833159181405559 12.723642299983927 13.325479809143301
Zr 7.447292882250355 12.440374423766201 10.185449468620844
Zr 7.412431176755087 15.10903366752527 11.503340746777564
