41
Energy = -301.77617102 eV
Zr 7.951773725423091 11.639501799753837 14.801657422812355
Zr 8.782084072598217 14.203582814186245 15.711413235314652
Zr 8.819105946317189 16.101520177303346 13.563713448825128
Zr 7.765385066408375 13.66210527954695 12.611555200400664
Zr 10.338135956014668 11.61938947329897 16.448677238095378
Zr 11.67023338616936 14.196499088751326 17.267359866631406
Zr 8.350648228554435 10.846750936962684 12.199384437571121
Zr 12.774145615863823 11.486122515599044 17.84131332419574
Zr 10.931160637789421 17.641744384146595 12.582484883480724
Zr 11.328714681684591 15.89141262941471 14.893816000568522
Zr 10.100772315011547 9.655665695973553 14.114600658915078
Zr 10.438861911725525 13.052075421823705 13.602674253508683
Zr 14.547867465344696 13.565027497332473 17.759627259176778
Zr 10.258982837096672 15.144490571912678 11.263973200975999
Zr 13.553818537732662 17.70925553394061 13.523596081206984
Zr 9.681789460060743 12.36621295575347 10.301471902431892
Zr 12.693281537082294 9.84853688387529 15.411005850372746
Zr 13.301757434418201 12.825820421998204 15.057237210771882
Zr 13.988494869372113 15.768812791880912 15.940133694134234
Zr 10.51113228312066 9.411664467480932 11.038263536244392
Zr 13.277915375497882 14.875741449792557 12.63333474057392
Zr 16.35030330313881 13.682460432831702 15.585239008424162
Zr 12.751449988236418 16.85583128095954 10.49642227493284
Zr 12.394595822126648 11.464268883692048 12.120465782105017
Zr 16.243529510695723 16.12891055098616 13.91132633681804
Zr 15.315533006101093 11.01826672616627 16.409927266678764
Zr 12.569178910019424 8.433849406448283 12.97416423171808
Zr 12.333253953947475 13.807299083382947 9.829902590446697
Zr 15.399017928025424 17.19338238947284 11.44968080509406
Zr 14.966761952356103 10.396744236719043 13.361017647235823
Zr 11.988581806668229 10.992087984066112 9.09040603001978
Zr 15.974265991585153 13.238387642290206 12.40420881049643
Zr 18.528555709645442 14.284862625252869 13.886765115349963
Zr 15.141875835437986 14.962457956289585 9.69712553986304
Zr 17.78480835120906 11.419440662029713 14.036359931158302
Zr 14.64981454507399 11.874512364271213 9.965330114432641
Zr 13.613659233690907 9.192852942827962 10.630896370562127
Zr 17.759238854794987 15.41739492816243 11.263291973251855
Zr 17.018504595167176 10.622675708013604 11.249711188921408
Zr 17.275727006540926 13.025285096555143 9.579626114837325
Zr 19.002214488862297 12.69291771619063 11.694788070613855
