41
Energy = -300.19216161 eV
Zr 12.354684569127775 18.101885437254857 13.348190742501645
Zr 9.810961813470358 16.526279173260942 13.159733935655126
Zr 14.259164887561123 17.5576619257759 15.737913896229154
Zr 11.587048123433437 15.793494213885019 15.361356661179574
Zr 13.513871977576054 15.219160399364169 17.410684518497554
Zr 10.902774393766595 17.438473279916213 10.747498837812628
Zr 9.550375830768113 13.685059702632687 13.44816064674153
Zr 11.536967895351317 12.38644480132952 11.451559171787425
Zr 12.551757830331049 12.956159990206285 14.572925425532917
Zr 15.323545219841588 17.508341502413668 12.775505225890134
Zr 11.969559747955048 13.104484836078559 17.31072211285283
Zr 10.166086141871418 11.613810715265997 15.449295862758234
Zr 16.14661751130116 15.490549404064067 17.22916237148241
Zr 9.731952199528607 14.806966428831048 10.664841442552799
Zr 12.481692798033649 15.317502077797908 12.348406457221753
Zr 17.105651765950537 16.947520213334197 14.969382100436134
Zr 14.820988358658573 15.0096485009938 14.506188197727495
Zr 8.611558136054281 12.20328920661666 10.919536837845515
Zr 12.97590497458801 10.485116843852401 16.522309313751713
Zr 13.550557515057804 17.689137956732765 10.584875075858804
Zr 9.421103655805451 9.928152131166621 12.86035960171238
Zr 12.464757136097829 15.16576510859828 9.365423448020069
Zr 14.426304402327208 12.814941747817084 12.433581319921842
Zr 15.296368978965157 15.400304810298394 10.506565532532932
Zr 10.651813195567476 8.981295705446842 15.590165531942198
Zr 17.724837564762844 14.178371670581809 15.37701411162949
Zr 17.349356398244364 15.10593011542843 12.618508091491984
Zr 12.40899240404195 10.107539603119102 13.212261522873645
Zr 15.148064010834668 12.651312192059029 16.407399177708715
Zr 13.39415593972397 7.962602858560574 15.201299900711568
Zr 10.934776412568485 12.516612603515778 8.742469012277626
Zr 10.01625472567139 10.103013323504852 9.856403912102015
Zr 14.224157095251782 12.709574342112774 9.4319270811602
Zr 12.975254437265278 10.111476289388094 9.762535522722102
Zr 11.369071961352802 8.103538957319888 10.99961401556436
Zr 16.879805244656026 12.888981243988503 10.738824809712314
Zr 15.494622150335056 10.425278654318268 11.420904639186974
Zr 11.273896217533709 7.287639251594037 13.486578184614475
Zr 17.152585759055647 12.202557425910163 13.541153107101843
Zr 14.048302329376039 7.917509482356277 12.3172548475104
Zr 15.148035491355612 10.164832967296169 14.399602885529847
