49
Energy = -363.28603705 eV
Zr 15.346957300874102 8.072685812653914 10.320498194194936
Zr 12.529546663142032 8.908484467693437 10.857014903859747
Zr 14.302546707639365 8.224013508887486 13.023569208713864
Zr 17.110862557617743 8.779019329249927 12.382669482644252
Zr 10.833933894857514 8.505321191928717 13.643755488678659
Zr 9.852429125626081 9.940477366050866 11.122337153850138
Zr 14.195620034882568 10.186048295229714 8.621050376306888
Zr 17.27873270530535 10.411790159522178 9.891424723597906
Zr 7.966806146811299 9.3708626960553 13.232230086772086
Zr 11.002819214311865 10.61322514964121 8.19188348918136
Zr 15.707728467922719 10.238874418150626 14.535525597210468
Zr 8.945875045094402 9.425921905842712 15.8703073256587
Zr 15.031661777376737 10.927293373434958 11.415620399317229
Zr 11.897668121392341 10.089875228034126 16.112310985656062
Zr 12.34883171697288 12.02931855223082 10.256038758158123
Zr 17.80792767143175 11.631274070717042 12.902738453486283
Zr 12.809191741190578 10.883132849878756 13.34967637831981
Zr 8.685458096072072 11.906912464539912 9.286434103485757
Zr 10.006811533454497 11.451741642201783 14.002640338482582
Zr 12.930691963370132 12.414211856230366 7.207729777223738
Zr 16.9845854296884 12.97294989405082 15.700492633093488
Zr 15.421937665976737 12.793337887066519 8.740815263160611
Zr 7.311079733643553 11.828880435549532 14.88045240588435
Zr 9.584715066618818 11.980841013776164 17.07759577216006
Zr 7.377311848493818 11.833685438481774 11.786499403459286
Zr 10.518686464338483 13.801778063751462 8.349096806318538
Zr 10.084844767384922 13.340270055551237 11.683862794642897
Zr 15.155248798791089 13.027782517565415 13.385218204979822
Zr 12.23851984964991 12.127429180957733 18.40907453751008
Zr 13.201143012394306 15.172193252518914 8.079019205426015
Zr 12.095211555648131 13.14581353512522 15.635625530645283
Zr 17.189395879604866 13.606994983416405 10.909417422916023
Zr 14.508840211394302 12.029594845248683 16.47238225870575
Zr 12.139403476717757 14.439680942251425 13.221968405004164
Zr 13.875898707976068 14.433147103987363 10.866524727398007
Zr 10.786557979206767 14.614504990679654 17.939607674600587
Zr 9.390257118478813 14.457369055676347 15.25891099584243
Zr 8.209827866629924 14.764498635771 10.332388081410437
Zr 7.497142207148508 14.305279645993707 13.188462392005704
Zr 16.003930112833036 15.684243089649891 9.176009358663208
Zr 11.181780189319573 16.017543468318387 10.295092741534528
Zr 17.626852882009093 14.625931262508052 13.66187456682748
Zr 13.676438782406656 14.651529495467864 17.719725969620665
Zr 9.684217935079921 16.231494103571443 12.80337298713746
Zr 14.638028301869104 15.211257968627079 14.973361729508513
Zr 11.852301852723727 16.172885442121867 15.684161335279892
Zr 13.890954469540727 17.317108131435607 10.022001683781472
Zr 12.880846342419623 17.09653068906749 12.588588225216574
Zr 15.83124052960654 16.283370202226813 12.129361280753146
