42
Energy = -309.86334439 eV
Zr 7.981068204004986 15.246988368397957 10.792831135790777
Zr 7.3326081480917455 12.402306173788213 11.513294653702697
Zr 7.466551720777409 14.39022893856335 13.571782199946755
Zr 9.16547201230872 12.941902579665934 9.24207187501461
Zr 9.408398268711263 16.42101788892977 13.086694596733201
Zr 10.974597305841744 15.931642600436792 10.583596022345256
Zr 8.656513974091824 11.778395955325566 14.317258940942157
Zr 8.036072874831317 9.068611773251979 13.161092355591613
Zr 9.624143010981438 10.589872101580232 10.794785099581661
Zr 10.015814894256122 13.564563195060696 12.168220837976508
Zr 10.072965758206722 14.21074938399935 15.2237863475468
Zr 11.555209104699134 11.158219796702955 8.18642166783355
Zr 13.049301351547832 17.601959641570463 11.680826492816157
Zr 11.539967008192505 14.213994338375958 8.324273188397598
Zr 9.838752985755338 7.61871249431057 11.495995464648367
Zr 12.979535457602687 13.829676838692418 16.146590969852273
Zr 9.247574090546456 9.301070256716033 15.824856908749444
Zr 10.028028889091651 7.1249575660652 14.31452318820081
Zr 10.875748623706219 9.828624345642645 13.305510177524317
Zr 12.200365390604839 15.524639919823505 13.671877415859704
Zr 12.348825725301886 12.209169684826348 10.62630463975879
Zr 11.164505603350719 11.372005807364765 16.39299367323388
Zr 12.1950176208391 12.450334049769898 13.788654158467201
Zr 12.06298829037894 8.701110363157555 10.107863729676389
Zr 13.654989050237935 16.25424469720725 8.838700230912488
Zr 15.028897960240931 16.52420846085995 13.550169648324296
Zr 13.882400718306293 14.71183635295414 11.295752285774409
Zr 14.105355698854916 13.146207447775824 8.287329310447095
Zr 12.530061729413958 7.1112475451642565 12.899884364748106
Zr 15.710195145674756 17.13507025299462 10.762680388050343
Zr 13.836933640481895 10.192021963510026 12.419330587287552
Zr 14.95809296139954 13.503733167836277 13.972721637025193
Zr 12.346941040949668 8.591597246852885 15.568061279223782
Zr 14.126359474671998 10.98126114574871 15.722317834632433
Zr 14.476439728873952 10.23586692170312 9.36792538662387
Zr 16.247719711878727 14.738086883744751 9.333025782125494
Zr 14.582975687587743 7.658075914610767 10.995149484054403
Zr 15.763354932370373 12.287590747245165 11.114543069500096
Zr 16.917512095099664 14.885126952814398 12.119666163222075
Zr 15.14102958695083 8.333225526047844 14.063987654800998
Zr 16.435381463116542 11.037256974280975 13.834699728692366
Zr 16.569928962697702 9.433429328790085 11.560808399700612
