42
Energy = -307.95924052 eV
Zr 9.352204637416996 14.721511024664167 16.628646505190243
Zr 11.142911293669894 12.83403270436966 17.847490109667305
Zr 10.079337642348165 16.65089480294888 14.671150532845688
Zr 7.931975245438168 14.46706906243339 14.216180945149603
Zr 12.140313301977658 15.038478662112308 16.317553416951743
Zr 13.954510410740884 12.567584430648443 17.48790054022067
Zr 9.735848005572862 12.156342386781908 15.426352921050412
Zr 11.899918529224216 10.296166104736475 16.79472187646252
Zr 9.001494440702688 16.295638375325485 12.038483893024912
Zr 7.76394947065579 13.861531521534994 11.494649940221093
Zr 14.939032967455537 14.51831818733621 15.34323343068018
Zr 13.059449145115355 16.4562008898202 13.935196538293091
Zr 10.842306702826514 14.196418065379302 13.256959608455192
Zr 14.708567306890377 9.885008250132001 16.83669722269616
Zr 8.307413233668614 11.540413617323843 12.94754458319439
Zr 12.894183510395962 12.220654888975732 14.736173961358688
Zr 10.844981348898637 10.012216151047882 13.93658488380925
Zr 11.936149937667691 16.235589970719158 11.146933590995998
Zr 14.706241616445794 17.48795720316286 11.544237062163765
Zr 9.814025733654018 14.49828366988681 9.734888349009502
Zr 16.060302058423215 11.851639358814216 15.247785989430884
Zr 16.40839778775572 9.05725913331125 14.678749641716852
Zr 11.251578346251174 11.892759073971995 11.312796037038048
Zr 13.614036188567889 8.945541377408563 14.356750645368914
Zr 17.292355663744797 13.795049864508705 13.477921435785243
Zr 14.746192156267542 11.411784247490035 12.310891441906062
Zr 16.083518241094662 16.419246208078082 13.645234654702634
Zr 9.517621073445735 9.340859765810148 11.544329588641432
Zr 8.563055316118637 11.649582784961177 9.905993503074006
Zr 14.290217937346771 14.438776353974642 12.07379765424224
Zr 10.927341577728788 12.231343838542847 8.227981247806921
Zr 12.557086725862382 9.182980660979768 11.617451998016367
Zr 14.483360250816286 15.950646138746379 9.341880190002174
Zr 12.723407751496675 13.90153704449681 9.378216340369445
Zr 17.696183616154798 10.667974060724775 12.782506287432758
Zr 17.754772309726356 12.75253506704207 10.925458673779792
Zr 15.54956840608454 8.599934846692923 11.991364513020732
Zr 13.54054414746485 10.987949216887149 9.42532259791099
Zr 10.762168605333818 9.696893561585103 9.144501135092026
Zr 16.499807183000296 10.449431153339171 10.00937943547826
Zr 16.92019717742179 15.4756632941748 10.95674948752052
Zr 15.621994885091413 13.244856294537588 9.222938906229244
