44
Energy = -324.46662592 eV
Zr 14.491214195728697 8.22229566632573 11.301804544049897
Zr 13.600328880444403 8.41804799999096 14.130303693720723
Zr 17.05428807276381 9.720655415575639 10.769140989934721
Zr 16.453909686250146 9.182322607889914 13.59338142235795
Zr 11.4550723015962 7.553043369507788 12.076208589959332
Zr 9.464010366345208 8.209269535642374 10.167199710086186
Zr 14.736850775661603 10.291063852433336 9.063871367588092
Zr 10.946851536533002 8.875913656402831 14.717974507601598
Zr 17.84417320307486 11.635040971049733 12.74343542973599
Zr 13.118979511520767 11.409037776485018 14.597501885407821
Zr 12.070950195618266 8.829387731850687 9.139329957960966
Zr 14.947391896918157 11.172967027466955 12.19710971666776
Zr 8.983472795219347 9.942600826026785 12.70669570281363
Zr 12.090093950767924 10.219308542288386 12.024249348181273
Zr 16.52577113622412 12.64858115785238 10.1348763189753
Zr 16.037524509751456 11.968169371400466 14.98643332360807
Zr 9.387002204122702 9.864394163001576 7.68187044628608
Zr 12.263353745450697 11.333518502804273 7.431219517173202
Zr 7.354709040662409 9.921766665492111 10.130441900261975
Zr 14.56013995660464 13.109119929256599 8.018382459218255
Zr 12.663336040092497 9.951905366832769 16.844377976448616
Zr 10.030638390869203 11.323807719633953 9.985367780642218
Zr 9.815588291784492 12.837307982150792 7.2727269158131165
Zr 7.514088592407644 12.23759784607234 8.612702906507732
Zr 16.51719781677149 14.184613507603872 12.91347041745538
Zr 12.799029083784411 12.551869477101292 10.2438579189224
Zr 10.345679924926214 11.640578041836195 15.648452206267057
Zr 13.665844402267867 13.70501298788199 12.896072360820908
Zr 10.32281728008488 12.741278771196008 12.617813219261958
Zr 14.602319662698282 14.978300139756193 10.398167932718025
Zr 14.930003727943332 14.649636305711622 15.51673419930765
Zr 11.942191385889755 14.393100386620713 8.245301401865715
Zr 7.66031644432257 12.54043512434282 11.572432898026774
Zr 12.938166364442887 13.13604032756163 16.972679492172546
Zr 9.287378697314423 14.352881535147288 9.866151174176613
Zr 11.415871402766797 14.402914556388366 14.55267670282237
Zr 8.468262299636324 13.784447544542827 14.914767942242744
Zr 11.712509056024064 15.468971723350958 11.307004434355322
Zr 14.091201084621291 16.475812776086983 13.531155304953618
Zr 10.279659695791102 14.236314858232644 17.25511243638202
Zr 9.078721983494418 15.60693430685774 12.804752226550367
Zr 12.527701568192892 16.32043953027021 16.329602713595936
Zr 9.591951689128997 16.48881370081252 15.607668412448351
Zr 11.413573825226297 17.308945145028794 13.588061091490738
