41
Energy = -302.36418931 eV
Zr 14.733305605950315 13.744132265503895 8.427828021890425
Zr 11.264058487096571 10.05142993150295 9.114995686762684
Zr 11.973185170622592 14.355472359405235 12.442781311602799
Zr 13.04770769769237 16.19550627305979 9.308955717675547
Zr 9.887105525151338 11.777612350031596 16.442171979233272
Zr 12.13232597495077 9.665617637509722 11.968366921567071
Zr 10.940018049512158 16.3808699304096 13.97771913524985
Zr 14.778326487269933 13.026962735284513 16.09522053400075
Zr 10.034321416632206 12.554013490949448 7.566045247059929
Zr 13.303526771407121 6.903959580427654 12.173801635008138
Zr 7.4059703090952205 11.926933025675524 11.894219633639208
Zr 16.632492974859957 13.999640896326014 13.77941058309207
Zr 9.539742065324205 13.304358721119085 14.027305242992224
Zr 14.935041029260608 14.539738684084854 11.263015703698935
Zr 11.927990840170747 14.093987840403654 15.76930310910883
Zr 13.286274065471456 7.872705454694199 14.634501416265207
Zr 12.076211186581924 13.34945736591981 9.70308027287552
Zr 9.029471929520652 10.173438830640169 14.035382041939874
Zr 13.030084881980157 11.673224335141427 7.450083847815457
Zr 7.995706570128359 13.484373926199291 9.453987127721563
Zr 10.04697313463362 15.389171163634524 8.856238943243303
Zr 9.055681820708823 9.095723196657085 11.323919128389704
Zr 14.229674144885946 12.390824985299997 13.186320657181106
Zr 14.085742823997332 11.361556710390886 10.337411517544698
Zr 8.885765205147251 14.943532648052056 11.753587187678413
Zr 11.14379928848554 7.283174296965498 10.428554808123577
Zr 16.67253058942634 11.96264276355693 11.66095719809699
Zr 12.21704483626117 14.485405275674813 7.050674201967452
Zr 15.13263001677911 9.360689809574671 12.69308508847981
Zr 10.599680413591958 7.597960251647143 13.52256698822749
Zr 11.882897914673272 11.297551240683795 14.399508441903997
Zr 14.133411340056876 15.447033589583029 14.326364486877743
Zr 13.398664295168738 17.061229969234677 12.189756551004667
Zr 11.116509826082556 9.120176878441894 16.151316485737116
Zr 12.541685449535752 11.578879151104504 17.34119958044122
Zr 10.834178737300787 16.978046790841343 11.098358498776927
Zr 14.421444359117803 10.025081630673078 15.830757481271814
Zr 10.090078667156632 11.968679239719872 11.333518705628624
Zr 16.661847335021903 11.254551091342178 14.523432911523612
Zr 13.795729953378144 8.473955425434005 9.821004879821004
Zr 8.26517274915462 10.716087610754288 9.187316347045575
