41
Energy = -301.99706503 eV
Zr 10.819788901256 15.519413627636206 9.47594701306592
Zr 8.820331337428781 14.881755549906515 11.500275002495936
Zr 13.096837984663027 13.25242015015743 8.719037075932555
Zr 10.68684029627603 16.992906854398246 12.436821236520965
Zr 13.487113894317625 16.103196718651283 8.430160749679434
Zr 12.487716734788952 17.874453734256317 10.444047678160128
Zr 12.696488597125635 10.21510772662894 8.548148164937535
Zr 11.038651509464529 12.43605597915237 10.377569987671432
Zr 8.04697648297632 11.748062926531134 11.09576022179591
Zr 7.7046899648190355 13.3398559539573 13.4942330304733
Zr 9.235876106818464 15.296309750620726 14.755261917927212
Zr 15.652248546823769 14.249379169838672 9.606175608905088
Zr 11.009596003121397 13.826560248754532 13.141399988184169
Zr 13.100583957023636 15.056337082349899 11.308518630303217
Zr 10.125309267222432 9.663583596257828 10.06308618671035
Zr 14.220363285852144 12.39944251399502 11.470091964769765
Zr 15.23877724010768 17.058253073505657 10.538651323267683
Zr 12.213454246023714 7.519137401626425 9.733894540106931
Zr 13.717959266332635 17.28132103628104 13.10494062489593
Zr 8.054489679240936 8.853157433296 12.019646993546143
Zr 11.911189032116773 16.21628822775466 14.984213051475761
Zr 14.841367949552339 8.438217613742664 9.72848272885044
Zr 15.999215651765683 14.852926434778356 12.466370220404134
Zr 15.621909140973528 11.081968311653942 9.23285046167567
Zr 7.2922863037132934 10.724366602048546 13.896524284411292
Zr 12.807321567276876 9.742105396791889 11.542665150628729
Zr 12.964002527260233 11.736522754301582 13.95621773461377
Zr 17.192141633316727 12.36360104391333 11.329472065742772
Zr 14.173215320940077 14.443582049681503 14.588812042772046
Zr 9.268895826445622 12.011511080859941 15.65973346108156
Zr 10.68382144859193 7.581188789063685 12.257347820198746
Zr 10.220732434707557 10.693987906143262 12.990536295688344
Zr 11.742714910470916 13.51255171732869 16.13457617061311
Zr 16.07784898458359 9.720405103968853 12.043297365826925
Zr 13.953637461927823 7.297362468979283 12.337054587131803
Zr 16.1275380655637 11.989462855178147 14.08044046561967
Zr 9.23023548898056 8.829515926788222 14.921123125331118
Zr 14.60224834143548 9.387510534653545 14.732826900168043
Zr 14.31633115641667 11.970403136076737 16.41908530635761
Zr 12.082090445884159 8.133833560535288 14.503541242121347
Zr 11.834936107532167 10.286825610573839 16.271061009474572
