49
Energy = -363.13039845 eV
Zr 14.388805099972732 11.60192943650472 8.85541456937404
Zr 12.040264712748543 9.824837488677094 8.56521407135637
Zr 13.956690313218495 14.53256686168252 9.382037542724182
Zr 11.56077517752317 12.880935144166298 8.18741060612453
Zr 12.314880432232611 7.165503100674791 10.061589509526057
Zr 9.800481730263762 8.351938771118716 9.86050847814964
Zr 9.161190358417151 13.926763109488414 9.570320774354753
Zr 9.516975226926045 11.137622413374238 9.688340273121693
Zr 16.05384911217779 16.20949301793967 10.665205603369692
Zr 16.792349711451134 10.515783570213618 10.153010816890232
Zr 14.584087109402386 8.780779508250857 10.053342289279525
Zr 16.46739324533376 13.41377097354496 10.35531309375244
Zr 11.37875125635163 15.732312848153667 9.71826068015101
Zr 11.697009835195574 13.005715473464486 11.039998869595458
Zr 13.634145357185542 17.79154087944622 10.81041171082453
Zr 11.976333970635611 9.806589699849463 11.580260581438239
Zr 10.560492458323912 7.130181734022507 12.302711454018288
Zr 13.351715448104834 15.435755436934755 12.276495669311888
Zr 18.1674966257312 15.189029100075429 12.589135437614484
Zr 17.656834701642573 11.90454242794955 12.512584586629588
Zr 8.34947472856438 12.606286314057638 12.125256257425672
Zr 9.28556196615844 15.394743973060182 12.056835634876661
Zr 10.994859245081509 17.547613757707005 11.976136164732376
Zr 16.184476245172544 9.107452186712724 12.629123582301705
Zr 9.011257460025961 9.718645268169283 12.422366591276075
Zr 13.537949877277281 7.54865596622245 12.734406567149012
Zr 14.55904246459128 11.537611802628037 12.025691203047945
Zr 10.955128178860576 11.92898165287221 13.74503847470715
Zr 18.21922039713398 13.390027804455361 14.997872277647511
Zr 8.377125987283753 14.275300634583756 14.69415033098043
Zr 15.74639736919805 14.180156972863465 13.418533636636308
Zr 11.435379399340807 15.087372427979604 14.494012660849238
Zr 17.222828289533055 16.01272883993796 15.324658988303757
Zr 15.753584340046036 17.331905165439846 13.177967613876538
Zr 9.636563312645423 17.233834241090634 14.639259156797221
Zr 12.769684014522321 18.06276812129646 13.999620329658914
Zr 13.538952394569918 12.788902820627612 14.85519365648562
Zr 11.057857137465193 8.905775721936923 14.398973187208833
Zr 8.51547621379048 11.20382203928244 14.940952749623914
Zr 13.746358922074117 9.803834232265656 14.701659028159513
Zr 9.810088278701881 15.502799888101583 17.00815738623859
Zr 16.316147336420947 11.180461042135756 15.006852965960949
Zr 15.912137845476911 13.729154444120068 16.757495533893053
Zr 9.841916141949229 12.84225529261511 16.791566113324464
Zr 11.731336661015405 10.873004754524926 16.699500825029123
Zr 12.564778857857117 14.070764863647128 17.309448596289197
Zr 11.957613953833462 17.156711454220698 16.661958066189914
Zr 14.32936187811311 16.03441645557978 15.568821604411289
Zr 14.379707988188994 11.339863760326523 17.277035944578728
