45
Energy = -332.31823108 eV
Zr 14.18261119228792 15.3779634859497 16.404659486927194
Zr 15.280822107273615 12.839855221354938 15.24282140266358
Zr 13.709608241692441 12.67081758742952 17.64712145618414
Zr 16.548966655012894 12.586517608908814 12.671221651150265
Zr 11.89312064517392 14.7445690518881 18.176311858802702
Zr 15.869368494094527 9.938791844809204 14.521456699912745
Zr 15.964644891159208 15.510169081119706 13.8071180514296
Zr 13.52989263527562 17.088527189777846 14.222103861070746
Zr 16.84938216182298 9.927399798403373 11.798203996982286
Zr 11.245635798640262 16.472175148160737 15.952879541972333
Zr 13.629755011033112 14.10875834890817 13.031768071102157
Zr 11.751887978411476 13.616896697337635 15.298729528626383
Zr 12.850654709632236 10.796688627256072 15.623478778619681
Zr 15.055351770567803 7.949841767262773 12.413120894350211
Zr 10.916301864112922 11.934795120856176 17.698560286553555
Zr 16.748311655943418 11.601697591886994 9.485741418742174
Zr 15.666895056644343 14.470321315449135 10.628409551167666
Zr 13.012861692644792 8.349987117838786 14.329807646174663
Zr 9.355133353771691 14.28404054671646 17.016857087918417
Zr 13.880416331616052 10.875597868314765 12.707312664068443
Zr 14.017810103451303 16.642389638931327 11.42745987310966
Zr 11.153208603196726 16.26453940200849 12.839524612586619
Zr 15.229692243093433 13.527412472000172 7.875587594550213
Zr 10.388838391881272 9.010022907341435 15.797539188181089
Zr 9.016663596715459 14.910631613165613 14.354682386908179
Zr 13.910213816568412 11.872599686144293 10.027469889903797
Zr 10.447302451840647 7.346708493188161 13.295764949082074
Zr 15.110137933075567 8.984186501698838 9.63079265750113
Zr 13.53072564904989 15.679801159959823 8.392658962377848
Zr 10.892921677677457 10.33022764920169 13.167998003329545
Zr 12.40796643562431 8.465456155473571 11.146998571346376
Zr 12.018060988500222 14.325904799708626 10.397059534339427
Zr 11.494642187297105 17.258321506606116 9.991174194422456
Zr 9.169808237611509 11.885205859345215 15.10941830033168
Zr 14.68282318756248 10.878549540764642 7.373529161733221
Zr 10.892836198553494 11.100630742840512 10.272528730187704
Zr 10.416383393814774 13.26884290146606 12.455038754461249
Zr 12.171423079360324 12.750064868057919 7.656255803271172
Zr 8.2539346739722 9.195672537696714 13.838000915900006
Zr 12.407090365348173 9.621484032387567 8.383806932157436
Zr 9.207467064528485 15.537098677948174 10.66075835113796
Zr 9.244873585030774 8.74851665667603 11.109746053651405
Zr 10.606485394479538 15.351538119156874 8.025493808133312
Zr 8.284990008549414 11.447355575547967 11.959534995134199
Zr 9.361092743008397 13.061904378738792 9.227936324952491
