44
Energy = -325.00540929 eV
Zr 18.31254101288482 12.266695742244172 11.800144091440616
Zr 17.477733626102413 10.653110848161568 9.56550953791017
Zr 16.64854129141469 13.546113176618572 9.613746187659066
Zr 17.462398071506477 9.54699867636268 12.170857637906757
Zr 16.58620322018702 14.289875087533959 12.631607645144
Zr 16.63156065631122 11.611908674559807 14.200021419069344
Zr 14.875714224060788 15.572631031544205 10.76326484664646
Zr 14.943964646138632 11.1157394827176 8.277684621770035
Zr 15.377127817381707 11.62787984212889 11.523404927544481
Zr 13.83605831674451 13.931777071168632 8.456129938605098
Zr 15.269094778056129 8.799832677978108 10.277193681513177
Zr 14.223181602113788 13.565174584908359 14.184993413512004
Zr 14.965905782151676 8.966770377576987 13.451411529493953
Zr 13.014910013514543 13.380881382736781 11.30903795110121
Zr 12.002351573424653 15.900878620232445 10.066327803469184
Zr 14.06688727561125 10.725498312274253 15.781012874478307
Zr 12.786125071122534 16.187197258336028 13.017993663663797
Zr 12.584308025454064 8.934269479216294 8.207422103800589
Zr 12.51683197720275 10.736929291871103 10.1799185929619
Zr 12.258146888006534 11.70566101313572 7.323574343607704
Zr 12.576550909764467 10.776038305139643 13.228707602373126
Zr 12.733513423399767 7.925545400670443 11.777898520651393
Zr 10.587198569367617 13.431346924854179 9.090214317863628
Zr 12.161781847313469 8.604558920423791 14.983685056633188
Zr 12.7565181041325 15.54916510357063 15.853026797323256
Zr 13.220365901683705 13.100220703110532 17.038312353464274
Zr 10.306090476899998 14.353427370730731 12.216470010407493
Zr 10.182408257397435 17.329453522706444 12.046239919123355
Zr 9.865544307046717 10.616047964061707 8.635747071914594
Zr 10.279302365097536 8.363689662287332 10.110959909194719
Zr 10.178915762725843 11.30445929522545 11.692882059953282
Zr 10.141717684514528 8.148739072216967 12.829135267323355
Zr 8.985021089953294 15.804414527264228 9.991036193456399
Zr 11.12572380770558 13.106814500085035 14.742419987370653
Zr 10.238524499190913 16.40374197161908 14.766697155876527
Zr 11.246121412685998 10.943261329465862 16.894026149292976
Zr 9.433949790577756 10.144777022693662 14.52349449440298
Zr 8.010305181948477 13.134273044776881 10.612571440030106
Zr 10.48497068203278 14.183738886752574 17.34307852437849
Zr 7.784973409715788 15.543737299722693 12.685522598197478
Zr 7.951874005146468 9.807800026372446 11.712058170925943
Zr 7.745346363872226 12.476121902870121 13.468370485706123
Zr 8.650931785538853 12.109419201712447 16.379219344137727
Zr 8.267767857704364 14.584459587525092 15.372431815260372
