47
Energy = -345.7339989 eV
Zr 18.102893175743894 14.800490158613107 10.522762482822952
Zr 17.336381261405986 12.31521513585745 9.44611082109115
Zr 17.407466959710558 15.536481413819867 13.28157854571416
Zr 15.67000128501547 14.9434580587786 8.725334725985146
Zr 17.770756616875943 12.582319362707223 12.637988903498833
Zr 17.70674929886226 10.05801072703155 11.147485998127387
Zr 14.683137097984844 17.102421274205987 13.137543719309864
Zr 16.25352146448418 16.89628893068815 10.831100213582719
Zr 14.823637771502428 12.290350513078511 8.084716496999743
Zr 17.498729910541737 13.8169786576094 15.708004018584608
Zr 15.725249351317798 9.56732220064515 8.781739763295931
Zr 16.14055618706559 11.452688149987148 16.595526093715527
Zr 15.73257327713501 16.10559555628819 15.53368734186279
Zr 16.014627650072175 10.242182536171258 13.72571069142839
Zr 15.009155187057019 13.188733018505092 14.438188700519932
Zr 15.365123400727095 13.973999714685583 11.412808822371028
Zr 15.797706801758768 8.159404855607622 11.529752993705676
Zr 14.735244034523918 10.96172045959298 11.046695691974925
Zr 12.845262228927403 14.667938559822295 12.9137873448339
Zr 12.847205469993082 13.616011729346194 9.735823606343363
Zr 15.041028549293038 14.189360480603904 17.47455257003725
Zr 13.409168652633495 16.41444225317334 10.450506912331695
Zr 12.67122194635093 10.636013487344902 8.774354829116891
Zr 11.59348316582436 17.270860893226196 12.837037072085133
Zr 12.874428574949674 15.867320941632052 15.789084038077078
Zr 13.443247273323738 8.208229648445403 10.074252856548032
Zr 12.509440189153953 11.803332935578 12.735053261878715
Zr 12.18676439220663 12.968731624231726 15.548598836379051
Zr 12.221575280348763 13.97408537999016 18.361194426559337
Zr 13.375335017646583 8.685053909039537 13.038986468487979
Zr 10.46092407848118 15.243247904811337 10.871273779511572
Zr 13.607771867422715 10.18497949376545 15.588616265132018
Zr 13.802080871204463 11.67225846512489 18.080787947079536
Zr 10.280567434701332 12.268639943699018 10.477188473882922
Zr 10.07719817790437 16.30215776000792 15.072173490245973
Zr 11.266352428652942 9.555121418186003 11.239269336716365
Zr 9.936576091563461 13.628452620189911 13.53559429834094
Zr 10.84981559653169 10.076476369089791 14.551442311632483
Zr 9.811353200509389 14.108933744856374 16.973011591960656
Zr 8.447402881975101 16.470959081363283 12.64041559997774
Zr 11.044226782638535 11.252646971931817 17.434182655762005
Zr 7.8608642303681755 13.770416085423118 11.334317509390317
Zr 8.85178116617338 10.969466504085586 12.635386301804658
Zr 7.561312167118722 14.810063474739838 15.024419174608958
Zr 8.622638096650858 11.774721290942763 15.599193607193326
Zr 5.879404969056143 14.967121728223027 12.828561506626874
Zr 6.591624040778044 12.374897068200871 13.652024629866094
