45
Energy = -332.40481159 eV
Zr 11.751768717180019 17.771635561924832 10.21679192707466
Zr 14.176181623507615 17.559187184024164 11.857389870837101
Zr 13.650647198799046 15.6420955925021 9.350389944631162
Zr 11.439102841814016 18.14621930284312 12.967557646491366
Zr 16.216514549368092 16.82706909171046 13.648685251605448
Zr 13.365388888757424 17.253432163453915 14.816878204141073
Zr 10.520967241132256 15.63975769116877 8.834538742958449
Zr 9.369211501108024 16.532794486107928 11.623187288850241
Zr 15.950617902480698 14.903843642312964 11.260327328078738
Zr 12.024682574621727 15.381684363330805 12.004718244994962
Zr 14.281678191036189 14.66536908358071 13.766231515199422
Zr 15.527462286788145 15.6805602084966 16.16035413504725
Zr 12.305933557010599 13.613987593688517 7.876057685603791
Zr 10.514957004520719 15.755412577343636 14.580490510893151
Zr 15.042485957577302 12.723859546341254 8.821215589742502
Zr 17.208575323614934 14.099104752239883 14.013625952726711
Zr 8.043425092536888 14.62034027989286 9.992697323427105
Zr 12.657835679010272 14.540948003846893 16.258524291375977
Zr 16.710980398938307 11.98191824916669 11.64859396159942
Zr 9.406389449481638 12.622311184444643 8.152685554465572
Zr 13.55564795777795 12.899718771123046 10.973439850188903
Zr 10.551379402811246 13.067992889910192 10.617525719636046
Zr 12.126391534598076 10.99974409429446 8.717070529491693
Zr 17.397860853609068 11.290166068554504 14.527648153677738
Zr 14.604481325933387 11.811619956171993 13.688072938279737
Zr 11.605267590535613 10.631702367089636 11.760636990348438
Zr 7.746777637835904 12.01512628247917 10.738023943300716
Zr 11.533668618262176 12.739834421700579 13.826437643411642
Zr 8.548319265861505 13.960115328123921 12.99692068706545
Zr 15.653775422693482 12.893821784436707 16.373952733812704
Zr 9.696224514496613 12.824441465337614 15.729988786121984
Zr 14.459123005846346 9.94692367400834 10.842051572569952
Zr 12.77546269653233 11.499653674090663 16.341993699800526
Zr 12.006567314930594 8.32200476323863 10.061908089147568
Zr 15.265614962022894 9.8301070622135 15.965859642023513
Zr 8.89886704453658 11.012269217041297 13.15493781055114
Zr 9.547836126504349 9.952958750709241 9.852782555395612
Zr 15.960359965683402 9.108429281327815 13.134391211300244
Zr 13.00148534900957 9.47118027760213 13.978625700754403
Zr 10.319734152015549 8.055737434327378 12.535886951154481
Zr 10.331991167604968 9.723988669704537 15.296804288290211
Zr 13.31289400293744 7.116543306894642 12.266154482242431
Zr 12.658511304848586 8.57661074787422 16.80032938897026
Zr 14.466319773393382 7.106352339641917 14.996511452408274
Zr 11.598112531978423 6.924079102194875 14.717809675171235
