40
Energy = -294.07901676 eV
Zr 13.282905754267297 17.186139213928023 12.127843203796123
Zr 15.722487709399214 16.13649986517719 13.34162214971163
Zr 12.193766720059545 15.875156906149234 9.837678589510604
Zr 15.401159823555588 15.924476382429441 10.32772751214298
Zr 13.015444794184745 15.667581753263713 14.687071125205266
Zr 10.836299208374703 15.321748185833192 12.473415067929192
Zr 9.458483916765342 13.976577584753603 10.128495162862542
Zr 13.918030933148417 14.316343602778556 12.110752794588176
Zr 13.998917126736387 14.302351196030674 8.340578978716232
Zr 11.346669615574058 13.293301134719373 7.696316676865222
Zr 10.25492074383763 14.327943715744228 15.331106541522184
Zr 16.839648361024405 13.68148946554104 12.21147233775069
Zr 15.853066557982356 12.883810306771485 9.766871493805745
Zr 12.769975154615569 13.846704997767779 16.904386146885418
Zr 15.243459951022592 13.550022209415559 14.88230476639961
Zr 8.448928875725247 12.136520357570584 15.48278032638038
Zr 12.605608210160486 12.470252638655456 14.298188457413305
Zr 12.287383565134348 12.873535718351462 10.500836850991304
Zr 10.093796730349883 12.161455003922601 12.852643621225555
Zr 14.622541891021408 11.405545494897593 11.85740569629516
Zr 14.032123276215371 11.396768402247567 16.766784193871462
Zr 7.940863164185391 13.69731572845707 12.949800293430417
Zr 13.642822670417386 11.306179750735042 8.019525659483959
Zr 8.08027593076914 11.222061220912895 10.678512616331432
Zr 8.898659739105307 11.847480169207408 8.090181200959515
Zr 11.158607810085499 10.540792599184222 9.799110500525012
Zr 15.108536925843481 10.412331532894404 14.371215372186217
Zr 10.946840964590583 10.533533828113788 6.762520558480124
Zr 10.983141772785025 11.509880704222876 16.619093871636473
Zr 11.984380821381738 9.941495627032575 12.697164903870219
Zr 7.441768077867659 10.716511211189564 13.389997414705965
Zr 14.039743863725734 9.099917806391998 10.103365667520283
Zr 9.630659252954807 9.428107413739186 14.9531326395637
Zr 12.653388012741868 9.067478831353847 15.570113086334342
Zr 12.277950518900465 8.474983711026088 7.9925924725642155
Zr 9.087442425144754 8.689308266699912 12.006667889590902
Zr 9.26219484226824 8.86020569293583 8.777050659894574
Zr 13.95921729937742 7.993373733026369 12.923597585415775
Zr 11.638783813654255 7.529628903901666 10.751933635438839
Zr 11.163689319119232 7.3181027281529945 13.65879726319064
