47
Energy = -346.98738031 eV
Zr 7.163419354739898 12.33979659569677 13.684419664636573
Zr 7.246209430458803 12.729962720821234 10.774132982020166
Zr 7.224213502310828 9.99870729752061 11.651285421704262
Zr 9.417257916544479 13.961419222688608 15.218581342140043
Zr 10.856873768953438 16.403978987873 14.170161038391697
Zr 9.223577460082838 14.771615215160054 12.127801285397911
Zr 9.927421694854312 16.34701532179465 9.421563694625904
Zr 8.752344755672146 9.112709114382023 13.981854847483525
Zr 11.579379554894015 17.64772379666473 11.678678528281154
Zr 9.18521588647553 11.162418972781323 15.742922743010523
Zr 8.780822023691993 10.65237312280572 9.16132143526232
Zr 12.711363896289331 15.185415873305647 15.895890978320313
Zr 9.501763597248631 11.701463492217353 12.411502335374182
Zr 11.726262450517043 12.143919418646265 16.7676592421958
Zr 9.276248764489214 13.596152325744855 8.905927754691737
Zr 9.95374445688675 8.71699806044443 11.23651456911632
Zr 11.685752180382803 13.320139350212902 13.691959261440402
Zr 13.615350955992247 17.630281731114437 14.07066857856025
Zr 12.593770489051495 17.083135240905207 8.94670436959079
Zr 12.018049710433509 14.405091013500348 7.826729485965001
Zr 11.230690930247752 9.001331976909142 16.392542129265415
Zr 14.464889001420934 17.4243117522431 10.980121339949289
Zr 11.886367029515846 14.704667940813017 10.719720932908892
Zr 11.595134895670038 10.338117391458841 14.051970727949032
Zr 10.989545490934344 11.771426505898022 7.404878810090978
Zr 13.52795895096651 15.33657257849837 12.879128116653982
Zr 11.36585106264829 11.774356376676462 10.309551272782677
Zr 11.633298759539802 7.332820447386717 13.295496686915557
Zr 14.457268846079172 13.184285695602775 17.189234891776586
Zr 14.09680454466322 12.058464160282286 14.47034931485288
Zr 14.71649211473702 14.915255860573703 9.21970915360144
Zr 12.315810272352428 7.019412513905401 10.486212245133514
Zr 11.618409051364043 9.248167619094483 8.702419900089488
Zr 13.087676241239775 9.691404965822642 11.716850178773829
Zr 14.218933504730481 10.262840863966458 16.72867116079536
Zr 14.275135539113538 12.672999509076822 11.650039829464236
Zr 15.72094497318587 14.714709767102995 14.876973654074705
Zr 13.710837658958312 8.155113626176593 14.836911630092482
Zr 13.918857965797752 11.710620566639765 8.858332845714605
Zr 16.381001968107622 15.263182726070756 11.656965208847938
Zr 14.41617985079191 8.60420679346056 9.304302995527076
Zr 16.623614658896997 11.964022895857992 15.830112871976478
Zr 14.729556257283926 7.4001991200265325 12.091749640025615
Zr 15.905102553604143 9.744898354339197 13.892810539807675
Zr 16.664749595610186 12.892218051397593 9.971386729175777
Zr 16.993448663298576 12.631032546584706 12.983518497681564
Zr 16.043538986630114 10.268186708734715 11.006866627518965
