44
Energy = -322.71900883 eV
Zr 9.645476781957635 12.360040627890818 14.92083989626187
Zr 8.674648476406212 9.749801763622425 13.7630311549079
Zr 7.424776415553198 11.92928157122783 12.804438020881388
Zr 8.088038822228173 12.87514491094797 10.286090264316273
Zr 8.376051439179998 9.906258008976243 10.806621280479623
Zr 10.589884320298834 14.58594188685857 16.646144647979465
Zr 11.107580917357753 9.611091461022207 15.060214404892509
Zr 10.712303495241077 8.447573111221528 12.230387112748133
Zr 11.710398859132939 11.871349360372193 17.04905587927344
Zr 8.949521880772144 14.442718497881483 12.762089917802813
Zr 10.418080931073566 11.750927991432816 11.98500106085685
Zr 13.346334161762199 8.329024734732426 13.526010469690908
Zr 11.737824813894768 14.743772276869231 13.674401355976087
Zr 10.520225515399098 14.229105701436794 10.085602752565263
Zr 10.040300429352328 11.436877159786256 8.705344402651944
Zr 13.922210036102895 9.997254459140407 16.213539390153063
Zr 10.623258047949435 8.845161367204579 9.469805395705695
Zr 9.96398883562291 16.738020871708997 14.699415931000926
Zr 13.001259479626748 14.365951208520675 18.155368395938375
Zr 15.9259015699544 9.199221466172874 14.426415078632834
Zr 13.10295770936813 11.389760517035892 13.681295655902352
Zr 10.596246432168272 16.77608922324365 11.703799506364913
Zr 14.676484886190922 12.245493027267113 17.770355234821878
Zr 12.770124151379758 16.5068077462635 16.202350649290253
Zr 13.157853481163865 10.838828575115004 10.624161672767553
Zr 12.28745983356993 17.95518724250348 13.776264082368522
Zr 16.261415482317116 11.942080546387146 15.3570474680855
Zr 12.776529304774936 16.001654875773355 9.194992936694558
Zr 12.493259103824709 13.03093360695113 8.454742533650943
Zr 12.79500623372035 9.816821529828932 7.905416270537617
Zr 13.436057403517228 13.930980655285703 11.364990137833642
Zr 13.168275628558796 7.873279711798767 10.34771815046339
Zr 15.569879465643007 14.866452993999282 16.573709874045228
Zr 13.616958406537146 13.598872545983022 15.25774911770849
Zr 15.817387151438083 11.109355749010694 12.304359616735425
Zr 15.933132514715775 13.884827013933904 13.16261075553511
Zr 14.715181264673335 16.376249553801955 13.863720131359704
Zr 16.110324394157946 12.793993282908499 10.06611733007521
Zr 13.45850641041269 17.450490738197356 11.42584121609165
Zr 14.873260429204528 11.789874901726211 7.649327583549895
Zr 14.964444762044144 14.558695305191206 8.175160787356669
Zr 15.550397809959675 9.61802091471193 9.333270029943534
Zr 15.604694846557429 8.25948792572698 11.785954060051647
Zr 15.63555210870765 15.801076670795636 10.75952766097106
