45
Energy = -331.15053245 eV
Zr 17.688526641619056 12.79736249917498 11.344014298340637
Zr 18.194931680851276 10.110925404542025 12.506497584147947
Zr 16.598765537168372 9.426916427462142 14.647785349905467
Zr 16.295823770954712 15.306469633060912 10.265278173959869
Zr 17.446815209760263 12.234384831311859 14.378195454167614
Zr 16.527186655874587 14.772058825828617 13.311428772548771
Zr 15.843596553443287 8.325686315666866 12.024895956436376
Zr 14.85185014907019 16.772160062698216 12.403382856441103
Zr 17.037110007931858 10.114315331714518 10.03207822794351
Zr 15.9627226449355 14.067138609148797 16.108655659075467
Zr 14.270512933225895 16.043745769003348 15.142144880223798
Zr 15.757221068707654 12.438583929849528 9.058399918530343
Zr 13.09389750341677 16.52413757957725 10.256984302113914
Zr 15.103242005494721 11.365583036398146 16.160358846730386
Zr 14.014759008392838 13.815645811108363 11.149499939653404
Zr 15.245893307246773 11.191336577095745 12.363244103289487
Zr 13.808958855091491 9.342825330247798 14.342332230677089
Zr 13.215858711870302 13.754217074095466 16.942664552888882
Zr 13.635714023291094 13.261992812327252 14.064271949167594
Zr 14.102690957175172 14.721299976059361 8.180366347396678
Zr 12.070353560127542 16.157352745875734 12.970134603360492
Zr 14.183109162932592 9.806687013098548 9.78372347668768
Zr 12.71248047281018 12.077453465334553 8.995477384425886
Zr 11.948100539085738 17.076103519205606 7.875710006115868
Zr 10.207925543420178 16.60637218137029 10.530798533975416
Zr 11.832465917372403 11.015210284386646 12.25648240650015
Zr 12.691026284384531 8.3253718442754 11.805242864774474
Zr 12.158212827707581 11.200933243307912 16.123076602986966
Zr 10.895096527615197 13.736120035386241 11.524409627707648
Zr 11.165148339575037 15.219237235394099 15.494523874970636
Zr 10.925021994887057 8.934468448187149 14.460231748757616
Zr 10.887702071267713 9.691993693320313 9.63754205536963
Zr 9.796991947002557 12.185343375215991 8.828761656631217
Zr 11.229236496642955 14.580445785550673 8.67703196569098
Zr 10.109784802069415 12.555351500129733 14.34136611678881
Zr 9.048762555645412 15.6506107183834 13.046350963446473
Zr 9.917714225360974 13.059950686560358 17.302023021638462
Zr 8.596814704261499 11.211915656950712 11.134045048750933
Zr 9.473174824100326 10.303577587220357 16.495112046975017
Zr 9.790573449113499 8.615328021561792 11.928561939414111
Zr 8.2759600609384 14.19549883737523 10.407034048256326
Zr 8.265529713361397 14.719027384411053 15.59578423169163
Zr 8.15400548716736 10.230117343236614 13.810876947990394
Zr 7.3805296153008655 13.133287542172285 13.134640274933544
Zr 7.445881976596188 12.104511012429048 15.924518043765726
