46
Energy = -339.00036455 eV
Zr 17.379227693148817 14.306014871169836 12.051896350163796
Zr 16.263625394496287 15.759714874545203 9.607029624449119
Zr 16.107002879682902 11.742298551282015 12.310064417192212
Zr 15.782704018305346 12.644075376350656 9.372938065605522
Zr 17.02261334942018 10.090121859161957 10.098161044018362
Zr 15.297763977104838 8.830179959914735 12.031691639222872
Zr 15.834851784078369 16.936168731544708 12.213344764888088
Zr 17.03167499822918 12.940058809948821 15.072470067896088
Zr 17.279751099600663 15.908817560843174 14.498789718572416
Zr 14.068724186338885 14.824853859507886 8.120336611481479
Zr 14.44670810459272 10.798322724153982 14.44538388020639
Zr 14.369640495320724 14.242134725924755 11.157182357123931
Zr 13.23141059924997 11.160750593692924 11.581599684288443
Zr 12.740950499074911 12.392034984129037 8.490374733338115
Zr 14.355459188375097 9.764694660476948 9.305393223724094
Zr 14.681403952748912 17.187246422301385 14.957513724090346
Zr 15.62917171702058 15.13612234465693 16.69005180047063
Zr 12.701509272292903 16.302999826915464 13.04358334360696
Zr 13.469729424653174 16.978678361321993 10.045760749651631
Zr 13.388139031350907 7.939034222721872 14.30643344438544
Zr 14.825106303303857 14.212760651247699 13.968416668506142
Zr 14.134277721505939 12.711252465569313 16.61533394684898
Zr 11.586526503602025 14.080806574536364 10.9322040000097
Zr 10.696497138855587 16.954645990888814 11.045896236214004
Zr 12.131899992747995 12.955486493474526 13.847638805346554
Zr 12.724349348062322 9.783556312378245 16.6791066349622
Zr 12.508500478632856 8.142241270791551 11.312985253926277
Zr 10.84781435005505 6.937124385184985 13.345327191694935
Zr 11.282057158977159 15.44931084882907 8.49738446858321
Zr 12.657528283904128 15.209984056188699 15.889820202943186
Zr 9.677904616361861 12.72475289515642 8.61478323785961
Zr 11.279056634967475 12.338255790231138 16.72169470262567
Zr 11.175351352432944 9.992949425867247 13.896183900316277
Zr 10.949270896235815 7.636754792753335 15.993332546268345
Zr 9.79404483619346 11.97877308386991 11.616329242626916
Zr 9.904678700838632 15.138004228332196 13.336056670758877
Zr 8.739935490033966 14.931701903692684 10.450341977758772
Zr 11.157207322682131 10.105178008393661 9.412374894921737
Zr 9.726134325902924 10.03730937090006 16.70179121724699
Zr 9.458172435195085 8.621508565849663 11.454178767728225
Zr 9.14033660506875 12.169563804868861 14.679973363244203
Zr 7.060951974219498 12.622441979938877 10.238592235046715
Zr 8.240396209986871 10.28175109569855 9.532733822963314
Zr 8.625198173693317 8.596675384202223 14.37969901756443
Zr 7.330124215560028 10.614334061001427 12.416687065962929
Zr 7.503894099827109 13.620573007048703 12.81498575669816
