46
Energy = -339.09543306 eV
Zr 16.950154266771126 15.226983535677604 13.962369281629565
Zr 17.531425405933874 12.275360060375506 14.373766735914502
Zr 14.256037925143914 15.933870053963206 15.910091959735654
Zr 16.17889113038115 13.68107259866092 16.55465854368954
Zr 17.476091850076624 13.310093409576016 11.617042783369026
Zr 16.221294859629975 15.97027407890447 11.341808584573803
Zr 16.17793464421798 14.386493004279265 8.947568567113402
Zr 14.13914644018545 14.625287040027894 18.485926622037773
Zr 13.561365134217816 16.396205617966782 10.135173530073137
Zr 14.57972735525102 11.693855932018314 18.366300495340802
Zr 11.097038980269051 17.09357430233066 14.712298968139166
Zr 13.885972504024155 16.229575350766588 13.079079877964856
Zr 15.009188243385353 10.59581526888441 15.501319485384142
Zr 14.860302974091468 13.300093889331754 13.739869225919938
Zr 16.331984367350106 11.238142920417497 9.597157072985064
Zr 12.7243224359474 14.5198178991195 8.312637886171878
Zr 11.430087367601299 17.37884017742379 11.959511150092279
Zr 16.073779280943693 10.653335114666168 12.419886384224274
Zr 11.501763895560646 15.314949762552345 17.225049916425892
Zr 14.361170678510573 13.476648316470783 10.848381184032124
Zr 13.235371616004919 13.018965074939137 16.191044961312553
Zr 14.566659760233442 12.317522359143213 7.749512850905199
Zr 11.902689665084164 12.781455235833006 18.82949505645476
Zr 12.603186743407225 11.22233236864275 13.827437236096062
Zr 11.662808395252293 14.333704420910438 14.188344930281662
Zr 13.43909308527786 10.765458534317245 10.859871147687967
Zr 13.972532109051144 9.62872637959335 8.209276499280564
Zr 12.083653635766293 10.380954772837603 17.109500150405154
Zr 9.101298839220624 15.090521144267438 15.524517532142927
Zr 9.850654871014981 13.746160027705248 8.437678249579434
Zr 10.064817409627961 12.527820328392252 16.548570243402807
Zr 14.497327956934592 8.475458095502388 13.315255470041526
Zr 11.518733265273195 14.323260248661706 11.231071156539734
Zr 9.078471027081665 15.798344937981588 12.748692631400367
Zr 10.809901860465315 11.581486999264948 11.424816851951055
Zr 11.798856065683225 11.669428833742778 8.243190390318652
Zr 12.501601203421949 8.490280188122382 15.138617617940389
Zr 14.589430159615137 8.261751568634688 10.560769203883172
Zr 9.974923382367294 16.174237373270937 9.814114208357166
Zr 8.934947231212657 12.786614850813722 13.654374133576713
Zr 9.995755130786728 10.0864445055883 14.667588198916178
Zr 8.969023174917023 11.179458364467292 9.073176179833808
Zr 11.589995396001477 8.658447920294057 12.35458464380244
Zr 8.332602416254606 13.465065716466377 10.861639297962496
Zr 11.182145258369069 9.14768701943826 9.5670703522127
Zr 8.506137860136988 10.281183977011597 11.837602802141292
