40
Energy = -293.51662142 eV
Zr 16.960271766353472 12.0765088885148 13.038003529786181
Zr 16.359131713144407 9.37521003462958 13.463793259861653
Zr 15.301728664123523 11.438679459658413 15.519396519472087
Zr 15.467772608288666 13.475498571565595 10.900221455639542
Zr 15.132278731622355 14.143525488888796 14.047544015536362
Zr 15.989835198672946 10.437936994631086 10.540323960445411
Zr 13.989526209231622 8.84689127391605 14.818635203290059
Zr 15.433818825399426 12.174588837094172 8.099806796057258
Zr 14.261851070607355 16.19419141467159 12.047234218047723
Zr 14.131204045832305 11.122732664567101 12.702506002868324
Zr 13.284214329674024 14.33346367420864 8.714150205760083
Zr 13.50544332281592 13.632285815232395 16.483133779887783
Zr 14.060742670151678 8.305941296809046 11.72046301273
Zr 12.307577874954383 10.89403220603076 16.3956324124464
Zr 12.450245842760145 15.616054022489557 14.5609466002222
Zr 12.581640505640506 14.148016619044759 11.585296494343266
Zr 14.088732366963965 9.466545316290713 8.06111551565935
Zr 13.212349950569958 11.62355897837455 9.845949551845418
Zr 12.245812295513161 12.509688695007295 14.086487297880042
Zr 12.812766311883438 11.934180455319515 6.950374355627063
Zr 11.080824564540833 16.891162069313314 12.26070252398814
Zr 10.288344206898621 11.8616904716933 11.536567054017057
Zr 10.496133129209001 12.675125070150017 8.59043728813486
Zr 11.516150292676212 9.269033868118427 13.724625644452761
Zr 11.479268613892984 9.559070158523463 10.768423393390957
Zr 11.25009932840133 6.944999049044949 11.881538916424441
Zr 12.376443149287182 7.335879420054362 9.16344393086787
Zr 9.98413855670106 14.070778587144707 13.076573970069457
Zr 10.18873444329079 15.161255546350292 10.116518404781873
Zr 8.893783925774867 8.930977399782947 12.282151423370678
Zr 9.5029216591878 16.34986218408747 14.73245171399854
Zr 10.48937862028166 13.701149746422093 16.107990418017355
Zr 11.056729014528068 9.699556795086192 7.770202181218678
Zr 9.490135522757472 11.283664127567073 14.732974291683549
Zr 8.549537196292253 10.463063549084973 9.709771087279327
Zr 8.212456605223768 16.271514771431164 12.119715994995962
Zr 7.5324832867679605 11.534132669240178 12.584925368360976
Zr 9.553880280837063 7.734423210978333 9.55655330827868
Zr 7.755007817597725 13.672495601295985 10.899690208069027
Zr 7.443517204676173 14.111043088333092 14.059595171634662
