45
Energy = -331.28829162 eV
Zr 13.474939901978571 9.936994229056454 9.71882965428866
Zr 16.15395117054099 9.196184165498089 13.481588180573471
Zr 11.553218560377008 8.008318113215537 9.927929811414176
Zr 11.553633924358644 10.425259874070175 12.162208858684226
Zr 16.297823655923978 9.9323922931365 10.65624356022629
Zr 17.853642704341265 11.479672968781763 12.751648273942347
Zr 13.474527178920342 9.696111775496707 14.883962220723275
Zr 17.959000316919674 14.093979847786523 14.43325874073707
Zr 11.966165851501252 12.33805143155744 9.772319103111942
Zr 18.67326163121117 14.173222978632868 11.602299870936951
Zr 14.279685937489393 11.327969305275099 12.504020041573606
Zr 15.668889397920767 13.629130410494586 11.537932913469099
Zr 8.521781621918176 10.421375277744545 12.9759566785541
Zr 16.248795239717026 11.561726387120713 15.189515179892412
Zr 13.345260226780534 12.58722828713037 15.617231698018104
Zr 11.398995561118348 10.748448187536274 16.976860305572092
Zr 10.37286983320009 9.296055672674742 14.851268740317458
Zr 11.137955941526707 15.584747225124424 10.18800294297171
Zr 16.04412496150955 13.918087474824215 16.847328406084007
Zr 10.633888114235592 12.457768306869813 14.270281124574542
Zr 13.702501053398258 8.354832745114253 12.152470139383547
Zr 9.997084442625972 7.941024686336213 12.125683944841153
Zr 13.723165994343512 15.696568764812337 16.58161412029669
Zr 17.84597337594887 12.2311572509312 9.858196990913376
Zr 14.978646818025052 14.350157351087473 14.1468044817664
Zr 12.468651320188581 14.13540146622331 12.173335627973003
Zr 17.004881466189325 16.326265440166186 12.556516524208748
Zr 9.543025447801798 10.018426414368184 10.073509245346944
Zr 10.610239271191809 16.521501695432153 17.15469529912375
Zr 9.43007638949874 12.828066881809747 11.144143942780051
Zr 10.91555632179431 13.486725181051371 17.137978062832307
Zr 11.694257695472126 15.315406459180636 14.714833135728163
Zr 16.490342774762095 16.459143271112552 15.532316408677017
Zr 16.71641147589016 15.045842275437382 9.488578113582749
Zr 8.614899700282187 11.535244310350269 16.002697224561793
Zr 15.118300548598882 12.220864387738807 8.909244704407875
Zr 12.163699490749874 18.183112645580554 15.409959514036421
Zr 8.708945154011404 14.751173052029213 15.728343493176133
Zr 7.812011658784292 13.171720991679994 13.486828649567375
Zr 13.65321782617449 14.625496442993752 9.136743092572525
Zr 9.33345876709906 15.450990343780981 12.604854488903491
Zr 14.237269679503479 16.501542756751764 11.011229999351531
Zr 11.464821719938948 17.568230354243727 12.487894732413432
Zr 14.191043457654805 17.130515205123384 13.73685008817958
Zr 9.461256372220445 17.4613296195939 14.698272787367307
