48
Energy = -355.68287303 eV
Zr 14.457165724257141 10.856837179445444 17.50970043847869
Zr 15.480106562714653 8.632219268877666 15.897498737067501
Zr 11.093179388492262 11.192654952958558 17.377933993859234
Zr 8.532287753569534 11.752195905158192 15.784166411615246
Zr 9.755902085152002 9.272435906803464 15.67160128344592
Zr 12.61111686036496 9.03856484271194 16.017126659784367
Zr 14.197935475494129 8.222340917896522 13.455290383063787
Zr 11.108328778023413 8.478686080661555 13.33467404731318
Zr 15.972284674253824 13.275765900268283 16.465714689781894
Zr 13.016947324100078 13.437422371693955 16.623969411204104
Zr 10.281035769844022 13.90313046413272 16.285953860560138
Zr 16.884048518073545 9.612067774348596 13.46275886731302
Zr 9.000840553403894 13.56537413522998 13.44201154316628
Zr 8.769987042337393 10.392909900314159 13.16962218233151
Zr 14.84180069338151 15.861106006100657 16.74031452785605
Zr 12.065191754009279 16.477031835350576 16.322972269051917
Zr 10.353606844676504 8.664075773091275 10.474011084917374
Zr 11.331071831645888 11.662290991076484 14.301258567272058
Zr 15.222887909735153 8.721171752006834 10.671521508601414
Zr 12.747358267388739 7.126532059831756 11.276145301870658
Zr 12.755518693218706 10.260870760614193 11.33005403374726
Zr 17.17818726094169 10.765489437184833 16.11348806984305
Zr 9.226595883277124 16.262790826905587 15.08580943066347
Zr 14.53228467276398 11.248629138929486 14.465542520256607
Zr 12.902799672133778 8.312517911644628 8.8306491923884
Zr 10.239809881850505 11.895152112484235 11.122339634208057
Zr 11.536716356347036 15.02293606215552 13.67011782004669
Zr 16.850819094075767 15.949085817596442 14.576297848627927
Zr 17.200715914043553 12.672848503028753 13.85273666772049
Zr 9.187146620955444 16.573070572549977 12.41456612664788
Zr 11.287195175080708 10.504364503902657 8.522858251783045
Zr 14.51329758724045 14.369662471475449 14.095096560368441
Zr 15.71758796507439 11.706674875217637 11.537769696678815
Zr 12.961022386330582 13.216227396261136 11.77225653309964
Zr 10.590801954382997 14.96514360533248 10.517611276755554
Zr 14.298799648513933 10.859772230787616 8.787093479634516
Zr 11.323528715330085 18.11810405105572 13.955793984433816
Zr 14.271756173356366 17.717764410445266 14.668864376194426
Zr 16.60412266013858 14.85810640592935 11.764585180775384
Zr 13.671650546752991 16.278839474487874 11.790502146373557
Zr 14.948013580395408 13.870101812124206 9.466949642603
Zr 11.282838183087144 17.89495346837954 10.843911113077564
Zr 12.184641157272315 13.037066446535032 8.928729473834595
Zr 12.883860795218329 16.12097888151553 8.88147484260879
Zr 13.423368565963393 19.28031402004689 12.429543598295325
Zr 15.791105446553987 16.53502708279326 9.536853124993973
Zr 14.035810303404395 18.625012542526274 9.860566339223812
Zr 16.067456280244006 17.940960091305087 12.128929468869593
