48
Energy = -355.37517856 eV
Zr 9.345826767511259 9.331584374095065 9.769440094406512
Zr 8.975720870872932 9.45665242233358 12.644766812481896
Zr 8.570676138331361 11.951896179879155 10.85288522009147
Zr 10.511374503779951 11.91070961611038 8.664701043189947
Zr 11.850083323473836 9.20401908263751 8.6494964193509
Zr 11.46607255081503 7.778026468857202 11.267274792202398
Zr 7.061213345309748 11.683563979540216 13.35150856357164
Zr 8.657083241928255 10.496868332931376 15.629878319388274
Zr 9.474960861565357 14.75077687615364 9.645876368517852
Zr 11.608141248118972 10.545355294914582 11.450018253709697
Zr 11.225320508880088 8.96070799167824 14.27486191575669
Zr 13.500824421696889 11.557674424537666 8.717933126956682
Zr 12.435585470543469 14.309009682873763 8.619285109952052
Zr 14.156883085396906 8.99959854845487 10.1844143377908
Zr 7.7719500268036 13.426598572098067 15.4031702692515
Zr 8.166843680510105 14.422241665184712 12.538602412073955
Zr 11.213576427796298 13.615214490359582 11.413002033841222
Zr 9.940935147990075 12.24400566051188 13.728746559178749
Zr 14.065151752645072 9.285023110951677 13.085473631643142
Zr 10.171910382958895 12.905878856254903 16.89014409009541
Zr 11.283090128166274 16.89679234108413 9.472370656991853
Zr 15.383689250421918 14.176651997046708 9.826150848876727
Zr 14.078727384776567 12.436982500705259 11.736455645076655
Zr 11.285171337784902 10.214020879845034 16.920107242990134
Zr 13.384444247136884 15.728425804079885 11.558147419299932
Zr 9.837246594832877 15.381359399247751 14.893338313348135
Zr 12.618205286360142 11.5863770663344 14.571973459665728
Zr 13.994359141640953 16.782154403014605 8.811281579106659
Zr 16.061228455434616 11.16840870801539 9.943115312813813
Zr 10.348155283363269 16.664298076119582 12.18995210639893
Zr 15.822827606460628 11.627135949781549 13.958058911415144
Zr 17.074166351070772 9.64172657071855 12.064547729879523
Zr 16.025494417942806 14.89618039600831 13.04461446384841
Zr 17.668792225444733 12.737497475537614 11.87402020348669
Zr 12.962832536137922 12.32087583374154 17.62735954419407
Zr 12.714233454665703 14.422262641189992 14.019455879152204
Zr 14.291560043769092 9.97225037901562 16.156252937511667
Zr 15.868611675674204 17.085427702751897 10.764366667356269
Zr 16.69269066544553 8.897476292023564 14.853213416422358
Zr 12.98327709468739 18.478651638067397 11.287703684477668
Zr 12.297599072991742 15.12304565558108 16.692969206521663
Zr 15.033065521262946 17.804444615220337 13.26761528841743
Zr 12.270740713563962 17.450532022113126 14.309752442758898
Zr 18.723815529970047 10.874057645156096 14.092135838159958
Zr 15.002087528054346 13.483487994727351 16.006775241284874
Zr 17.898592388160086 13.53339022443987 14.884877082616317
Zr 17.144410730394895 11.262179614485373 16.570115406600202
Zr 14.711523696905122 16.26345857942699 15.45726373647216
