47
Energy = -345.32859842 eV
Zr 17.466831086252306 11.308696814448549 11.489137864522844
Zr 17.282363305914593 13.257023139813608 9.285456228165154
Zr 12.253699348579719 17.970379011805594 10.876798411883717
Zr 14.912002820226467 14.597548522319638 8.975994736406122
Zr 14.14867016139384 17.275417995984363 9.24808276556254
Zr 15.895986222117058 10.70658942962072 9.075369764001804
Zr 14.873298586984212 9.647167081397026 12.173743402810107
Zr 13.188732107089258 9.942648134652995 9.531147101536023
Zr 16.965681734599787 14.317236391363055 11.93168767684024
Zr 11.95951006445429 12.348841870598784 9.025732001232198
Zr 12.309331657403257 14.820300034416718 10.345165971316092
Zr 16.758535556734703 16.742200160443684 10.13378080996883
Zr 15.052967874942194 18.85905591147389 11.713574792026348
Zr 15.4211309425242 12.357250598025887 13.65739016381886
Zr 12.093013504256895 8.36711121321519 11.505546924626557
Zr 16.047428867465232 15.001194312027351 14.947712716888764
Zr 12.651592677889765 8.5507784699514 14.260028496205836
Zr 17.29182448172671 17.040072425644738 12.914066551349201
Zr 9.70649347517203 13.444788307984513 10.965200063215761
Zr 12.622381980927631 18.32382064178741 13.633819704278968
Zr 10.944098044617345 16.055125798730856 12.500572843191682
Zr 14.447388287762296 16.054916634330763 12.185162642299703
Zr 14.553898887039091 12.518619388146515 10.89470515213208
Zr 8.255856406493706 15.611637208366819 13.417774992600421
Zr 15.299204931465015 17.932892004680447 14.573920759369459
Zr 8.166951207727823 11.083970516734057 11.88403386127908
Zr 17.355796024270326 10.092644238434094 14.100306345481727
Zr 18.26370319725358 12.844788602058605 14.080802939467244
Zr 10.24451107177201 10.163242617059707 10.242786749972188
Zr 12.94108102729985 14.142128130530192 13.960431761661376
Zr 14.272591235175657 13.618705465336873 17.098379772892418
Zr 10.009477540898525 13.062007633198892 13.887213687509917
Zr 7.045882750243354 13.31796541448862 13.064898528189486
Zr 10.372723284509954 15.987654246021856 15.23568464254553
Zr 13.35450933285622 16.379006659322254 15.817436517499823
Zr 9.987855983127684 9.479508941145776 13.339038459931832
Zr 13.105679118119523 11.40155626449688 15.364743722767379
Zr 16.602152161519303 11.855651310050195 16.339039404674118
Zr 12.090750227834981 11.461505917220016 12.083305968938703
Zr 15.196627629976883 9.181136715883325 15.649376434553615
Zr 7.737575482965689 11.078059177466969 14.641762333357295
Zr 11.384930045528595 13.834510461950286 16.606508431943844
Zr 8.167515131779101 13.792825699084823 15.868006569000835
Zr 10.238404947581278 10.920144771476442 16.109865466274865
Zr 12.116519270475592 11.702435853047247 18.262198791313423
Zr 12.479751409233687 9.062526412881109 17.1072536409493
Zr 14.651612319591598 10.701679511313493 18.05551434724342
