49
Energy = -361.66160427 eV
Zr 15.207414783099665 9.631494207717727 9.80850895217051
Zr 17.08588796842239 11.308134466781663 11.604129315576948
Zr 16.464471562208818 12.225652433090653 8.811260091250809
Zr 17.926752814752405 14.024063150210049 10.505685759278917
Zr 14.374403673966178 10.85606593634964 7.232480327148346
Zr 18.08667850008881 13.946479600212282 13.36261811914249
Zr 15.328257843816338 9.185202121871665 12.867572112420108
Zr 12.644060787629407 9.20723235494432 11.471249687701278
Zr 15.532188072952529 15.13471040888916 9.287857967406124
Zr 14.320024787091075 13.574717078941454 7.268261718498228
Zr 16.666044330171108 11.509054614807189 14.550593536653764
Zr 16.95962911052646 16.46568183109332 11.89018490469227
Zr 13.612576039230852 12.182688612409908 10.04081729818247
Zr 15.405484799057238 13.704639472833888 12.036853569885064
Zr 17.772816693303007 16.5157267678983 14.683115776543943
Zr 12.391038558360053 9.645490951089728 8.699236701328514
Zr 16.694844227042044 14.040502827618505 16.086142989897045
Zr 15.000718313421118 9.43374882826759 15.705472398190507
Zr 12.645121742590579 8.510275270114489 14.367793251430477
Zr 14.164017777219081 17.090567246461546 11.252523128865846
Zr 12.48844094451098 14.94759316274861 8.98139253214196
Zr 13.662553567270201 11.384956772417643 13.522603942075955
Zr 11.771754733167219 12.247607463672665 7.643166258107328
Zr 10.74858847708376 12.66359647404957 13.012726386612133
Zr 10.664744906397457 11.293418774712851 10.33581284915915
Zr 14.956856616711518 15.646334481639528 14.042644492731453
Zr 11.239079535024125 16.9450114867256 10.622384986250388
Zr 10.048483934166264 9.629308261453462 13.008383899771717
Zr 14.637168841920595 11.944249459269312 16.843976038309265
Zr 11.344898506188205 11.7014295379993 15.588234037875017
Zr 12.535134283573901 9.590211495726283 17.22953597658567
Zr 9.734158117893577 14.12874458827182 10.490916187918046
Zr 15.951654884726961 16.93834798902312 16.668514135528984
Zr 13.032007605692867 14.045988660336157 15.118574428957423
Zr 10.060849686286561 8.89727977912207 15.696871262419801
Zr 12.468672165314086 14.640043420272088 11.93585363268884
Zr 9.553420496664078 16.121908458897682 12.617016282521503
Zr 15.336053652931469 18.30022236100731 14.0353978220882
Zr 12.270630115436747 17.141243846811353 13.503720529012675
Zr 12.021582132586598 12.33948544212091 18.45581623529535
Zr 8.248495180007186 11.635710716616003 11.88914951720139
Zr 14.317300962908774 14.862741018894221 17.76359081277522
Zr 8.4215957133699 11.42507645610438 14.944327753462609
Zr 9.714000840814414 10.616770679922277 17.78154172948491
Zr 9.322021580546519 13.288579327907893 17.38914911038931
Zr 7.914287999877079 13.969868413006857 13.234314895623363
Zr 11.460125331949444 15.09414328880842 17.624296666685826
Zr 13.113581425473793 17.108984607429143 16.1657755464944
Zr 10.139746449982605 14.994295447622786 15.087798156597604
