42
Energy = -307.80158514 eV
Zr 12.46060276881952 13.83904781999947 8.111374954894186
Zr 10.665663219579 11.757258804995478 9.133425259057903
Zr 10.542582514102884 14.51121717554125 10.198774783061959
Zr 13.220287046235304 11.194619600520026 7.984684563474482
Zr 13.39430363369971 15.648913945887353 10.050659381325337
Zr 9.347969851228397 9.65008223511641 10.318449790595132
Zr 8.700939975194961 12.36737265229029 11.247963637376143
Zr 8.792246756886685 15.10195536334242 12.601402235535128
Zr 15.221204129326194 13.24584596206737 8.753591705355957
Zr 15.200488797854176 10.347654084939977 9.599528989276132
Zr 14.415309334680101 17.766483643590277 12.13101322631231
Zr 13.27661933370477 12.652275650997598 10.91655245892883
Zr 8.056850538356075 12.760646519299573 13.99340406364936
Zr 8.375224365715242 9.988664764306689 13.106454371659032
Zr 16.03553355459174 15.013934762979863 11.066735856767847
Zr 10.233617576900723 7.8069411729174165 12.015092882581756
Zr 11.266088690091745 13.658533577793886 13.509037815516384
Zr 14.239501530301988 15.17018092992794 13.474886124603742
Zr 11.256994975963106 10.671343161626416 12.571122151274748
Zr 11.542130580185392 16.41192363228418 12.118795486270995
Zr 12.43478148921073 9.165498826203287 10.193964145506932
Zr 9.958312026482655 16.8891562719532 14.454542684108723
Zr 9.616026783267452 14.315011755771662 15.837603932403358
Zr 16.88914917059217 16.88908343524747 13.10319254248833
Zr 12.206243348565831 15.90791206613902 15.904293917043494
Zr 9.817511408851058 11.265907615185391 15.579777991431074
Zr 16.37275915940006 12.20522969955477 11.448521394230774
Zr 14.883328396077431 17.53246723574237 15.185016658885344
Zr 10.415528945382988 8.543217960291509 14.709030828515704
Zr 17.402966585749876 13.969426732014327 13.542426500125908
Zr 14.552047868469757 12.337070416303739 14.060635328925734
Zr 12.393080146682346 18.245058641970626 14.132641653695305
Zr 14.76371543028349 9.894148861450335 12.325318814917683
Zr 17.214608660400145 15.8376738738314 15.684616951681218
Zr 14.816472043573174 14.46165065227741 16.43372345639176
Zr 12.27515851745272 12.904094786808113 16.334415671940747
Zr 12.63447208794915 10.23945127795986 15.367054266246193
Zr 17.133748099567324 10.92614214038745 14.343844065715421
Zr 12.821587056420555 8.059144778176979 13.178122867514052
Zr 17.38033660805515 13.06287028104526 16.264783841909473
Zr 15.184461143066882 11.391708241041892 16.816162355354418
Zr 15.168449386213576 9.094175726842376 15.077558372312767
