44
Energy = -323.71664354 eV
Zr 17.499293374870952 11.254843697574888 11.431743928426284
Zr 13.621271745615932 7.750327907374061 10.816690484071579
Zr 15.648407236272933 9.435116579610572 12.224315687492021
Zr 14.877836446436401 10.157958128054075 9.645586449542137
Zr 18.74044076717789 12.909070808289336 13.22080721908575
Zr 10.865180837672222 7.84734143169998 11.171233706039922
Zr 17.30886365550768 10.535863016581834 14.466963136739233
Zr 12.545308730244525 10.213460930970715 11.66516936500958
Zr 16.88176300915629 14.053001344221437 11.081004406419721
Zr 14.11976590945473 10.073289871803963 14.446571590291507
Zr 12.122495495054979 9.486363891243995 8.79384716963397
Zr 14.133069546400776 12.727682746204785 11.373351614058418
Zr 17.520948961901006 13.269365007874939 15.915483633582404
Zr 13.199980387626985 12.515708984906727 8.509314173430372
Zr 17.55187666141628 15.356744668090835 13.629581703370704
Zr 9.326510183674928 9.631632626159144 12.691179194905983
Zr 15.232012523253621 11.396157710957537 16.730103660055136
Zr 9.319932324523325 10.04437413792493 9.85496331416446
Zr 11.427605641895626 9.011665611754246 14.336700765467965
Zr 15.757192944657351 12.712261755218439 13.567374735149432
Zr 12.05310261949803 10.912905852407956 16.55878706763162
Zr 10.96796964882803 12.546591101099462 10.634269976116355
Zr 10.588964936501963 11.730083808541865 7.704895757071991
Zr 10.801824040297484 14.560010179790815 8.506643483105954
Zr 13.452018415471864 15.277979564133021 9.871182829687415
Zr 15.94450235508218 15.910927870670188 15.849465593851773
Zr 15.472541675044324 14.049790014217605 17.843561204077286
Zr 8.397859324087333 12.723334785198814 9.093244943398975
Zr 14.801803283740849 15.611602274647277 12.564210828498537
Zr 9.331694134713995 11.272901286665315 15.083122797925652
Zr 8.304222809776219 12.120318872290207 12.07463412729469
Zr 12.986736317440132 12.981000571305325 18.189020216436774
Zr 13.662979196380075 13.902244326098058 15.314284337841512
Zr 11.788909399012514 14.881252826413704 12.514121317728728
Zr 8.727293115873021 14.886757153523504 10.928174858306239
Zr 11.773434190330102 12.049399844794493 13.805311194514143
Zr 10.88408820514511 16.778813517811123 10.262004528825502
Zr 9.072518275732994 14.293854810039571 13.976948170491118
Zr 13.062055433761582 15.810883612558527 17.368587662012036
Zr 12.281240026452274 17.73816393114206 12.575629436415145
Zr 13.707390873689839 17.180157177533783 14.816605047593386
Zr 10.725148363844376 13.663371174738858 16.455859097633347
Zr 9.534908175848413 16.949702374441433 12.76661209514459
Zr 10.99127315348038 16.36905527153217 15.18736166869866
