42
Energy = -307.09930463 eV
Zr 9.38333063490327 9.30776907476908 11.656648493302901
Zr 8.178434907676541 10.778932014027335 13.758010900086742
Zr 7.027155596041248 13.23757347622823 13.061741662257171
Zr 8.181755832269491 11.755350230569356 10.772713318643865
Zr 9.832627468937808 13.14846934198213 8.876334263778679
Zr 11.370196282365516 9.844625977821709 13.769740409011556
Zr 9.707660990384104 10.493482176741947 16.127739579194376
Zr 11.942657278547427 8.566611361677722 11.089101860322472
Zr 8.184544072846313 15.514735552548698 13.932960666838424
Zr 10.246277951544922 10.264789595784933 8.935358891367047
Zr 13.091079065126333 9.698878960747262 8.959664290962227
Zr 12.50103409387364 9.863964603408133 16.5577574073141
Zr 11.615178631143051 11.665295838783655 11.06479097182955
Zr 8.73701309660741 14.736765575503952 10.999968758144492
Zr 14.044611933551325 8.607209475767936 14.080649147016318
Zr 8.527350830994626 13.154461332015943 15.800781393688817
Zr 12.52043674344368 12.418540867966644 8.202733521870602
Zr 10.037671903961096 13.162728753070642 13.218996180782414
Zr 11.849705136909092 12.851336610306053 15.65472823919829
Zr 11.76139832433969 14.914920296239531 10.16921469531345
Zr 14.62339323300785 10.184716376938718 11.510135440059301
Zr 12.857913982059749 14.398672983099168 12.99939689574767
Zr 14.353231200564556 13.102556290310666 10.701581265751745
Zr 15.44770764421693 11.17089227755001 8.477928284232462
Zr 10.539617102771242 16.546295355425766 12.71275695345152
Zr 13.975694254456961 11.57943080833788 14.24951053898917
Zr 13.112851263753605 17.263185320789084 11.783198705317817
Zr 10.89610332586452 12.26235960037415 17.95672794792161
Zr 15.468443643515933 14.021757160450859 8.151870010540506
Zr 16.587007267523695 10.105866284355294 13.729271721109866
Zr 10.526010393756412 15.451148589924975 15.490259491599131
Zr 14.167013374326988 12.098679074170436 17.422991324174742
Zr 15.419895520499573 9.709267402449136 16.343744239597108
Zr 14.555358754176305 14.37493819869191 15.491299862595634
Zr 17.975463898316473 13.009541795596283 8.27239474009849
Zr 15.454247621424411 16.037151263179165 12.977715520239231
Zr 12.936617110850044 16.83112391737045 14.57141477630185
Zr 17.192065578521355 11.808919525649921 10.678455406340674
Zr 16.610737373049087 12.209173041295532 15.758006147183849
Zr 14.743754786128612 16.0945506314076 10.0283954950865
Zr 16.372569474253606 13.118183629323388 13.039037367041988
Zr 17.19640980597818 14.746574637694652 10.588641674127263
