40
Energy = -293.83418958 eV
Zr 14.632089258490723 11.356083082307606 15.931184434526847
Zr 12.346068045218331 9.674274524596774 16.24620755452155
Zr 9.499160044931706 12.209860190161567 15.578855746328921
Zr 14.868565286483783 8.388942703973001 15.679812058210073
Zr 13.253611460604287 14.387896405794503 15.00535293233052
Zr 16.677451666522476 10.067983545945873 14.249495429597115
Zr 12.072096619484773 11.869002848281967 14.22061133337051
Zr 15.477425420927725 12.628231127713454 13.4219137828144
Zr 7.328818622308252 10.752329067465679 14.234188835608885
Zr 7.498926345214644 13.52006495860193 13.94484206848457
Zr 10.067543399361432 9.483348070690758 14.432589869026476
Zr 10.282984522510585 14.652961248552051 13.71283606463329
Zr 12.531728589668344 7.420416862391995 14.246242395284675
Zr 15.121620372583873 15.481425289138206 12.908939604035833
Zr 13.895542815485175 9.845353329989482 13.211229715764253
Zr 12.574072944677315 16.63897989481612 13.275544296458296
Zr 15.480330338275174 7.523199641243119 12.955633716996449
Zr 9.584054295063668 11.849825375039774 12.488308514136982
Zr 8.171213696371245 9.148738427896195 12.088267893055443
Zr 12.79892735124816 13.861118130337367 12.166527318876087
Zr 11.151921652245143 9.408052370603759 11.604615214372096
Zr 10.520253050096835 16.616993873330443 11.191575821144928
Zr 13.506452972731145 16.23045483826092 10.505514967408486
Zr 7.986646238885585 14.686441053259166 11.397051492624323
Zr 15.407701270838478 13.55981748344004 10.567984242515445
Zr 13.351939672886141 11.293702358428053 10.692291822874665
Zr 12.954868224273886 7.10475736208645 11.446373983163241
Zr 16.361407526719365 10.542970123721426 11.362223283188989
Zr 10.65798167666589 13.71526630136536 10.195362270843486
Zr 6.850022542465206 11.833888437544859 11.429199065319155
Zr 14.92429209208276 8.566543901046252 10.145398511651038
Zr 8.934466465163181 10.20002075842811 9.734321241212584
Zr 12.399617004774273 8.74629924731104 8.916796137505333
Zr 11.602895723581168 16.13494543661156 8.470298935782187
Zr 13.288801597388744 13.663872649300647 8.585504289375413
Zr 14.47201723922392 10.8485102746064 8.238897694609992
Zr 8.864408886335461 15.654031331834933 8.810447678214842
Zr 11.306575294273879 11.349562165306153 8.4719629182184
Zr 8.169022818263395 12.830423148062037 8.833007763803554
Zr 10.532387309380915 13.861783120153333 7.176444019346668
