44
Energy = -324.97435422 eV
Zr 13.349848296212507 14.286586937163365 7.944973683460952
Zr 14.410186515969116 11.512633689606128 8.164151102038176
Zr 15.531200188105686 13.929206569111328 9.927665194646261
Zr 13.377586477641332 17.995316006634138 12.585269560752153
Zr 11.424664487227123 12.139287516286686 7.4003729222437915
Zr 10.703827658405055 14.646039123934997 9.064135014926736
Zr 15.640913584001874 11.195020625885578 11.13739063147111
Zr 15.763840323536888 16.116504398347633 12.33092902992759
Zr 13.047362498149791 15.686101297794206 10.627128989330064
Zr 17.06522187178937 13.403888847781811 12.519922721445838
Zr 12.695232582025271 9.539328943187009 7.1847614059162686
Zr 12.640516205704795 12.580402306632141 10.264966838149402
Zr 10.784446573992128 16.991584641009446 12.327056225320115
Zr 14.91883971309775 17.391157406871976 14.835479194002852
Zr 14.267975927451863 8.853487200977789 9.781327164288518
Zr 14.220822557869663 13.455520963645167 12.52362210331909
Zr 9.195024733464072 12.229192405225975 9.43478739906042
Zr 10.553443154691173 14.03623724919989 12.016901234584813
Zr 12.837299081102035 15.3660906668184 13.978309490364541
Zr 9.690528994381973 9.473261415288343 7.810700547731033
Zr 11.89277839290899 7.378169625443629 8.551724807924762
Zr 15.922723514218008 14.596652193201935 14.981130772147406
Zr 11.820509241650125 17.562533977125945 15.260049638247938
Zr 9.611370588666835 7.42583734371715 10.0942958694222
Zr 13.845402094836999 15.885867715983176 16.859495716700085
Zr 13.016885798531368 10.242132640252526 12.654536201677931
Zr 12.455422289415976 7.247472688493072 11.455660506569352
Zr 15.560259278040046 11.467703837413532 14.282063026502085
Zr 7.79033084541549 12.631397232788883 12.154108448897949
Zr 9.694469805935865 15.513986189301148 14.424410256972445
Zr 12.177264684312616 12.524252820985108 14.539263733997485
Zr 11.346224683028145 9.91424699701245 9.94349441072388
Zr 14.922959882967662 8.468513464602601 13.090499153579191
Zr 14.026237275383952 13.044131266187476 16.752132226143832
Zr 10.225850695658709 11.179781447897797 12.367980342623628
Zr 8.082946581527018 9.884446392815724 10.689711000865469
Zr 11.28029742928574 14.621604056000336 16.76063686293841
Zr 13.53574279890706 9.981308874638504 15.729070699581865
Zr 12.2522496470093 7.752870857296474 14.293539678337137
Zr 7.858734997956596 10.168140689733214 13.725856990889797
Zr 9.28610193869448 12.602780251853837 14.950617786085571
Zr 9.78064658892132 8.108140392583236 12.774939805115038
Zr 11.424397583003175 11.714290297102826 17.205441857529024
Zr 10.501118467268869 9.819049127185405 15.246824415308582
