46
Energy = -339.99519031 eV
Zr 16.180180725400362 15.96665135399238 8.440920980322757
Zr 16.628527553460728 13.229633791682534 9.216030453137655
Zr 14.277046401777833 13.969376982215136 7.424766394336617
Zr 16.858090938888576 15.564406039738659 11.331752608011257
Zr 14.91701715714239 17.72188184442103 10.350874266131136
Zr 13.329986134624901 16.61819015127717 8.141578074011575
Zr 16.965255013277474 12.497264514869173 12.006792239844033
Zr 13.975032942951103 11.898870309023653 9.456972063042073
Zr 14.067978533397005 9.039356014658816 8.484772591407863
Zr 15.79491944273048 9.819274824600907 10.445965044129494
Zr 14.16624149975249 14.812276326473928 10.362469477651771
Zr 11.610253272136925 10.863244500625214 8.231125726650431
Zr 14.109898337939054 12.658301706170697 12.391085083304736
Zr 12.052339138250343 16.939970789718988 10.73699392819323
Zr 14.206557004715489 16.64023284410511 12.877299991224273
Zr 11.60287844216912 7.856359308445835 9.028424125196812
Zr 11.53871746981874 14.301638556903411 8.98197051693307
Zr 15.980703484157909 14.574934936331184 13.879647465691656
Zr 13.85793163443966 7.3243180015278595 10.975350432127067
Zr 11.18883541590869 12.25296482546484 10.991250057960595
Zr 15.58854187209104 11.868903182820752 14.910299963500817
Zr 12.555416934451783 9.768190682185628 11.181903863835617
Zr 11.826069041461091 14.796696136727158 12.673043755621428
Zr 14.913016639986933 9.701142769215227 13.06056694065228
Zr 9.073127753414605 14.483250674900697 11.086793031403959
Zr 9.455209039919783 9.563666803437245 9.890337211909271
Zr 9.081198280233798 12.354923144461925 8.942513863686095
Zr 13.504042259797853 14.005164788873032 15.425977813556512
Zr 10.554724191190303 7.457026011368583 11.812618754637434
Zr 9.900500761886153 12.886610138025052 13.824038624361407
Zr 12.577573924875939 11.317644391027025 14.50839363324819
Zr 14.408762875626714 9.216441807467614 15.822539980504159
Zr 10.227939773196434 10.099547522407393 13.254440622131343
Zr 10.871285250500405 15.182106672844052 15.62138420588967
Zr 13.70536066027681 11.521331559991921 17.279222813261793
Zr 8.996766191139656 15.700762129494565 13.734379170273499
Zr 7.718026308352748 11.648469719136575 11.374023098368799
Zr 12.455650571603547 8.029756156700746 13.956488035506133
Zr 7.815672311319266 8.817057982931823 12.15827671173097
Zr 7.001789895804273 13.69380759879303 13.173054727867076
Zr 11.098600363221687 12.600419610892466 17.022351610053775
Zr 11.56721183333852 9.37618198402809 16.56558587469047
Zr 9.221946891885894 8.138269710018875 14.747266272845925
Zr 8.199879694677287 13.655824607733722 15.890549013930459
Zr 7.35319677151966 10.88552788106298 14.298053076653913
Zr 9.115185744631965 10.766479656134681 16.331163238399878
