49
Energy = -362.58195428 eV
Zr 14.924538559498883 10.22351061703336 7.521899097360783
Zr 12.542896859003529 11.68980778623825 7.371449861493265
Zr 10.253668041581433 7.243656920234133 10.22012516738597
Zr 15.335102743893263 13.228735179034462 7.620418470120883
Zr 12.569673544144543 9.30589687473674 9.364576664188283
Zr 15.67956989738148 9.118375829919449 10.085711636516113
Zr 9.303805653407048 9.819602927491069 9.41425565910215
Zr 17.08774312639727 11.411315214664244 9.044809401558936
Zr 12.766048209713567 7.086335324590002 11.656779136836168
Zr 9.975950073143776 15.141491863189728 8.717439129505243
Zr 14.205174838078738 11.757942423809975 9.97492336855558
Zr 12.653593490058505 14.495707381439617 8.06139905143414
Zr 8.189387529813262 8.607924503205426 11.900434714708739
Zr 11.010303829868874 12.319125780079135 9.759927709158141
Zr 11.013049271254166 9.495496476395344 11.941916850887774
Zr 10.178388498012772 6.936438154942658 13.169030298179875
Zr 8.098212388196568 13.731528408169615 9.961755769011695
Zr 14.052290611528685 9.722580532167147 12.362579577867134
Zr 16.75334641673102 14.083834281164911 10.296105223052937
Zr 16.7116559601 11.445165125732723 11.941338648498617
Zr 14.916574794236926 15.83803252749993 9.027121929154724
Zr 8.627371554978989 11.502503207873241 11.789013892879487
Zr 12.200536379794126 16.579590688130168 10.157940526028302
Zr 12.453769442667257 8.096922079836549 14.388205060429131
Zr 13.765706624052157 14.301304408081164 11.392568578796629
Zr 7.35560960750947 14.262105861408534 12.716382511630155
Zr 15.876194888460157 9.827139245621856 14.504004997245037
Zr 8.927234984500728 16.47077209456257 11.12619534750594
Zr 10.45068944298063 14.37461390660978 11.825426015184448
Zr 17.725863083899494 12.11125701407973 14.683189313053754
Zr 14.865081561542594 12.744329081601691 13.999618469826979
Zr 15.156065659219689 16.679988012953533 11.81945342713419
Zr 6.979814088747623 11.409064663608154 14.14085563434008
Zr 17.07872635916416 14.724793832873074 13.239468930300177
Zr 12.141886415462944 12.065750095086461 12.577764507212226
Zr 12.93626973142561 10.903960433973216 15.160164196115469
Zr 12.273601329863727 16.545580392873383 12.999122272419266
Zr 9.648359279400491 12.68176285498061 14.41197916875281
Zr 9.672640931035868 9.723169297453204 14.645469443194017
Zr 7.18648563769866 14.021892642379767 15.595473684376557
Zr 9.283379628229708 15.765312534572411 14.34910703362246
Zr 15.646276253360169 11.540767188366956 16.713843283280003
Zr 14.683003685530174 15.921181802556942 14.660505824985746
Zr 16.510388320546163 14.250659751700065 16.074513324251992
Zr 13.715827840207595 13.685326368758401 16.82063219916659
Zr 11.983214902938764 14.229157218023094 14.81211920270567
Zr 8.243416895042687 11.581741108610462 16.745871294501082
Zr 11.087428982211888 11.689490698931545 17.008085238807148
Zr 9.717121289209867 14.220792092205139 16.980733496804987
