43
Energy = -316.66530635 eV
Zr 14.723399742750841 8.11324106342363 11.865697618938654
Zr 16.56208129676593 10.292709095176184 11.986997450590419
Zr 16.622814984619076 13.064802729385693 10.228873929115457
Zr 18.25559361376672 12.667912848295154 12.60954071746078
Zr 13.813214850769459 13.503241220118724 9.322447263647325
Zr 13.980078413623387 10.939228994736226 10.723864370297616
Zr 13.33371259754073 7.452110091784963 14.268380637499265
Zr 13.79634145693864 10.392539698070975 13.673732491205428
Zr 17.418128613417924 15.277050273054643 12.315904338094423
Zr 15.931653690670071 8.658875357095294 14.557908334278666
Zr 15.811731889867072 15.95036422074662 9.772921668721573
Zr 11.967090870673527 8.682686605778883 11.899479868166518
Zr 15.196245518892297 12.99747662817044 12.760793105205146
Zr 11.291929980957905 11.572811503298759 9.947917495155048
Zr 16.31755013306151 17.877043740763717 12.144271907388356
Zr 11.810852017430484 14.074804077900556 11.824176685157585
Zr 12.730227084241374 16.16582886328092 9.235547798693872
Zr 17.340730980024695 11.113692454694238 14.628796391361757
Zr 10.956254662994441 9.016656650901345 14.725196418655903
Zr 10.733240422922686 11.29061387483242 12.69678648849379
Zr 13.391724335449648 9.512708967744548 16.562709612519654
Zr 14.135535553845365 18.374333422629412 10.552642073506505
Zr 10.897290431287944 13.873303976420893 8.734066907684841
Zr 11.941393687736399 11.970189628486393 15.325210833908496
Zr 17.056432762425747 13.932234379644797 15.123486446610563
Zr 9.013074414726322 11.185430581044251 15.223351907914214
Zr 10.707000376040734 10.226341966456353 17.44792737322575
Zr 14.073811605649848 15.87978099671904 12.097301718806865
Zr 13.782992882671113 18.442295571978768 13.584632646947561
Zr 15.04676558834066 11.905423678082535 16.144590151281314
Zr 13.529651082769893 14.493086496630546 14.685728128028051
Zr 9.844560634548152 15.98753072787557 9.962248512674888
Zr 9.072934103519776 13.366815217880653 11.167770486750038
Zr 9.861938634634711 12.873212101634966 17.37882465036328
Zr 11.505323485310187 17.676222389279022 11.604642787427162
Zr 15.99019292619294 16.599451122845124 14.735149296883016
Zr 9.277846669201855 15.954618459187119 12.62447823993455
Zr 14.743085810305116 14.731313553099147 17.252065210802048
Zr 9.849455315832877 13.910917638711757 14.467863282994758
Zr 12.743119557543494 12.42975527582249 18.107999397217448
Zr 11.277267366171454 16.782312061060555 14.402291484693496
Zr 11.65957514672477 15.03394283485562 16.961701106561414
Zr 13.54795605213245 17.102910799066866 16.198237367338095
