40
Energy = -293.56040112 eV
Zr 14.09951902136103 17.421327071705043 13.05464811960951
Zr 12.895666497472735 12.35793209089364 18.15355193592917
Zr 15.189865943793434 15.561970474321067 15.304114939230354
Zr 12.957787932816478 17.6486484972721 15.692289343271703
Zr 15.453291125750354 13.570277044107792 17.586384956217618
Zr 12.957339951256447 15.20995367005217 17.392248701255802
Zr 10.457496161736099 16.29660270006836 16.218134148728495
Zr 12.112166156250293 17.365749887756593 10.991174345093299
Zr 15.041716889296273 10.75945014097063 16.81647477637537
Zr 10.91542749231117 17.544427039478148 13.523048385069195
Zr 16.76939759904738 12.813700227670829 15.169622155241886
Zr 15.756206806800483 14.852188379040875 12.571215859562448
Zr 13.622249197639736 12.80587147980454 15.354521160228591
Zr 12.774791009444476 14.237334099130722 11.518376908531902
Zr 11.628155344218733 10.612401914163103 16.099489978082175
Zr 9.20972323023255 14.6456903220761 14.15266970645419
Zr 14.686207529853384 12.10177715106913 12.778361552148093
Zr 12.325213823793558 15.176335942708532 14.263358442082877
Zr 10.61997340643119 13.366281470933737 16.486758087234
Zr 14.612036192603957 16.330189655485587 10.26229073439487
Zr 11.387813459292127 12.033617820951278 13.238078442528206
Zr 15.102723966141262 13.42072156429178 9.75456308563403
Zr 16.392498067272616 10.100133577653335 14.430046126136633
Zr 9.886850531399087 15.472627456186684 11.292623277691764
Zr 10.527335308625151 9.0868993152868 13.865058955540992
Zr 15.232356283096806 9.053625570559616 12.039009096663255
Zr 13.421007674395138 9.440767211181718 14.184557739899665
Zr 8.656935482610033 12.942117824516663 11.924569789909322
Zr 13.191919921102448 11.170382799411948 10.678336828760358
Zr 17.342718619881847 11.653079915962184 12.20247337635766
Zr 11.8950541816557 15.401992755210149 9.042764859917128
Zr 8.906654673973158 11.488865454064358 14.41731403651793
Zr 10.263656533556023 12.763561369322298 9.638621034293719
Zr 16.246953900086318 10.595267042333832 9.83041311424901
Zr 9.59925682117105 10.28884562671272 11.418688147219813
Zr 12.051490143244038 8.525380559396515 11.489761194294548
Zr 12.507856477757535 12.835578914407455 8.030348495857618
Zr 14.087113084783356 8.616591964866323 9.37309753014627
Zr 11.48929112766672 10.042636607250376 8.72826807374903
Zr 14.345636933510008 10.972690534470544 7.849954093062962
