47
Energy = -344.36412795 eV
Zr 13.020342484482276 8.68787308820062 9.2641438703024
Zr 15.977853400078276 12.435578368582147 7.419041805263681
Zr 13.739403409181778 10.80448036005378 7.549843405318847
Zr 15.889841240084879 10.18664105454037 9.393232781235682
Zr 17.473805745881517 12.680056973281939 9.801326647463998
Zr 15.024992620101019 8.497096161372214 11.776441227638534
Zr 16.06340302608018 11.375261938830008 12.238087796878864
Zr 10.114245645137437 9.252114165028942 10.467902336031703
Zr 13.200868058552105 13.68011183675504 7.360214624717678
Zr 12.118772881508303 7.977749590546881 12.222017440095529
Zr 15.986493924156745 15.0737915618622 8.726889850406806
Zr 16.31785143520556 9.17150099097042 14.305964121484525
Zr 11.263458145223103 11.339443835619036 8.621852173371323
Zr 13.015270841702629 10.775484820105856 11.10387167333669
Zr 14.518943304240247 13.057231043999197 10.041869092886882
Zr 16.674945934585637 14.417588481364648 11.82374888511717
Zr 10.57418459232888 14.307131969349452 8.95268013693633
Zr 14.043683968069606 7.437593658607126 14.342011458089749
Zr 14.243603544794086 13.571422578641606 13.42361457566524
Zr 9.30690214106614 7.967227418198576 13.104209746521297
Zr 13.536325757958915 10.460141681483325 14.058077576798341
Zr 15.954082458974966 11.79952244595201 15.339892897291238
Zr 13.104654799419807 15.987961468465206 8.959794796183418
Zr 14.346583918555428 9.344574813748439 16.54095248938981
Zr 10.468959342087267 16.934211371461533 7.8502136477977436
Zr 10.633400000188855 10.667819475049745 13.18351849252582
Zr 15.102063135891695 16.351536721553025 14.182083121526075
Zr 11.923761108168337 13.650253246155014 11.447136015725398
Zr 9.20997470065585 12.234160464775666 10.769946312114676
Zr 8.41611118283972 16.175566648020492 9.525062096355786
Zr 11.362751576344937 8.296549752512338 15.16497832036076
Zr 14.349441034090514 16.018236528246618 11.525742765461379
Zr 7.814359928114074 10.20813327220685 12.296470651909978
Zr 13.678467838158275 12.080361717760864 17.005796083167198
Zr 11.46566850455055 13.20149957074397 14.719003666604427
Zr 11.280367057309107 10.706107792828028 16.655918738917837
Zr 11.058699345644019 16.806689354960742 10.665726494522334
Zr 13.918231446361235 14.708243818196122 16.202153292971584
Zr 8.617820268543582 9.959798131497633 15.182300628664134
Zr 9.41455986182572 14.8799429505634 12.026012698619674
Zr 8.189796698894147 12.65826503933984 13.68713914155697
Zr 12.130929403837822 15.887716552267287 13.612906474463871
Zr 11.359971870748979 13.769441610892736 17.70387005510536
Zr 8.938213385106467 12.751769785377325 16.513488696329443
Zr 9.397172227358421 15.331620299915134 15.083288868359535
Zr 11.668539184320109 16.471563850442223 16.50608471212304
Zr 9.180849316720323 15.625570583676996 17.76155268375101
