41
Energy = -300.31792165 eV
Zr 9.177549208617368 13.276242169454582 15.906349670855201
Zr 7.909460607525527 15.061667950980716 13.170548911652295
Zr 10.631181150066945 15.820632396326076 14.864527266943462
Zr 13.644692846799016 15.862778831595449 15.018929920026073
Zr 8.043115531849883 10.649381188504679 15.601104967826757
Zr 12.144565185540756 13.396156580972887 15.885589624000838
Zr 7.16489661212244 12.454894876654226 13.740574340623455
Zr 12.370735899287993 17.35559092823958 13.01912296164002
Zr 10.063104288588633 16.4462155698125 11.991133634218755
Zr 10.7351216441838 10.610169741763631 16.81645118495671
Zr 10.859931382801467 11.040757053874627 14.109233097514501
Zr 14.816640586495476 16.051481702155055 12.166417452372563
Zr 15.277627910740602 13.587670200272411 14.051337216497796
Zr 12.52440591373178 14.173061369838166 12.87860534818287
Zr 9.965729389323567 13.370933830792897 12.967484988800699
Zr 9.49357588192394 8.46588596307029 14.857331049753636
Zr 13.751331992615553 10.792969660059006 15.82423553860522
Zr 12.562787529282076 15.958335108169042 10.32566425620271
Zr 8.149888024975496 9.925043307775288 12.677129104059299
Zr 10.01163080971508 14.306419040053864 10.014709342792415
Zr 8.177183756345462 12.205364805783631 10.790017456332231
Zr 10.636872416315025 8.463777888831478 12.099323161146327
Zr 14.420596515917152 13.1792474496081 10.9347454652435
Zr 17.098144892821928 14.639413373068695 11.328332431161796
Zr 16.438743172090348 10.807189061186888 14.455846364443628
Zr 12.376756489240309 13.694503948678138 8.344749927931215
Zr 11.383508787891948 11.43788567368783 10.753562112180228
Zr 15.028399115102495 8.542233050163745 14.102380510645103
Zr 12.303627772675377 8.483412080311826 14.71316235070515
Zr 15.355509561194836 15.01244625250688 9.046301072170822
Zr 13.752459699767968 10.989731169057823 12.918630141727567
Zr 17.381689705500843 12.207133549745183 12.390250536184016
Zr 8.9761614834949 9.524241235316513 9.86679566949768
Zr 16.171156506368202 9.691592976604957 11.601040116194879
Zr 16.903099178712942 12.214663622153322 9.557475383148024
Zr 14.267694444284022 10.36151606497691 9.517811757829287
Zr 9.910409184393748 11.77698261432172 8.247946115994084
Zr 13.442770306914342 8.316567644367892 11.57673332607968
Zr 12.54062800154606 11.01186327104944 7.33596749365274
Zr 14.90870136384505 12.526749104432527 7.635460669428367
Zr 11.546836305350597 8.97797728759864 9.072517662367021
