49
Energy = -363.22866532 eV
Zr 7.193017237335319 12.230733407043505 13.365506478317943
Zr 8.461667786674084 12.449602650219736 15.926665911851968
Zr 7.889890003135998 9.688807217058045 14.947791495183457
Zr 7.686209873556041 9.897838889146053 11.894942462071535
Zr 9.231744604383833 14.568066484941811 8.584850174091672
Zr 9.156653442974605 14.39541919383906 13.692327921098572
Zr 10.29672102687342 10.38776582973392 17.02893089035893
Zr 9.489770581618473 7.8623324955497935 12.878543162197696
Zr 9.089374219734175 12.5083260613283 10.953039348051014
Zr 8.304952719308647 15.511125955117672 11.206712460983432
Zr 10.349522137722724 8.114141977121646 15.468742144011385
Zr 9.948968052575133 11.172023272523257 13.52578746984752
Zr 11.082001694639454 13.386560520881236 16.597364978493328
Zr 10.167011035769118 17.13052832507254 9.704687516795735
Zr 11.714210386427776 12.541435051022006 8.538494189936397
Zr 11.871549252508661 15.692403574396025 7.809677866030965
Zr 10.200281460241852 9.675785328669738 10.380082666138529
Zr 11.387084460250195 16.737314754177106 12.643202190257586
Zr 12.421134337147278 6.782971539254679 13.924003753389622
Zr 11.04754653520491 14.574032209606889 10.813278367769717
Zr 12.383264515040254 9.29091196044104 12.58925727408907
Zr 12.501779171931066 11.103864313699992 15.13135505774877
Zr 11.462263059241158 6.997600275928868 10.96900220635495
Zr 11.758744690130001 13.651386522547307 13.651083339440616
Zr 12.448699181818109 11.75545767698898 11.135034540812299
Zr 13.04209917124931 8.642342451289503 16.42134461211945
Zr 13.04188666186635 17.46226635887335 10.16558640035245
Zr 12.961700876908312 11.426723257936365 17.896577425168335
Zr 12.596418799325855 16.2622622193466 15.19599777928837
Zr 14.231337914653283 7.207370212915967 11.619441669603583
Zr 14.087737975429318 13.754236758212544 7.086410590528378
Zr 13.852722684838037 14.366848055503924 9.981544507300255
Zr 13.041206142536634 9.131134721280267 9.58449576819128
Zr 15.104580132625816 8.582941812469747 14.125925985237583
Zr 14.132477586499476 14.910920400229465 12.956233092371985
Zr 14.005838300264227 13.73313418487715 16.121098348938105
Zr 14.485553762391804 11.792751272928621 13.312817390513525
Zr 14.8101631335576 11.721205715130948 9.154866807441762
Zr 14.702386295034767 16.43437757627158 7.95612061166765
Zr 14.422958310917632 17.73307913586975 12.985827510354534
Zr 15.38370991956515 10.854087119993956 16.089843972507257
Zr 15.565206759725513 9.680831047088164 11.23160198878121
Zr 15.940796075454822 16.7055854176264 10.471420570718346
Zr 15.480075764048975 16.189677039854406 15.32587994748949
Zr 16.486776713338706 14.241767891506285 8.67481820340354
Zr 17.10248445843593 10.708477727099512 13.495720075435733
Zr 16.593021197198976 13.480299976395692 14.52808117464299
Zr 16.449074721890153 13.020162518970862 11.463156494187789
Zr 16.959181066706673 15.837505660614323 12.90719657596128
