49
Energy = -361.37173277 eV
Zr 17.363904977906063 16.545616298581812 11.675256921212332
Zr 17.958065870660327 12.608823207759338 12.294691443321424
Zr 17.326650196389807 11.723993715179354 9.841277698052671
Zr 15.766024410329473 18.985604571794667 11.791453588419682
Zr 16.606656577854626 11.519843807358251 14.744520745968273
Zr 15.781340863890192 14.267074819939292 10.637796311773613
Zr 16.879469258297643 9.770420842352092 11.899805011505894
Zr 16.444248675180592 14.320206549332589 13.821003319673983
Zr 14.784787382490205 16.97208406469615 10.169105321547043
Zr 15.127832178771607 16.778441587468922 13.426495367782225
Zr 15.729661797423748 13.112699293665864 17.40415328432649
Zr 15.471505230191902 9.002517030021625 14.335463436286894
Zr 15.508778120914691 12.549837559775307 8.046285846929962
Zr 15.002702116682517 10.075661656235491 9.42829235606341
Zr 15.745224280094016 15.844312188811655 16.263582818576563
Zr 14.914382817624178 11.936765497871585 12.2251286135684
Zr 13.813651297181586 14.638832325857287 8.030568609009116
Zr 12.797330745938872 12.592021021755132 10.161298950595834
Zr 13.042018447414454 14.822517023118351 12.23134723715548
Zr 12.868889267991083 17.986979265266275 12.102556303033754
Zr 14.764510609402949 10.26248158616965 16.822513864773022
Zr 13.716524835344506 15.1441326407821 17.861978427282214
Zr 13.80324039480428 9.085471061193916 12.029471755004256
Zr 13.858943929589449 13.686553433927017 15.23056959869348
Zr 11.929975888212894 16.201003682197516 9.711971191831369
Zr 12.83312101310911 11.692319567964162 7.464972487667901
Zr 11.058539691690562 14.044916263295239 8.01680831597484
Zr 12.872076087312813 12.336069243881331 17.920281847348058
Zr 12.046686661979724 9.531892709553254 9.791615635484838
Zr 10.797174388819842 11.086163285861518 12.142512682834555
Zr 12.820082957923033 10.902986902253572 14.572391524143743
Zr 12.955180408648596 8.047814232866301 15.027611136805751
Zr 10.130108567837171 11.602282055126214 9.164226230161992
Zr 10.988284357698618 14.617942668466101 17.063113344184266
Zr 12.534594676456516 16.339813441612076 14.955308621922612
Zr 10.83320022901126 13.700461395062703 14.07878436026592
Zr 10.361730785485594 16.362804112099337 12.39804744816975
Zr 9.964822668262237 14.028264359215093 10.848429746904985
Zr 12.00758469538287 9.582332808266019 17.23479418118252
Zr 11.004416532194982 8.04796545317682 12.383634991448849
Zr 9.198044973343883 9.106531038342418 10.270563835559395
Zr 10.168284327217512 11.771006899984945 16.68505879103785
Zr 7.948752408249051 11.716125861166535 11.302599041654283
Zr 8.347877505472384 13.971584576085364 15.962719880959689
Zr 10.158715397593951 9.302467432750094 14.990365993972002
Zr 8.042248207477845 14.477535051959254 13.164750437786138
Zr 9.567648463249997 16.3107417798239 15.069529740381064
Zr 8.271781068722403 11.661498496732365 14.272020856550222
Zr 8.32069577016666 9.212934716036012 12.812518054298046
