49
Energy = -363.03859865 eV
Zr 11.88358052724471 10.916487568934663 17.799735406287393
Zr 12.66282243053 13.728277135986664 16.87041250672253
Zr 10.308637860779639 15.411225717281361 15.818184069680683
Zr 9.879379088729621 12.49022013534184 16.151907619827703
Zr 14.516979368487839 11.391185240292055 17.73421958145411
Zr 8.30136612279497 13.775042829192694 14.144882641279493
Zr 12.047980074360183 17.30909548499161 14.556437990368934
Zr 7.514815356787657 10.708495066777871 14.570179231775882
Zr 9.801522217816178 16.368575998811444 12.984783442035132
Zr 15.918189139165852 13.587164447552375 16.57131583768493
Zr 7.028095212795456 12.184183554993158 11.89338927764997
Zr 13.544646357068169 8.888613215837195 16.361040161199565
Zr 10.569494512243574 9.78668442970861 15.572794080835113
Zr 14.05486635351357 15.13862228757421 14.6112157298359
Zr 13.138215145157698 11.336469924409698 14.975825448177984
Zr 11.464482779026921 13.631883705974202 13.784891160990712
Zr 9.329837052911294 13.988869442107838 11.417229211458835
Zr 11.783392410475512 18.303700575199635 11.917238528025907
Zr 16.29677435806242 10.389945277229902 15.8280270189863
Zr 9.713799773926883 11.253171433845552 12.927837806655154
Zr 14.500185885024758 17.71700347520113 13.035520328929445
Zr 7.460416816853049 9.473353366196735 11.7945514091102
Zr 12.679719264191917 15.48318845003247 11.871253948244824
Zr 9.075372610159919 8.245672780810494 13.716971414930844
Zr 14.324687228380178 12.827487810063555 11.326265748114967
Zr 11.96358910743823 8.151143310155852 13.544532820862612
Zr 14.942668293934272 9.507762978425907 13.046563727320478
Zr 16.93826742953226 15.180537360095505 14.20104684844247
Zr 12.337485834807387 10.689867367558632 11.907602816062758
Zr 18.24819213071094 12.775145830545167 15.097779603386892
Zr 15.59974148307717 12.51353618271078 13.82815252676391
Zr 9.091022249890576 11.067003956659761 9.840618162927962
Zr 13.90203599154491 17.53076829291177 10.204029443460485
Zr 11.007169731430475 16.015840500356845 9.689052097550242
Zr 9.076993484086302 13.892507045276677 8.520614513690045
Zr 15.77473277580755 15.406558767322338 11.48650333061114
Zr 10.168340315053111 8.38816661501178 11.033628396162213
Zr 17.934744860456522 10.568620579026678 13.42971681187068
Zr 13.138178041955037 8.03354094750281 10.918586971957247
Zr 11.610726516859888 12.932501429034776 9.849705158365447
Zr 14.530621606633787 10.294247701031573 9.790732855495905
Zr 17.960613371809057 13.261037287465125 12.056683350995463
Zr 16.95717318155028 10.729543345145382 10.999665404785908
Zr 11.789503265077126 9.74836409550569 8.832324720786973
Zr 16.371686158347632 12.993597419579244 9.335210620681702
Zr 13.972453081864037 14.875177899701475 8.996547429289075
Zr 10.571333478117262 11.803333352571897 7.233886509552006
Zr 11.709464206824798 14.397413076750166 7.231479828919598
Zr 13.566932806197626 12.102165558387918 7.718479049069025
