47
Energy = -347.7281334 eV
Zr 13.228204141331629 15.288429150896055 17.737527471530438
Zr 10.572504899799101 14.299176766892002 17.291632935291005
Zr 12.914251024455188 12.347151966216718 17.88228314858798
Zr 9.967938320846924 14.385319653990335 14.129553506887412
Zr 11.429300516893221 16.75277523462234 15.880533649714192
Zr 7.840163496984215 12.381613289476249 14.861899135365764
Zr 10.343011251279686 17.41076624364824 13.083595531288172
Zr 14.54393892003615 16.72585640342976 15.653934725498456
Zr 10.227246067674416 11.732698987788234 16.305780854200385
Zr 15.585947973678472 14.025376168443627 16.575907415919858
Zr 10.760772723348916 15.555150672097934 10.77666458124404
Zr 12.907804881034194 18.46290730385939 13.995195432302005
Zr 12.626643504256128 13.41685610308999 15.327710839705473
Zr 10.096215137271795 11.288273632294974 13.304673906376577
Zr 8.320080827253792 13.39777627876016 11.882735538911911
Zr 12.608718078599747 15.5914009510907 13.192504271470392
Zr 14.97375077834216 11.424971554673625 15.593176976958437
Zr 7.2092778465162946 10.694183507302586 12.710884422473438
Zr 8.8133768357261 9.363330020488286 14.938256265287492
Zr 12.641042062863221 17.733079595778808 11.230874155524605
Zr 17.09210651845435 15.846853657849351 14.662631552826355
Zr 12.146074399438117 9.958726137708823 15.385050993786251
Zr 15.297058194380213 17.196489215721655 12.65841396546156
Zr 13.644552842106469 11.58097418270239 13.064204699057997
Zr 8.755377025798078 8.49793310231153 12.124836679942335
Zr 15.202159381094067 13.935381801697963 13.4470294303938
Zr 11.447024710259779 13.025820576214652 11.434767818591196
Zr 17.84118610549549 13.096207016220731 13.940130416096945
Zr 11.186208738243748 7.6752542561955845 13.25991651368744
Zr 17.30232945041299 15.182842895300833 11.820404530157438
Zr 14.235091074946519 14.989495876796171 10.67778966176589
Zr 14.14877845272976 8.619442575455222 13.721471547551157
Zr 8.860101063640794 10.843259259175149 10.289333676807086
Zr 12.2121778913561 9.848223018937055 11.596108421463292
Zr 16.532059099756072 10.592236638336523 13.360215375840983
Zr 9.651490941672646 13.323900775700489 9.080741402413464
Zr 13.915533412817213 11.9250633736899 10.065421148530627
Zr 12.422920030848871 13.985900679205491 8.359781266019379
Zr 10.660645785171274 8.212998841510782 10.007164780169544
Zr 11.268103831403295 11.031653756252947 8.384107970843138
Zr 16.684004243690815 12.446100301767885 11.094407999136097
Zr 13.298263789361574 7.235688862078935 11.164586416703967
Zr 15.471004917712747 9.279339297589212 11.046194575027526
Zr 15.548045429509973 13.648656046344128 8.42605724489942
Zr 13.530737292872223 9.099251570284398 8.77510061214614
Zr 16.11893862988704 10.758283739700598 8.533321489599713
Zr 13.798410139316232 11.659856981345012 7.108219815755468
