46
Energy = -338.35946891 eV
Zr 15.287032901489699 10.853810968669473 7.777180514871304
Zr 13.399230842044764 9.093869857044767 9.575632329016798
Zr 15.78302797618555 10.294441418633824 10.802646163294698
Zr 13.74809856089638 7.607437071564297 11.923402445487877
Zr 16.687852991724217 12.681967225951059 9.562460534884858
Zr 15.147775709136374 13.77742801171166 7.620510549193238
Zr 11.05787927500047 10.353501752855527 8.917734925792896
Zr 10.806439076762922 8.50156305302524 11.13323599325222
Zr 14.106076695319056 8.350151927119516 14.57690324830656
Zr 10.042252051898638 12.9069796460593 8.775309305015586
Zr 16.043206252181125 10.340597361357155 13.706290256844628
Zr 13.497119694006074 12.196961876480058 9.550960339108379
Zr 8.52105628832154 10.548084497990677 10.432864005774958
Zr 11.323308089018887 7.462533898961159 13.869126929027525
Zr 17.45175714477475 12.579313925385136 12.391160312775707
Zr 10.550313698970939 12.109970352572407 11.612022690538952
Zr 15.14268957592648 15.074797874328853 10.418330381219322
Zr 12.390211279375968 14.745915793498463 8.486349930137878
Zr 13.098623373150941 10.402631795927377 12.302810908358557
Zr 14.663457145017409 12.823970505952017 12.51257331724681
Zr 8.021817229247517 13.505594023120707 10.724516190881431
Zr 12.276882751021887 8.706971729389819 16.50360426468603
Zr 8.635076849326067 8.985868282750854 13.178756878787544
Zr 10.910846648535331 10.437838798407924 14.294841327497664
Zr 16.20218269058935 13.012787401623372 15.120515105361358
Zr 12.365005211584569 14.600054739841847 11.574471181943919
Zr 12.823666756216367 17.05115885774579 9.934894836270283
Zr 10.06052449539835 15.575989504029147 10.150450797707197
Zr 9.574332548374517 8.45518561111706 16.048350318379452
Zr 13.856725788338649 11.100173300137477 15.607453522430783
Zr 9.49814640291753 14.738401712906715 13.024828375094394
Zr 16.881718255875647 15.469336393915677 13.251340854962212
Zr 11.993171738718065 13.13404899307802 14.24708441056147
Zr 7.89585022183095 12.020975755145882 13.154592577453949
Zr 8.174628945563347 10.718472935995885 15.709275059302879
Zr 11.542680195256516 17.359466018024197 12.504176028366945
Zr 10.886330948347432 11.168620767447921 17.086650868733493
Zr 14.66958037391024 17.616592781740668 12.108000843360449
Zr 14.069320771840019 15.525560157624243 14.117171278452986
Zr 16.236579094083083 15.474462408815816 16.283733859814607
Zr 13.531128483877476 14.001400834663908 16.687118802171984
Zr 9.35890353064216 13.19657128705092 15.52656754651193
Zr 15.841110783188107 17.848725596730286 14.80440009207289
Zr 11.418038416171685 15.894375659964313 15.357133910099122
Zr 13.037276142079994 18.374530168891443 14.542106605556665
Zr 13.838856100304271 16.93026370562167 16.826176905957784
