45
Energy = -332.72083727 eV
Zr 17.11175504044998 10.049060452584893 11.591749014370805
Zr 15.75477300945981 8.358616603286425 13.615123364337924
Zr 15.26236766432904 8.076032170196815 10.688956595314107
Zr 14.722750865458659 10.287676788263983 15.724275298591097
Zr 16.504435783543233 11.565977096119743 14.04152091540541
Zr 12.806044209530075 8.287175052262397 14.910162093707184
Zr 15.467749411542759 10.55120079245688 9.137699588462198
Zr 16.062121668702726 12.772341803486462 11.30860091152985
Zr 12.544325512682752 7.8430416465806845 11.954065098547026
Zr 14.669231384008407 13.287387142484704 16.31392971941675
Zr 14.207270239036504 10.304294778537296 12.411803857183175
Zr 13.597139283223097 12.667268288150533 13.946429109950861
Zr 15.89257401689915 15.674158612872127 10.676796965666036
Zr 12.1893469214658 11.194124026817192 16.672513253006066
Zr 12.875666020852425 8.91630690358785 9.167544089261416
Zr 15.790473509825121 14.839331333168833 13.47841556693713
Zr 10.227628474725687 8.953559395290702 16.131136108643215
Zr 14.773513983665909 13.653390743162165 8.723027858481219
Zr 12.844875966243757 11.829478131266569 10.325553608860224
Zr 11.24507980176003 10.472291229481854 13.87056481244468
Zr 10.005582465741123 7.607485348730751 13.325991888231195
Zr 13.233139525985457 11.396959340131923 7.431475834825076
Zr 13.772155241403318 17.105049805974687 12.230650615935462
Zr 10.560852828484332 10.548442512466947 8.208917282668777
Zr 9.933369934158305 7.853982521363655 10.05389869129575
Zr 10.43179891808539 10.176350783577732 11.270217325732846
Zr 11.394158072169018 14.016827140873682 15.965982157084568
Zr 13.500033147353918 16.318036947574566 9.26049411449567
Zr 8.160813236258685 9.62962837169782 14.402667578443143
Zr 13.304884525109411 14.465693086758957 11.564215561978775
Zr 13.505516191898424 15.646908407105169 14.85863481351323
Zr 11.790723413862162 14.002195183292136 8.352119463168322
Zr 9.359481699725468 11.860648756464604 15.870828374996966
Zr 7.982763840224571 10.581630341589031 9.521748490785777
Zr 10.717554486361138 13.300123113260721 12.969114567051097
Zr 9.88175759126873 13.002476839416438 10.232428270696506
Zr 8.84485536106033 12.870009414396687 7.544736227915064
Zr 7.753570396263799 8.92813308674065 11.853922017313542
Zr 8.700247176749825 14.46024076536226 14.708100740439338
Zr 7.98163257811956 12.010126053572124 12.557932028309382
Zr 10.981999712477387 16.22896954059012 10.655352414668931
Zr 10.984490990367293 16.14052822210673 13.644234659570218
Zr 8.93324871752177 15.3949836666878 8.840634443361031
Zr 7.033789575276982 13.380413693260337 9.8602235115322
Zr 8.428317232120568 15.108201937038302 11.899644139019884
