49
Energy = -362.94258459 eV
Zr 16.823704081060058 12.742173309931406 16.71731864566532
Zr 16.47376077627572 14.734387767750208 14.356683508966977
Zr 17.258866812085394 11.715962951451115 13.978863973373539
Zr 18.192032239205478 13.566074563654341 11.834168411329564
Zr 15.762637721939418 10.16991617568341 16.052059164100715
Zr 14.793323700447509 14.607688824817702 17.25588555398146
Zr 14.311633733328412 11.84216122061257 17.90579762204045
Zr 14.30863891525211 12.693781648207722 14.92857620075404
Zr 17.05006528235987 11.070833155929893 10.972878708950201
Zr 13.505727470238831 15.935809853761052 15.12798403323653
Zr 14.995636175833493 9.999466103544295 13.0551851008386
Zr 16.784519254989757 15.94396198897509 11.542894550820394
Zr 16.327477108270088 13.731317617277503 9.443291179021625
Zr 15.32098896372602 13.10309979325646 12.035899858653348
Zr 12.907844780640957 10.049127273545938 15.897305507812714
Zr 11.98461463599619 13.428838741043112 16.76177607027396
Zr 12.776851012841572 11.654340893579372 12.124973446165482
Zr 14.439515176905854 11.14612493948884 9.653850724224819
Zr 14.804261641484116 16.342679735590742 9.639424119935239
Zr 13.648432108094987 15.282241373049887 12.289743889428543
Zr 14.378485972204217 17.888351263022912 12.152683054069161
Zr 11.416490094838155 17.194065505564662 13.218142760081232
Zr 10.290435512609152 10.992571915170322 17.22136724376269
Zr 10.718602332671336 16.03822455431822 15.987336964426868
Zr 12.87507135105864 13.865291335282162 9.787421266578388
Zr 12.219841019555242 17.02271397601211 10.295648424086213
Zr 11.366522350905242 14.067634279666965 13.793246065057245
Zr 13.730218453978381 8.13210928094188 10.562196866782529
Zr 9.046347119132639 13.534991708314022 15.969756917927182
Zr 11.484539571481028 9.900138433090401 10.016181883974918
Zr 12.318078993809209 8.71593556306011 13.211836195444732
Zr 10.243509874834968 8.730137729348279 15.349721504996902
Zr 8.098753361999943 10.671633186511162 15.180741750614942
Zr 13.343256798054034 9.264630986948344 7.766154271875783
Zr 10.73723141501724 11.4601491387985 14.348002673768514
Zr 8.828904125846233 15.710314645905425 13.841985536409474
Zr 10.171250267165952 15.21660274323831 11.261712985178875
Zr 10.163048336134318 12.280509842515547 10.801988436159922
Zr 11.872366834946826 11.979445312956349 7.655320591373286
Zr 10.170240216705597 14.255248410212694 8.473940043832913
Zr 10.770357557119882 7.256305643757834 11.39366254633898
Zr 11.448486267897888 7.269773516610162 8.69215364459119
Zr 8.312569150606961 12.874183854190576 13.026754100296587
Zr 9.264680389054824 9.565747237137495 12.528941075609314
Zr 7.751559113369152 13.713590348464615 10.00827675294292
Zr 10.54784502316533 9.448344119007519 7.139735880040756
Zr 8.819499689728898 8.723414505975134 9.505927777198615
Zr 7.402053179442967 11.026487381037713 10.759175394372107
Zr 8.837134311962384 11.55278582708386 8.140546284802358
