46
Energy = -340.53826172 eV
Zr 15.709428582857328 14.67978105880689 8.890050119585183
Zr 12.931651301276638 13.557745349046716 8.525196749790183
Zr 15.310128497929545 11.78252455576723 8.461905005054241
Zr 12.596870706374396 10.659272430891729 7.123683026413122
Zr 10.187113105822101 12.630313541049306 7.674882416159079
Zr 13.495504261655277 15.993145713929554 10.367822270839211
Zr 14.821533498072132 8.913098818170871 8.384345459780729
Zr 16.257977848072812 15.743014961901379 11.400448576874703
Zr 10.711727098648606 15.052254740476705 9.615654035940933
Zr 17.379370225836187 12.938178876459608 10.861529558177045
Zr 9.974810009122523 9.636477592698116 8.30330037863822
Zr 8.12124844055918 14.005084225949313 9.388962329410132
Zr 14.576686265964454 13.138006682154177 11.123329317694674
Zr 12.251672322432189 8.001840924039834 8.536557054511565
Zr 7.759995267814098 11.332673935889838 8.872089179538985
Zr 12.874590999895334 10.617600811476496 9.942978592639752
Zr 11.189862752270871 16.3223358825304 12.708219635224998
Zr 15.96515524358297 10.109175600589365 10.810168533272181
Zr 10.167406675707422 11.944169332828023 10.604883753609407
Zr 14.149462755383338 15.83395342289026 13.29221016242261
Zr 17.079836429468642 14.222537774262225 13.67179750070876
Zr 13.810772307658786 7.860739152506056 11.084674129281614
Zr 8.85572366139867 14.941923208015336 11.998032105929175
Zr 12.545800549080683 8.313889424555303 14.03260638506397
Zr 12.99872344612744 10.648676294003998 12.696961792942082
Zr 15.23429980167695 15.037718408632935 15.972067926700893
Zr 10.923550187775577 8.258607089150912 11.108832163210522
Zr 14.418070340207546 12.813078101919938 14.158236138600568
Zr 12.24587991759981 14.595559932056767 15.270850153071597
Zr 9.1803713198077 15.41467714194535 15.172385821650064
Zr 11.968562530263602 13.663046597107781 12.214189005670372
Zr 16.983036198767003 11.209505317720712 13.483036044341343
Zr 9.592445623267203 12.747110831342427 14.110025834894701
Zr 7.4104012321290345 12.173071700327187 11.757710887064357
Zr 8.308670799638671 9.437192489423428 10.90406024142353
Zr 16.6847379238194 12.510753875675759 16.0501464644878
Zr 15.408805939227168 8.800312895623362 13.293794175141494
Zr 6.828451863102894 13.996395404353297 13.980647942300429
Zr 9.895565634802333 10.043382437406796 13.277938830782626
Zr 13.895720841929265 12.688000562083486 17.065889777947067
Zr 12.009549860817021 11.250682445663603 15.465626096033601
Zr 10.391283099746502 13.299980922195695 17.084882366178153
Zr 14.92236495081881 10.162906443617654 15.675406704098942
Zr 7.692288296839676 13.114192125233503 16.49458869343436
Zr 7.081885089362414 11.082089008432598 14.4849308628843
Zr 9.290650755729374 10.648597387421988 16.263807269229577
