43
Energy = -315.42435127 eV
Zr 14.688545236753196 12.278786721883256 8.251042340331752
Zr 15.486767415358534 14.962788840339812 9.12794702073627
Zr 13.307511296721422 9.538777974083906 9.001048854056625
Zr 15.881548927573869 10.146129594380001 9.805959053049097
Zr 16.649988609398708 15.767183510894766 11.59821646406397
Zr 11.949654346099484 11.853686521960283 7.8660620892190325
Zr 12.676223481032288 14.530440090163006 8.83318669097573
Zr 14.255458293512712 14.249697113547953 11.87291359884925
Zr 14.417907269115755 9.081033777074612 12.019556735817421
Zr 16.571365785054457 12.711447729020282 10.73166562874996
Zr 13.730720106964597 16.931816881859874 10.616306697997045
Zr 17.278792878581164 10.320574459384774 12.438365989774645
Zr 13.064528156423167 11.774777965924066 10.751322774290706
Zr 15.048160927658344 17.766681578713243 12.908107192101708
Zr 10.077587437949639 13.169894379150817 9.619172648503477
Zr 17.464845161281044 13.282320670422198 13.49854496651783
Zr 10.521590702008409 10.259213123967946 9.65483734290057
Zr 15.694126736052253 8.851830013768984 14.503294943328754
Zr 12.868026199439328 15.573113469149273 13.777560400440752
Zr 14.889667985504952 11.641723477327396 13.564308044865443
Zr 17.40913090937544 10.932230663847339 15.284295558833666
Zr 15.936719644718343 15.620705447365635 14.670654549666187
Zr 11.013399181263436 15.721185809848684 11.14234752803385
Zr 11.241539241438108 13.014379228937003 12.983513808173113
Zr 11.9778123092771 18.12478336815721 13.103292436463303
Zr 14.880726741671436 10.672528679314492 16.71458930262008
Zr 11.494935328181004 9.660835529407844 12.376056150333186
Zr 13.999916807227017 17.862240406339478 15.396818014389384
Zr 8.558921233195033 14.153231029125806 11.700935765621226
Zr 16.317814143272535 13.329864908332167 16.3593443147425
Zr 9.033180123185554 11.284258230634531 11.916110631073627
Zr 13.270805099679432 13.226668055081204 15.60769374387216
Zr 14.17728586059947 15.65784026693972 17.224310286393663
Zr 12.838574350957582 9.707807785381434 14.926265093265833
Zr 9.76472647925969 15.942927233840408 13.711755970561512
Zr 11.469274840684855 16.76512129776981 16.130939540342727
Zr 8.285099728958823 13.02756280187504 14.269007359936827
Zr 14.110645937090435 12.893819072250505 18.421280362552114
Zr 10.036441311955898 10.770335219416147 14.85570829190563
Zr 11.695082325005139 14.258111413148793 18.12553626217097
Zr 10.354032046571403 13.923495898429803 15.803206275237415
Zr 11.799443932796766 11.236407324181412 17.381518862091315
Zr 9.028244021794233 12.131225199061344 17.382910347270332
