43
Energy = -316.92616493 eV
Zr 7.844117328218775 13.221280118762955 10.184548076156629
Zr 9.437961583709257 15.089543974953102 12.114116064056505
Zr 9.154663926432434 15.644980965656273 9.14728566014677
Zr 9.232467143928467 12.714104104837697 14.482870928929888
Zr 11.827425297474452 16.94917258805475 13.208250237061002
Zr 9.046882721861921 13.266380522452327 7.472966466567132
Zr 9.949252561597355 11.612777217313615 11.813174421255102
Zr 10.668195473254867 15.207521329469186 15.13711773068131
Zr 7.726885630282281 10.406649706147261 12.973734877351875
Zr 9.143266532234643 10.840721434036979 9.069389991782199
Zr 7.934270482213621 10.250144671593619 15.91645228259866
Zr 11.948525092538079 14.077278974822951 12.679266585708518
Zr 10.221711060042544 11.378777749330455 17.053300497017357
Zr 11.738827854787333 16.28645252036562 10.377772052244872
Zr 10.827066517443974 13.319363647982012 9.863024748274036
Zr 13.695054427586362 15.268965883418392 14.872969039521646
Zr 8.152792173579444 7.921662347277616 14.323398652366075
Zr 11.571977160779905 14.877994021663286 7.489541317840124
Zr 12.229467996646134 12.57093306433178 15.282219431613743
Zr 11.567791306073353 11.693912009446523 7.336879582617269
Zr 14.470539749316124 16.131845134655055 12.1095936867893
Zr 9.69467112142713 8.435385992911536 11.709265307641907
Zr 12.498101510307364 10.79163744555479 12.589705844560342
Zr 14.539489195491019 12.928953280873893 12.529736370737062
Zr 10.523948530611333 9.800289606228917 14.389984890118301
Zr 14.305703081893665 15.382080373645953 9.205841168443776
Zr 13.871504125748968 13.296960931855956 6.944236768635475
Zr 16.442378318517317 14.64257701398284 13.898494690226437
Zr 10.587858466308376 6.716507146686123 14.026944161786412
Zr 13.65522374086657 12.44922567697483 9.868517134359111
Zr 11.89689476029174 9.933018300458057 9.852889556241973
Zr 15.137044569346507 12.531148345280052 15.395029216236633
Zr 12.578607782329494 7.831102212453696 12.27215264003944
Zr 10.156115734765137 8.243236726958987 16.704097021471565
Zr 14.592591308978268 9.919055922352406 14.29598215382938
Zr 12.706415170927192 10.049974569126023 16.807841532912356
Zr 16.753282449195755 14.249789559507057 11.014810709018048
Zr 16.191473002443107 13.264455868613952 8.283829703122867
Zr 12.856353261302568 7.755401084888352 15.234759730958114
Zr 17.04295857456591 11.854807470810965 13.081608096256627
Zr 14.8221263366705 9.791860614368819 11.186676257887047
Zr 14.724129553790938 10.604108282113327 8.081574027601908
Zr 16.77495595389116 11.404968538308914 10.185527545684627
