42
Energy = -309.3888814 eV
Zr 12.136862496845664 16.271440891861943 8.373477512753391
Zr 16.054119928408618 8.759149791496121 14.433345834240418
Zr 12.414473024511231 11.343414498093798 13.605419863113982
Zr 18.02703107538936 10.631871775715494 13.127741811662764
Zr 13.92906053949825 12.510183472439833 11.08155477798637
Zr 8.022227919796611 14.46923154917625 10.444069439449168
Zr 8.7215858662233 13.033201361521547 7.949734682636135
Zr 15.227922894120105 14.657133454447129 12.705953515172727
Zr 13.128579404942032 16.19853931904139 14.534366646280862
Zr 7.8615079995453465 10.117073159963068 12.778921998624458
Zr 16.22683119969627 13.372672371209276 17.144679463144293
Zr 10.451169496883756 16.29733686490941 11.00434635672836
Zr 14.130397053882193 14.19898149090631 8.530122834654646
Zr 11.942999539534926 14.19655159023149 12.949080904323205
Zr 11.772171966685606 11.1906981698455 16.592582704423226
Zr 10.379073028697325 10.82933908536228 8.38958234967842
Zr 9.517962188868669 15.629876048376858 8.213478192242768
Zr 13.992694916194187 13.436406894579545 15.280377338667199
Zr 11.368444420421964 13.692136337718857 9.721702189861572
Zr 14.793414900646308 10.594489227516146 16.9214694212118
Zr 9.140494725496692 14.754691622727783 13.243683976573724
Zr 13.124872050872899 8.881323014576616 15.347157871094952
Zr 15.747252996385232 9.823236874062239 11.343091195624082
Zr 15.944299030876428 15.775021561226039 15.310116702934822
Zr 13.562004714312167 8.500366913430918 12.702721926093602
Zr 17.46332357199985 11.008438661463614 15.875880503243032
Zr 9.50538124261422 9.12759816385792 10.615104299896078
Zr 10.615489216789111 9.359664110881697 13.36395766901043
Zr 9.921882698545856 11.986173256530014 11.6209259256441
Zr 16.85701493244874 12.569924675131848 11.362490181731877
Zr 9.5222199882967 12.107238497260392 14.574624148948127
Zr 13.343252202999356 15.92096995875717 10.880899638061914
Zr 11.336929956967829 14.221202702367457 16.178044827690343
Zr 7.217746584310173 12.799784838873451 12.705798118837743
Zr 15.32596703083065 11.429586731596912 13.786820232057924
Zr 13.954986241176652 15.508711490194866 17.312968667783867
Zr 12.291162833705638 10.096732344655162 10.618359367878616
Zr 13.35493296398344 12.90288081231465 18.147159837452993
Zr 13.281302145686137 11.573749713959737 8.286554595348338
Zr 17.57028173451123 13.484807706595804 14.240537298174345
Zr 7.5731486025480095 11.365152061508857 10.024920656210199
Zr 11.449855697279851 13.627681502457241 6.891823812784841
