46
Energy = -339.70241414 eV
Zr 13.350535176595534 12.615112696256636 8.331213100307856
Zr 10.478983709867153 12.826011507680757 8.745977549950162
Zr 14.658306101194432 9.703704045260096 9.126411029243434
Zr 11.987724875213086 15.5059898021537 8.454963495518482
Zr 12.655777237066237 7.190303132173912 10.023421605834393
Zr 15.577081729097083 7.56307598564838 10.847812908586654
Zr 11.885798928784794 10.121941777266757 9.158209982443841
Zr 16.360984353286877 12.182886618407055 9.420010634873597
Zr 16.612828088473123 10.087259250485664 11.55661711515543
Zr 14.843815655107036 14.662284417280508 9.822585082196364
Zr 12.053981506067297 14.498990423098347 10.945803920169844
Zr 9.243241329192877 15.14504989572713 9.648878803294417
Zr 10.126327730575003 8.891869880536897 11.086832785741251
Zr 13.96228624282952 6.273491425560998 12.640198732425201
Zr 13.11134766765423 9.124072863349536 11.974361529976354
Zr 14.100445754391094 11.975130365560833 11.220081709311305
Zr 8.248071438307733 12.87754992408228 11.133547006094142
Zr 13.726198672429593 17.145741773664152 10.92115958053252
Zr 11.296085596279099 6.747102601132062 12.70797909651563
Zr 15.679267861362112 8.317915183754023 13.903202294142346
Zr 11.180839407538361 11.678108231301527 11.635915829309312
Zr 16.5719060407851 16.18887863303571 11.632529688036028
Zr 16.694833004805187 13.145130725259417 12.334362827779268
Zr 10.443177668608998 17.216511178979378 11.047646304217716
Zr 14.214187651882076 14.770141740070688 12.92934079135077
Zr 10.52601887247865 9.045179620165687 14.010318642734743
Zr 16.96581699505105 10.856410965335117 14.308959474697547
Zr 9.292898276569215 11.548294837355472 13.7024706801809
Zr 7.580531686774201 15.898836916371392 12.053253920663563
Zr 9.914949819923583 14.720861679392565 13.087299299094752
Zr 13.021010352641918 7.964782207329063 14.996360730393109
Zr 16.719621705181527 15.501876449384923 14.400883064063317
Zr 14.901830499326449 10.236398228630236 16.428010338717407
Zr 14.99047446847607 17.634823244725357 13.586375695227204
Zr 9.41512953154613 17.63603182499879 13.808637876039512
Zr 11.962996555229351 13.240049351893088 14.26508983101528
Zr 13.861442208793118 10.942675059582395 14.041373946436131
Zr 12.183949293062785 17.09899330617594 13.490839818356244
Zr 15.576307537971399 13.124106057222404 15.434202353839034
Zr 7.194243691577701 13.456639220754086 13.790930766848726
Zr 11.60458367110037 10.587496226413222 16.12051326297898
Zr 14.022234356421752 15.756229554461411 15.738506089383899
Zr 7.922140112338146 15.76361706723309 15.117189741976356
Zr 9.465420490952152 13.324817503901214 15.940485936794214
Zr 10.858163091751909 15.810929606497977 15.850333867691724
Zr 13.092835459365158 12.836910892213306 16.792895914325715
