41
Energy = -301.36718476 eV
Zr 9.515974088188434 9.465168967440626 13.020768643098606
Zr 11.766335029838094 9.241948207849187 14.723830399252723
Zr 12.033290126670728 9.050778661331595 11.616103667865495
Zr 8.175657841093345 11.953374857622872 12.644120801829082
Zr 10.000801222156417 10.845146151007219 10.478475003329336
Zr 14.838280203015502 9.461520586558683 16.43051920460339
Zr 9.500810431437039 11.1208182357381 15.433399116820963
Zr 14.231637773426272 9.521312442854443 13.486495742191392
Zr 14.857257019176169 9.33104818731024 10.70464695874054
Zr 12.571942186434663 11.533846691827234 16.460732333031306
Zr 12.691286639410656 10.58348608317486 8.956131906728922
Zr 10.850124884276493 12.662949455570226 8.480311884726923
Zr 8.53206993019003 13.519330930302042 9.906698665368559
Zr 11.267851458797848 11.997086339088456 13.496186479359237
Zr 7.901671745229093 14.785649996945008 12.502878409972908
Zr 15.062066375280494 11.955044287486468 17.896371890460667
Zr 15.162240976632814 12.080654748265781 14.825322602714197
Zr 8.857685511280437 13.855355560680442 14.778362588318142
Zr 16.940026546929495 9.53224438753674 14.352471146132345
Zr 13.469598703405698 11.938860608891387 11.467864761694313
Zr 17.389176857191718 10.917111141555687 16.85271129150895
Zr 10.961836951846685 14.104476315114045 11.459370519392106
Zr 11.377887193064636 14.087327851971589 15.80540742282487
Zr 9.022087318680606 16.383881898839253 10.767279782083568
Zr 15.497401794370006 11.578329274756435 9.263157797813998
Zr 18.259971335716187 12.054558095643564 14.45644807591245
Zr 16.49362537691463 11.528289320059795 12.09903852471154
Zr 13.513210046646362 13.554886671402977 8.719630745306615
Zr 13.627470890045975 14.696595876293689 13.412772717914342
Zr 14.086150499294718 14.418136920702 16.87819876773454
Zr 10.972619179982726 15.470771472554137 8.817551399027975
Zr 10.468313296366519 16.207204577617713 13.676076179185609
Zr 16.983214135036633 13.839869574147224 16.48135915692283
Zr 17.066957115786547 14.409661959008105 13.525018473070649
Zr 15.757304805592582 14.133412324563018 10.78602678080709
Zr 13.716408210958177 16.115899108149236 10.324719048033849
Zr 12.674477646769827 16.59571805090122 15.707442687461633
Zr 11.48792477924959 17.36202440334811 11.073822494834085
Zr 15.518170745252014 16.418454100093776 15.107551443906612
Zr 15.861770824268358 16.640211161930615 12.251467440808542
Zr 13.375647224494756 17.655853004104564 13.200302773743354
