48
Energy = -354.95657951 eV
Zr 14.792594253920079 11.937040437264411 6.989658187996421
Zr 12.650061744169184 14.106746306301108 7.3240806860377035
Zr 12.361294350139804 11.043693235958436 8.160497528636832
Zr 15.570718562615342 14.628568075031458 7.558152752532443
Zr 14.824615361753093 10.148856263444136 9.478593236799185
Zr 12.468926606684299 8.705888590204875 11.12394909246492
Zr 10.433505448278279 13.035663140762367 8.84582842780086
Zr 16.928519989878655 12.337356107984101 8.870332887252566
Zr 14.19724272041815 13.176196189490856 9.677604685803912
Zr 13.9345644301842 16.28535614847929 9.290654799843997
Zr 10.668513617245027 16.092648023883488 9.010929939850877
Zr 10.803733069755976 10.145157291905752 13.307428900188977
Zr 15.210275068685851 8.5789960507827 12.217258373573166
Zr 17.042498339736124 10.240221816469655 14.071177991386431
Zr 9.586597386551068 11.246496263914239 10.883294809977517
Zr 10.494658588330768 8.964093873809897 15.883461933619854
Zr 16.638300695920755 14.932997560307117 10.321069549232321
Zr 14.115367239550261 10.809960962780774 13.615388751944403
Zr 12.615229885385572 11.42036542042382 11.14071684107744
Zr 11.78953594619763 14.836138436084013 11.002476586066342
Zr 11.11694444910154 12.962320977445739 13.2181359743621
Zr 16.277410906049983 11.974085681812674 11.786944871123714
Zr 8.740353068871116 14.095308166480644 11.005297941001716
Zr 12.74142902547952 7.901980234818421 14.144905463745584
Zr 9.95036187003558 12.18184964447016 15.891768133605842
Zr 13.200416235252288 8.454848827703879 17.228534705595177
Zr 14.341154044130752 13.966121339270664 12.701274713610433
Zr 12.71491520322097 11.0321623604517 16.033442919556776
Zr 17.14712052438224 14.845285798652132 13.12375489962298
Zr 15.311691391470893 8.210177715231813 15.082947593458094
Zr 9.478553310839303 16.84452018762704 11.731554155653637
Zr 15.925258991474038 12.911658822593248 15.013458692860528
Zr 8.954047088374239 14.983027733259197 13.90306788379317
Zr 8.313396684859622 12.108457212231801 13.296643891245456
Zr 12.157362879408161 15.886168024746596 13.67916824305319
Zr 10.966543995257751 10.338210105221371 18.235181949833887
Zr 14.882020660364752 16.873954119181562 12.031153497718622
Zr 12.036039834948976 18.004469957538497 11.526798565929912
Zr 12.936659724384974 13.92848990190373 15.584703031679368
Zr 15.73603122666866 10.394221630965996 16.852590229375295
Zr 15.096839666040031 16.0021763269745 14.935709449919875
Zr 13.685312643430878 10.823822211207556 18.965272061336773
Zr 10.322795359416244 15.389897951099615 16.315550921307484
Zr 13.461219309476776 18.44483405580337 14.16985824955158
Zr 10.457033206013657 17.902069103776945 14.3939448019482
Zr 14.75086616085381 13.096974958395238 17.67843731804643
Zr 11.91402811245395 13.137199224667652 18.214051094114254
Zr 12.596148920491109 16.87122615091157 16.47430551564977
