46
Energy = -336.40711926 eV
Zr 16.730365565152685 12.851039194705399 9.057008544458613
Zr 16.02309722696127 15.552608144907557 9.10287496917766
Zr 14.101956293442854 13.975135389765198 7.627062555196905
Zr 14.811392789606181 11.235215026416823 8.003872218195818
Zr 17.156207650117636 14.395379247753874 11.616623414894871
Zr 15.251010413501966 16.69429536001775 11.661734992516973
Zr 13.223090020033105 16.308137848846556 9.33733903077879
Zr 17.467983180950487 11.436096838984312 11.735061455337567
Zr 14.257611330070544 13.53114469861421 10.59406468143312
Zr 11.101791010934793 14.301391880164037 8.501403896199134
Zr 16.886459711706962 10.459451729710777 14.747285077165039
Zr 12.301672636297804 11.662522410746332 9.021410902506807
Zr 10.40496413726627 16.609284499090467 9.973365308601366
Zr 12.420116974965199 17.629241343607926 11.941190011272841
Zr 16.198029452530786 15.479633347829315 14.268805536671053
Zr 14.274493602924553 17.60025940665398 14.28286362025852
Zr 14.513267431274476 10.494043175543993 10.743148848051005
Zr 14.966167631052407 12.239582481518365 13.336482030744769
Zr 13.190139939118982 14.897072331673263 13.558157916574443
Zr 16.23401303237558 8.921353802723464 12.383410513385433
Zr 17.813949145107593 13.002085384212371 14.14882282678259
Zr 11.381635392868018 14.145069389099925 11.47390759069107
Zr 13.95091272811764 15.499752444005988 16.405978386529252
Zr 11.561841789533432 17.19095044414646 14.794311727769879
Zr 9.994181935591183 14.306186245918655 14.223223885424733
Zr 11.929550270202357 11.110842893873668 12.52031841567027
Zr 15.583803789842264 13.086680767569264 16.087017681360003
Zr 9.889244130920144 11.772770187368339 10.220962007394753
Zr 13.63278715436465 7.869131422741519 11.73741851848497
Zr 8.541710422529436 14.382358244435768 10.982669346112278
Zr 9.762719389737168 16.624562642018876 12.651054101650667
Zr 12.297694442309952 12.37114126111531 15.498845567292205
Zr 14.133717250586079 9.371649702535802 14.223353773008162
Zr 11.457778595787527 8.996169450705674 10.370943402656515
Zr 11.066923044188911 15.090496687638444 16.622831748001925
Zr 14.300073150762579 10.474980654418546 16.99585530299697
Zr 9.785615836631095 10.309884366939878 15.13143623653725
Zr 8.653110990636147 12.154537702180452 13.006573440219643
Zr 13.624870319630109 12.84819428823461 18.271075607855195
Zr 9.128506196064503 9.560301107133965 12.143690738450536
Zr 9.310448611439325 12.773760419314925 16.595251151644142
Zr 7.211030840824656 11.628884967576832 10.61825197453827
Zr 11.314919161956217 8.177454980586726 13.340158399746425
Zr 12.097241711875018 8.936832486025594 16.01778466124814
Zr 11.301421656983436 10.840947064306562 17.90651099928387
Zr 11.030983675139646 13.51861203618168 18.800924438905803
