42
Energy = -309.15920589 eV
Zr 17.103068790721785 9.347963206213231 10.792434598993804
Zr 17.348213623402486 10.33744802911626 13.76927828577205
Zr 18.123185407172603 12.013359782030193 11.351338023595403
Zr 15.638124691461519 8.029711016505754 13.186878714012806
Zr 14.718452956864455 7.286729143436633 10.644524884847492
Zr 14.072393359645448 10.049037031660383 14.717406709869293
Zr 14.893962660980282 9.323199519394079 8.606992004893222
Zr 16.004791009984743 12.014881846239168 9.349940132081601
Zr 17.768932223971003 13.440383515662875 13.786863271074916
Zr 15.564685977205887 12.405498230796441 15.685532121474948
Zr 14.39074835681708 10.053833188715398 11.362942018372147
Zr 10.915427528740311 10.191004550573725 14.823510426405019
Zr 12.651786775138316 8.053970378108842 12.802628742276648
Zr 15.471588651017049 12.193893254695107 12.761217134454599
Zr 14.145546586340636 14.758457722324318 16.49007301617464
Zr 16.417256614051436 14.549104389299336 11.094666956557871
Zr 12.821132166987608 12.133215814530615 17.12452654763042
Zr 12.144072742721498 8.794212190129723 9.903523251219708
Zr 12.721907172231557 12.904951340071309 14.48167337398766
Zr 12.95636466541998 11.522352575806657 8.845441588312813
Zr 14.165636531962608 14.37012585499038 8.841472260069736
Zr 9.405207091252104 9.665397279682404 12.3042132122393
Zr 15.1569474252884 15.022969685421565 13.734509711689837
Zr 10.001654471178083 12.274831493805687 16.319642977336613
Zr 13.51353073904946 13.45181867506984 11.401089189380842
Zr 11.97283483445958 10.94228349153168 12.117030463229518
Zr 11.304313008671857 14.875172769085317 16.524261041515036
Zr 9.731842125997263 12.623195224018637 12.90936846155878
Zr 9.828181845261343 11.42677263800711 9.988983025727874
Zr 7.770323691944279 11.364635767306769 14.512325819721136
Zr 7.320078197259266 11.508878368240202 11.521181900301723
Zr 12.90190681301995 16.79084955657308 14.617750164674856
Zr 11.28349664639537 14.00151489850147 9.819606183995887
Zr 13.268022032480621 16.31202312617748 11.288209610266932
Zr 11.133945706096391 15.093457065995997 12.968441690451167
Zr 8.5085997505 14.4448008312387 15.261580244722039
Zr 10.007283067298498 16.999338541775064 15.101743311981703
Zr 8.357622079496958 14.184802568241357 10.496211468260672
Zr 6.858531572084114 13.79190211509136 12.997175998476713
Zr 10.979975617591327 17.96426390885997 12.609375091645184
Zr 10.241030602164257 16.531218462532735 10.372201075630707
Zr 8.356743730658922 16.267504614493273 12.723556477708732
