44
Energy = -324.71228958 eV
Zr 14.685170696681704 17.03229373612858 10.966665702893827
Zr 12.120680648495638 15.970453393671544 15.89714751427513
Zr 12.10752699037716 17.379136880183804 11.979882443233125
Zr 14.012655781340365 15.59747523975566 13.696039746614387
Zr 11.869805204321262 14.085867721744318 17.96712168930919
Zr 14.50933383770551 14.062933918853853 16.55600682507142
Zr 9.709639675773365 16.14323124770065 10.635722048249056
Zr 15.861956662611481 14.044868258997262 11.337343966241205
Zr 12.22932119397691 16.77500178167641 9.021304621259553
Zr 9.617516073447717 14.342078748279262 15.92760668074061
Zr 10.853327309937239 15.22402026182308 13.361795253285873
Zr 16.42519804137394 14.002639801423912 14.38824008047026
Zr 14.891189138109876 15.272083000129218 8.797150875790411
Zr 13.264526167095298 11.39848853836846 17.619511083964092
Zr 8.524735694812806 13.859638932644511 12.412472492476686
Zr 12.938395747156788 14.671231651902096 11.05339222817851
Zr 9.886027051789517 14.949245909457877 7.737213953099078
Zr 12.051002519365946 12.95719535914435 15.247247428184481
Zr 14.209292940897111 12.562068133765354 13.065421262097319
Zr 10.196402585426533 11.96331759019033 17.497876956311803
Zr 10.681972410351737 13.21410570860905 9.880982406251542
Zr 7.811571603835435 14.081359360736652 9.685247277814478
Zr 12.749203021322888 14.42439121924652 7.399521445010822
Zr 11.125985388859288 9.470755990595931 17.011268409998472
Zr 10.920407610765263 12.108704402943674 12.526322969958873
Zr 17.03490695056474 11.641936258696514 13.063999740612482
Zr 13.855531793458281 12.369754480128117 9.204034566747378
Zr 15.474443586130615 11.331415988159629 15.606778083287406
Zr 12.56505346904137 10.275476812917063 14.347084103051209
Zr 8.42215596360043 11.3592998617125 10.924288096828525
Zr 9.48013937191221 10.804460788450223 14.765115291399553
Zr 8.720303587280739 12.036586277358344 7.9912744013556525
Zr 11.366384202245536 12.151312034792099 7.103496136785471
Zr 10.871355614908026 7.93900227053953 14.806861359877082
Zr 15.98129199108673 10.660684901830548 10.519322775953043
Zr 13.107933284758309 10.245354395964403 11.358687949064754
Zr 13.779499346058635 8.57809133412901 16.03196185636845
Zr 10.722678403368514 10.173228318190267 9.291251267066675
Zr 15.495821145557645 9.20793975876819 13.330395288979403
Zr 13.739677292467224 9.606625231992108 8.557928289935386
Zr 10.38972582939935 9.035595755946517 12.189631810674877
Zr 13.114498833288787 7.510622798360602 12.963389237171338
Zr 14.951803993808753 7.943085060719436 10.675924672690856
Zr 12.145113325606758 7.698185410505777 10.119640810600771
