44
Energy = -321.79851046 eV
Zr 16.910437444402415 12.125426172019312 14.705175181687874
Zr 15.771710439865867 10.208035127463804 16.770279341574337
Zr 15.523676748216012 15.033239826500164 15.06810809921373
Zr 14.336899297630975 12.553008274097277 16.000654013323114
Zr 13.853507772396659 17.346506700162504 15.190770132726538
Zr 13.376347249001721 10.423118127432128 17.961014114885412
Zr 12.992192928489956 15.189077128129666 16.824108163471855
Zr 11.592500985167721 12.711132937889372 18.193245955860107
Zr 17.593023758981502 11.22047162842899 12.35639978644374
Zr 15.504803488187132 13.681410676604399 12.176028322357135
Zr 15.182350088904899 16.651063545831892 12.651118749806805
Zr 12.461102802537809 17.839018704280377 12.845092154498294
Zr 16.263092632529247 9.152150601774482 14.158690335264708
Zr 17.672996437241967 14.004862876971329 10.511082467797896
Zr 15.466351243573854 15.867992187596633 9.711852045448905
Zr 14.344176057040588 11.152351358335338 12.779506416589951
Zr 13.103779676327974 9.668432588941943 15.091985224575568
Zr 12.801686525669313 14.820363393874937 13.587123362309178
Zr 10.738513494051585 10.128489985226032 17.05532470890607
Zr 11.51000021008604 12.505249717493385 15.212676890022186
Zr 10.134898373981441 14.801002192177062 17.011541920410007
Zr 10.991562775779393 16.792523163741745 15.165332110830226
Zr 16.306250695684877 8.906660306092085 11.31946606599443
Zr 13.955228146190198 8.108079200054757 12.653743790825848
Zr 12.846645540111176 16.007792355101795 10.714544851265893
Zr 15.901969343889352 13.592657209526655 8.253703833650201
Zr 8.902054715688669 12.26555781834813 16.485097350424237
Zr 9.05607530858807 14.564006042219479 14.349021564844568
Zr 10.14707358697391 16.1138721154884 12.224731531819542
Zr 13.3166080349249 12.915933451642273 10.258439552638484
Zr 16.076133996419482 11.352610014775616 9.881767626994092
Zr 9.785296410144161 10.09762262607246 14.38070538924502
Zr 10.771217911172416 12.64625667623569 12.168150000807392
Zr 13.771640330989865 9.410764361847352 10.006242124900288
Zr 11.628114407280702 9.576053617400653 12.179813363810839
Zr 13.277035992850069 14.76586691760502 7.904265421370261
Zr 10.593067966905242 14.578693541497577 9.688880705666024
Zr 13.799472187371318 11.65155097179236 7.688354313588903
Zr 7.8473638464044875 12.031030726242939 13.718313383268361
Zr 8.110256653170529 13.777418670397614 11.509063937010048
Zr 11.225001537981447 10.778082981147053 9.55437545327758
Zr 8.728337928691655 10.636943860673629 11.394860563528574
Zr 11.225370808695445 12.781788585243522 7.4549749835983805
Zr 8.908581110132992 12.393252927667861 9.109852109757897
