5
Energy = -27.26822429 eV
Zr 11.417584828977612 11.096853004262769 12.087594731552501
Zr 9.483441648377793 11.33399456703562 10.047154655077641
Zr 11.655635213724407 10.499949299284548 9.343024906724406
Zr 13.628485164171629 10.06217145257123 10.971211347690605
Zr 8.922187354596323 11.999538595731238 12.495108190730205
