50
Energy = -370.81700922 eV
Zr 17.148286640934824 13.687122870487519 13.871745055233765
Zr 15.761864114824164 12.768605566426187 16.31561999681144
Zr 15.715161529932697 16.142296381197006 12.556495765749082
Zr 15.341232896802023 15.6133519551832 15.372991970312833
Zr 17.77846079411489 14.628782257345609 11.300540658563909
Zr 17.051120886849084 10.651851641757002 14.332650647759154
Zr 17.956057450176456 11.605807257478112 11.466826980312376
Zr 10.199377036280062 13.088393615697353 17.38701675795465
Zr 12.899468712513283 11.421539054629521 17.232769209051664
Zr 15.34440908360432 9.795370942163967 16.64630236650978
Zr 15.35995005930205 12.711512254345603 11.237532313694153
Zr 10.75610800672932 15.87071250817118 16.450459179862186
Zr 13.917208645447182 14.023918896267396 13.375906963591271
Zr 15.501270030376734 15.378536171170593 9.448247911062245
Zr 14.182516647102243 11.158303361554958 14.31890460401846
Zr 10.184860486003092 10.088299960589806 17.191934545831966
Zr 12.591367998630613 16.618217676323088 13.998160273970612
Zr 12.914710534786034 14.055417815570685 16.10643070466079
Zr 8.128704088054473 11.472852836265918 15.9317238214421
Zr 8.262116926702202 14.438463563051265 15.516712155393428
Zr 17.420770057134153 13.207834133220327 8.987292994150955
Zr 15.73651771498823 9.552952927125549 11.804925437082753
Zr 15.126458595848465 8.308876639373729 14.281547659639912
Zr 9.450885563312177 16.98748729421548 14.323773674791425
Zr 12.539715167228453 8.964177310872902 15.672707311013456
Zr 10.735983218682406 14.409551307223262 13.740926368777167
Zr 12.39487541280553 11.754172481237992 12.131220742276646
Zr 12.720587414938125 15.418327145294125 10.953828219967884
Zr 11.02508527802422 11.612798395848388 14.805706523814212
Zr 10.261544009362288 16.592158922502843 11.593401893171288
Zr 16.005618516896792 10.730762721124067 8.961850536178023
Zr 13.31358100657956 9.881655740348728 10.134794424040953
Zr 9.419919081045327 9.24235883310563 14.299685624616817
Zr 12.381169559198279 8.650149851198584 12.676196279439866
Zr 12.98529701892135 12.892576335626732 9.404538113114453
Zr 8.247096658457439 12.192265666879711 13.19023398558327
Zr 13.171283030825796 15.474341466646548 7.8267436343285235
Zr 10.079305160444928 13.489713026252367 11.029826877093956
Zr 15.085439823098966 13.17351120214738 7.2990054045176525
Zr 10.020748309765976 10.290937439565381 11.479419925863043
Zr 7.9842334349432065 15.10806315848593 12.54596035358177
Zr 10.596115071878383 14.580671782505181 8.608684711898771
Zr 13.387010735503992 10.648673774415808 7.379983685140264
Zr 9.360409734290862 7.517323653140124 11.80014582430183
Zr 11.098395812097703 8.16240704996222 9.58927423777681
Zr 7.217781553367172 9.505421042174332 12.099818548783427
Zr 12.127754744408707 13.058023652214684 6.591124250629357
Zr 10.602487984571871 11.212428900929247 8.672047187541775
Zr 7.763735739117908 11.80354543889422 10.214249462405759
Zr 8.368630938847625 9.052373245364132 9.415737455289008
