5
Energy = -29.48176871 eV
Zr 8.282498053629814 9.146588094081164 11.127433194759227
Zr 10.344587485234664 9.615690697781014 9.239092840418866
Zr 8.678265040079532 7.347061088608838 9.136612315965447
Zr 7.666610883374039 9.887216777702983 8.455777039167893
Zr 9.483658656758085 8.461527453825276 6.8023779578537695
