52
Energy = -386.11426388 eV
Zr 13.50788631895323 12.161731568778759 6.72672112622874
Zr 16.05060083727687 11.878715577282561 8.159462726556356
Zr 14.7710826763709 14.43512350459514 7.856176485959659
Zr 13.838320266700222 9.713208497425924 8.401027350421979
Zr 18.674337872637693 12.45341871195551 11.056149636230986
Zr 18.390169777018695 14.989890654635378 12.120707427236459
Zr 11.777017540981612 14.288918517221221 7.982566646892551
Zr 16.056700476542133 13.846901491977077 10.534969509201176
Zr 11.053192813868394 11.345945667796387 8.03603398860484
Zr 18.642721366652893 10.296058826437802 12.767849244638963
Zr 13.65895260894249 12.194113189732883 9.795171581837048
Zr 16.212999371162123 10.593947028164452 10.817108467722194
Zr 19.44484169270437 12.914280776007184 14.068678582740391
Zr 13.773552482992939 8.78168348528699 11.410821787064435
Zr 11.42018373388872 9.561890097415516 10.08374630420738
Zr 13.442035782883151 15.53113726738699 10.068855996460025
Zr 15.715677486521848 16.038993817047743 12.632956004076487
Zr 16.693757946324727 12.627446499607121 13.340035550244929
Zr 16.007409985243086 9.345430019288683 13.695042937161087
Zr 10.49348512083483 15.717846995116865 10.626588323057513
Zr 17.640287880543156 15.422893526510045 14.84540197660378
Zr 11.073372878470005 10.212234872898875 12.79357604105209
Zr 9.166130005692002 13.544537682424199 8.872728560291717
Zr 11.144509632512642 12.795017405515715 10.91176292881176
Zr 17.901506845533405 10.704973980712799 15.46159883794822
Zr 8.86987771314036 11.112229999492719 10.555640821046362
Zr 13.42739386326751 14.064117775847324 12.501030588423557
Zr 13.928972529948291 11.264128644800744 12.825305515333195
Zr 14.923419112707188 14.178792221560066 15.089192550154001
Zr 8.09601462979623 14.008578208121461 11.50054695264888
Zr 14.46487777617789 17.367279513860876 15.094639575488749
Zr 12.818172471434616 9.376188279300253 15.002807458380419
Zr 14.958257161415514 11.11138774678936 15.816435865788904
Zr 12.072291958045804 16.536455554577262 13.302155401285455
Zr 17.34801684860417 13.204044024015086 16.50893011551724
Zr 10.046726200280212 10.079055143635225 15.492669306839872
Zr 15.483400432979735 15.730392424251377 17.43757869089519
Zr 10.366120255887433 13.973611919058245 13.549196968258025
Zr 8.396049171640838 11.647607820181763 13.573158861832209
Zr 8.961230436580172 16.505382705636233 13.109048086266254
Zr 12.173858171354835 12.32577707853044 15.209121008985733
Zr 12.548228771269661 15.29763214067517 16.276213907885595
Zr 14.076401607349693 13.056889227522783 17.94037776408689
Zr 11.752310967479154 10.92518574685665 17.645552606715995
Zr 11.525448868050711 18.051870134494283 15.70819847455963
Zr 7.563553772172245 14.255365683911421 14.412897602864579
Zr 13.488647860189396 17.87128055997622 17.79795918384385
Zr 9.607751724843448 15.703411113976383 15.930703905913804
Zr 9.214068159891138 12.667529000691339 16.39417482813949
Zr 13.227983344750678 15.465884890616953 19.32559646959782
Zr 11.145311030578517 13.723261410317829 18.50449906007227
Zr 10.870784445693412 16.785632665304146 18.33672627347609
