55
Energy = -406.54813851 eV
Zr 13.968833949413927 14.378639023896401 13.791898339417735
Zr 8.262085256056737 8.956583535753722 11.986083049724932
Zr 12.750959277640755 7.572705655377732 15.883304820396306
Zr 8.802630157605465 13.548331818229501 14.495212096141769
Zr 13.329201624572159 12.289108843834732 10.977064653772713
Zr 14.018154942470265 12.540638567370578 15.933413723742776
Zr 13.562023621597909 17.309928827143946 13.338397927933876
Zr 13.220906341754668 15.509672711175623 11.048120978073397
Zr 15.77775891392098 16.69033323141615 15.025274535425526
Zr 13.767227786245288 10.040289335875942 14.057240710406612
Zr 13.385683494062226 9.025245135406141 11.140082748138
Zr 11.295217587097696 13.989642463077487 16.297448846416117
Zr 8.868160521864876 10.517393155233282 14.474606928266493
Zr 15.936770409060134 13.725192879261312 10.53018247282125
Zr 9.563387864939578 11.966180117191628 16.886474415769193
Zr 13.751718366657107 7.062648729202715 13.262526133835824
Zr 15.842225811559102 10.637775237388054 10.429851249022287
Zr 16.451003369787717 10.65619069609399 15.433832928484376
Zr 11.427482181763674 12.166307701204998 13.719973119059146
Zr 7.541184764339562 13.714360346129123 9.520315971041326
Zr 15.534101650793616 7.832970699741839 15.447796751147592
Zr 11.142130523382686 15.45937238166096 13.663231703212716
Zr 8.116450847263073 10.783608471267321 9.461494709206987
Zr 13.093954339707121 16.338240667662433 16.179065786084625
Zr 11.007810606704115 8.561005548069788 13.640659976383013
Zr 10.85530637293073 12.214867399932741 8.599679336409983
Zr 16.93075732706809 13.964104025713953 14.908085324759366
Zr 15.792425182663198 12.088493496147139 12.983567702657409
Zr 15.650836136165015 12.294326803027161 8.16000749440789
Zr 8.655965022415105 12.299449879556617 6.664837472253637
Zr 16.080546238760313 15.870422145369798 12.427055653145178
Zr 11.37190784804116 16.201638966061726 8.542668813385283
Zr 9.027856726093878 14.976052438477314 7.428070045708785
Zr 16.184253255406286 8.819993414957974 12.879105450548575
Zr 8.642130092636016 16.411334649870685 9.61609142376107
Zr 8.9527962977223 9.46483836424939 7.167368518780988
Zr 10.49593849352584 14.118488230696554 10.878437703637028
Zr 11.343685437949521 8.547914357150056 8.46745839022017
Zr 11.269567900045356 13.908744843983534 6.154155354924919
Zr 10.675388400204058 17.091683157376075 11.367153474342782
Zr 8.71322664828973 7.9038479360850475 9.425183539016645
Zr 11.301275920375998 10.713535813780469 6.1130276360515
Zr 10.75611098196841 10.304461305433646 11.09383787080496
Zr 13.475486511567635 14.22369548678741 8.393139878178449
Zr 13.616394703245758 12.35749187539785 6.297314651479958
Zr 10.828655681561512 7.309470057153508 11.210307026437171
Zr 13.462249373257182 10.421723213788077 8.4317991398825
Zr 15.547722727367196 12.352976716496476 18.287980031390394
Zr 8.418612785455787 12.157088377004213 12.022417171536881
Zr 11.506181470558088 10.1532620083456 16.164757459622937
Zr 15.625073870446196 15.09876707541512 17.19937190872387
Zr 8.126606800191599 15.310426465693698 12.148821413893348
Zr 13.314623517459117 14.355630375548088 18.448714571488974
Zr 14.338522371739698 9.762777655895592 17.271065844945042
Zr 12.413387980148228 11.820683971456445 18.415521409197734
