55
Energy = -410.06015944 eV
Zr 14.877414296407979 8.511770234973778 8.797126622576425
Zr 16.15046950273263 13.475280221435787 14.543449112962193
Zr 10.986346413633907 10.855310401155942 14.644848615174494
Zr 7.373727692127225 13.912667315033337 14.580061735304682
Zr 10.301000664363038 9.888711199437024 17.36781751979997
Zr 15.27028142153639 11.673950577877664 7.760504658405606
Zr 16.696412330580497 10.733595742333918 13.508188835836014
Zr 12.53621043451489 11.761794611335521 17.43588488658151
Zr 11.76917222838208 14.680018848920644 16.527411002681035
Zr 10.298122017130364 10.374809092016642 8.77476549569702
Zr 14.426809600043224 16.22725887850184 9.596861950584564
Zr 11.041117676200084 17.208415079760396 14.656964146314571
Zr 12.18973569303797 15.562929025760182 7.463791398705099
Zr 10.495562121347385 6.460588562231197 12.66484373605772
Zr 8.186577656032004 10.075794003084235 10.688780108035036
Zr 15.145148583682625 11.086381839673138 16.16994316246371
Zr 8.15680020774039 14.703510964799683 11.682965344463204
Zr 11.019412455913756 9.347952519316898 12.049255078434436
Zr 13.025386538049672 13.186429986039332 9.064756085183808
Zr 12.050185316185534 7.995267367444243 8.330440177416643
Zr 16.385252287030674 13.881406157030062 9.558961693995231
Zr 8.385424431149795 8.43518368870694 13.057245220135814
Zr 14.493511332288533 13.907561092769347 16.87960164941376
Zr 13.826685047646878 15.789658548548845 14.612873481389256
Zr 10.070616949784696 17.201616834891862 11.84683832799174
Zr 8.24825232954815 10.058782775806348 15.452425282188525
Zr 13.196785300354154 10.263245905328342 10.142315041561139
Zr 12.867426225297196 7.050190849040757 10.872337278369852
Zr 10.11188330548036 15.037935401470149 9.585775247280997
Zr 8.421366753300536 12.600092623722 9.560815537888965
Zr 10.50832375912833 13.02259992829715 7.370199493676687
Zr 13.69115795063335 10.283910066693542 13.377276415035903
Zr 9.569397275825938 12.650519825808937 16.43046775119367
Zr 9.803806290565705 7.614667141634076 10.150048556638536
Zr 8.194901559178078 16.62247813588496 13.886645781186315
Zr 10.390353494351796 7.847702474717919 15.230978958829711
Zr 13.056238759636571 13.015567051783691 14.41093827189238
Zr 15.402310872407623 8.289894191914208 11.950253852545801
Zr 17.46561734844923 13.14026682730141 12.010498586479137
Zr 12.9695868078093 8.971166893662357 16.409431352414632
Zr 14.539784708377146 12.841413384618104 11.700095271487411
Zr 15.470414114827818 8.452134018591838 14.903840130503848
Zr 12.381906236414224 15.12535471342089 11.719785750394596
Zr 11.898966103295693 17.472570747913895 9.745442141595465
Zr 13.108308957950305 17.75338369894612 12.37447146675624
Zr 9.01192809453932 15.592245032048517 16.309666283317235
Zr 10.253266202865248 14.329770661204853 13.850276238552414
Zr 13.05279513472773 7.279114012115919 13.864735934192735
Zr 16.260638280622505 10.782641731037945 10.475346601690777
Zr 13.16375702890342 13.132239140149435 6.0448540047843995
Zr 8.48023963144902 11.771421684843919 12.995262991876357
Zr 15.012338874705002 14.712573326907593 7.210813464369367
Zr 12.733938015675971 10.524238159517449 7.159689400956096
Zr 11.00673270879345 12.333468221569913 11.30877904154821
Zr 15.593294977345634 15.513648580968583 12.255453825189011
