50
Energy = -370.57528217 eV
Zr 17.936440158314884 10.42274215124081 14.505805496107062
Zr 15.93188104776166 8.393223298455524 14.426897234843068
Zr 17.261045970452795 10.297391125556686 11.793291776216977
Zr 14.909827011971782 8.005748816262738 11.292247022664814
Zr 12.30187370967956 6.732742666198576 10.670011595287635
Zr 18.64898591602097 12.935832510197587 12.880360168199703
Zr 13.042863417992615 7.4214519097224505 13.504464164946873
Zr 13.072102132511638 8.76137303880541 8.7852047980022
Zr 17.940588194110617 12.75576343079797 15.949143751643938
Zr 15.53731429779874 10.951445355115318 16.29426157297393
Zr 14.816089109025196 10.624802448413229 10.021261178309196
Zr 16.55557958320004 12.915826703093147 10.474417726145916
Zr 14.46172121018055 10.378233619160678 13.189151642196911
Zr 13.3643659652539 9.20473505690475 15.833749066035857
Zr 16.015901433620442 12.785633577837407 13.692748131999016
Zr 12.212578937508265 9.677953646911314 11.534945950559168
Zr 10.20465455245802 7.5916331358054885 12.376178690832814
Zr 10.320774791534419 8.573317488624703 9.585757894383104
Zr 11.594224776735382 11.51835058831282 9.372257235689803
Zr 16.682949506543604 15.416548320918473 11.993780735314774
Zr 17.65995787150479 15.186010699632684 14.672965213840047
Zr 11.014567141248047 9.665219344700327 14.364285411871514
Zr 14.164844944705216 12.889668000271246 8.408090461174195
Zr 15.341842025966175 14.186327124833504 16.423951871823366
Zr 13.060419149354951 12.267548254099623 14.924626258962165
Zr 9.303768559866365 10.399410459802217 11.68487244333853
Zr 10.963176004951585 11.495139294109762 16.761237767230334
Zr 13.55644867159043 13.01474603989897 11.321504541875244
Zr 10.925575466608597 12.479862221462296 12.522990010103662
Zr 14.65818178847695 15.437369075415713 9.69859120094488
Zr 12.143213628885714 14.05339731527038 17.432437401912114
Zr 15.48330633670172 16.996767908652203 14.555825439573022
Zr 13.896686675970352 14.872698861028931 13.660780824088484
Zr 8.76440341263941 11.850700453575955 14.950951917554464
Zr 11.798647724900658 14.604702464550265 8.702218612758806
Zr 13.364354886485954 16.337265813059783 16.48196715068602
Zr 9.319013407738721 13.653724925955208 10.013372972065346
Zr 10.825985069124558 14.463669844450518 14.607083119413392
Zr 14.256168649773588 17.476246462395565 11.828390549934797
Zr 9.264804737851067 13.789020802357312 17.158880136347527
Zr 11.632092056994752 15.588167828590011 11.665429155650976
Zr 7.832208436067363 12.829495741889748 12.543383100952997
Zr 12.571439130288411 17.331903548408846 9.337276231323344
Zr 10.351405635027927 16.506944135916367 16.425980962329366
Zr 12.346292740499115 17.599761393721053 14.21591888043748
Zr 7.935674266536318 14.850724904128 14.850300363469696
Zr 8.233131117817138 15.380993237517139 11.98246917114386
Zr 9.740184651046317 16.76625508641512 9.932467999743269
Zr 11.518090764385288 18.61224515868434 11.566449163433036
Zr 9.547269931950447 17.292013926459976 13.396094651680084
