5
Energy = -29.44355843 eV
Zr 12.934858060002032 10.916815762606031 12.720042318427538
Zr 10.804678085429696 11.42317550293648 10.924004392102223
Zr 13.404222119947978 12.276510883746665 10.309563426557085
Zr 10.452032802893264 11.798363581385315 13.685032035347904
Zr 12.032698393719217 13.554953596798953 12.305373576720461
