5
Energy = -29.47882184 eV
Zr 9.959221414276854 9.344047312149755 10.638924428057553
Zr 9.24087979460361 7.849260903292083 8.37035430829505
Zr 7.314481158551385 8.410692036252584 10.212960847459765
Zr 8.376842303312246 10.512005303811607 8.649166109399543
Zr 11.073459058366 9.812410124254164 8.063855745005963
