51
Energy = -374.74712758 eV
Zr 7.536779595781679 10.816522736959307 14.437132861742453
Zr 8.94503031274214 11.445089638029138 16.814556587193703
Zr 8.869323612022255 13.692714858236576 14.850380431439957
Zr 7.39843462572529 13.714045927578498 12.221079421660155
Zr 7.184310188621671 15.88116230378362 10.506468095942475
Zr 8.650123175749469 16.427633230222984 13.088001856379199
Zr 10.875964588795817 13.447400097321278 17.324830243226543
Zr 8.893526187144536 8.688561211217928 13.119844899023736
Zr 9.618653855988777 9.031614258384055 15.750644469629663
Zr 8.651271125719658 11.228938599877504 11.577093928443272
Zr 10.651152945000742 8.902825534513168 10.906332867911571
Zr 10.504416685175382 11.37386300458531 13.895932662721993
Zr 10.53453997969523 16.275584776150964 15.196296659061064
Zr 9.001237115806259 13.494890857033287 9.482457841881752
Zr 9.584809221566346 10.598624752466002 8.872086511884085
Zr 10.45034736317276 13.954633828034412 12.21795096630543
Zr 9.751258093109703 16.401728603128145 10.319994302284021
Zr 12.468990838501124 15.736622995620774 17.37784092745931
Zr 11.98215868453889 8.864652759075053 13.743292840115258
Zr 13.655352706261322 8.706947871909636 11.170839793155947
Zr 14.197879009570194 13.036868857228168 17.33128861982437
Zr 10.765074553841739 18.599737225903272 13.457404329456173
Zr 11.972139066492932 10.897084364533566 16.325979437928734
Zr 11.968643806555573 11.615121984820036 10.558017524492653
Zr 12.435485573950494 14.057671995153239 14.872621621153174
Zr 13.531190356703272 11.395680624431437 13.543384287274034
Zr 12.283371288209555 9.852112514411052 8.270174177762136
Zr 11.912652462134826 16.398565754918604 12.318135132383963
Zr 11.322719266291582 12.534733578217388 7.669495348021147
Zr 15.435903098970652 11.766217836161953 11.03147259181934
Zr 15.0682015477604 15.993951545448532 16.893334056706777
Zr 11.994021018008713 14.6074534031465 9.631117995085557
Zr 14.97143275000925 10.344139355884247 15.913077144710273
Zr 15.122646381760294 8.794784804657272 13.54770564172656
Zr 13.430583148290301 17.064148269943743 14.780686739321903
Zr 14.244803067677958 12.455630446489225 8.328556274101002
Zr 13.583421078142607 13.903050709897247 12.069376700638001
Zr 16.859490533420363 9.214565809154077 11.128536220649076
Zr 14.948129454550397 9.4445195465915 8.852416798047981
Zr 15.505361112257111 13.635006149656277 14.624575605397307
Zr 15.051749552634577 16.556136557376302 12.437132056002637
Zr 17.1880218539053 14.476251369880298 17.05175629696922
Zr 17.16865718834314 11.831050338382786 16.51670993042372
Zr 15.035540180873001 15.134560150290419 9.871560761122124
Zr 17.039132098160945 11.031532684500792 13.66513807350209
Zr 18.448833669321765 11.805365655918672 11.117507009937503
Zr 17.18258902832121 13.581443911497404 9.193059986840868
Zr 17.057647322639067 16.173307760283247 14.587644159362123
Zr 17.0665832999467 14.38645864258684 12.029688001708902
Zr 17.131137210350417 10.919268400218929 8.632603224359311
Zr 18.50240951702612 13.554198373706347 14.571885965280575
