53
Energy = -393.00074888 eV
Zr 19.613074189761598 15.750720931343293 14.828594926252089
Zr 19.87258856637249 15.098820905153227 12.101861844675847
Zr 20.00676173009516 12.871073473001232 14.195373341286295
Zr 18.259799797666474 13.940000847371174 16.665805043856835
Zr 17.80912367790586 17.071909242618 12.875481744289322
Zr 19.177405805115697 12.594302308114095 11.318295165138396
Zr 18.329149227870822 11.304739032113474 15.94336439152908
Zr 17.4105101329144 14.003947409856728 13.446499446295402
Zr 16.8741684229391 16.451305643789823 15.510689872345102
Zr 17.16908918405114 14.90983306062252 10.531278648061921
Zr 16.21235656531509 11.761152026070723 17.837897106026038
Zr 17.805927613948437 10.790353918093292 13.188936896099259
Zr 14.859717962338937 17.786583580217737 17.07200375371996
Zr 14.847880923206885 18.55959529514688 13.903935761616523
Zr 16.61772162556169 11.562796865335542 10.610129398204947
Zr 15.07995455678335 13.341120114722697 9.090556935494346
Zr 15.387527949479932 12.83778072982588 15.267649699632479
Zr 16.168540708102924 17.964093367413817 10.707453159264881
Zr 13.86637429437663 9.604245382049367 17.403960890822876
Zr 15.388180273721437 14.819833749434054 17.557156026746814
Zr 14.507253453360153 13.146384809760825 12.135798351007113
Zr 15.089051817849064 15.963112315900409 12.450637071852968
Zr 16.084403696899468 9.729941248205577 15.402458854435121
Zr 12.451115174548148 18.517555644309635 15.958385763898919
Zr 13.8212662636411 15.952160541111382 15.085891871963156
Zr 14.201838074531592 16.035576753963447 9.483477721885697
Zr 13.491727021126794 18.432021950445673 11.020976913044652
Zr 14.850606188255965 10.094869595908792 12.633562437433797
Zr 13.799431274833568 8.12029553252564 14.633682195150708
Zr 12.277794078470329 13.628691436225635 15.457549211187947
Zr 13.000165141120824 10.919068192218807 14.941143992950748
Zr 13.427352019776636 12.65017853584919 17.965899770916845
Zr 12.109839982307722 15.209106120594683 12.428510852617979
Zr 11.206452272095028 10.97163594749699 17.535472128482652
Zr 10.542900113627004 16.39322854254002 15.407030995557523
Zr 11.373664563602887 8.606655199408985 15.864719112255756
Zr 12.264644893598705 13.571734772572322 9.434391416812296
Zr 11.707493642339662 12.088203917489123 12.349207139406309
Zr 11.77837494245239 18.147162131462846 13.184818771877111
Zr 12.475837388421379 16.016234179755134 17.669296647145458
Zr 13.549290324922689 10.99888100778284 10.11681515953204
Zr 11.602648184408263 9.309058151761407 12.81708940511022
Zr 9.835715311855834 13.801847122844878 13.879867695847826
Zr 11.331833703273492 16.727038513697188 10.169599687067224
Zr 9.66350679254524 13.65694948156062 16.821337695789953
Zr 9.836136851173553 10.938775261734607 15.013652242411386
Zr 9.280121097962715 16.43713987069878 12.554551660689931
Zr 9.693700473164263 13.989523396701284 10.803552504855526
Zr 7.759180342664018 15.406260113263775 15.138194456236143
Zr 10.522192536098542 11.199082367965348 9.953084769241356
Zr 8.631663757689548 11.496691883475881 12.306816852171421
Zr 7.396070979867603 12.539823258599489 14.979926450028158
Zr 7.226649980295472 14.14693380270169 12.56464389820515
