53
Energy = -393.97871296 eV
Zr 12.008788953396726 12.819292842590198 18.525563316705792
Zr 12.996141819861172 7.828232583081379 15.170417456036057
Zr 10.061863106080521 8.677117208777926 15.874944194461632
Zr 12.137943914962174 10.551699386839486 16.471963273544127
Zr 9.523675975859568 12.249971906955286 17.331197440309083
Zr 14.599028229927933 12.498401679744925 17.046389925511416
Zr 14.623252321857237 10.713048369916155 14.709670809316938
Zr 13.29605232513144 15.282129202356787 17.592161073642504
Zr 16.762393009126264 12.935713298928059 14.540822076247524
Zr 10.525382364655387 6.800468556490584 13.810057047758969
Zr 10.39236461354769 15.100582355944821 17.579605156678603
Zr 16.20595755042216 14.929169168479191 16.930229106328845
Zr 12.756572784974697 6.952845440650207 12.266450637807802
Zr 11.589288209154882 9.630359740190737 13.4241552404358
Zr 14.655806415382111 9.045118364374227 12.456493738753794
Zr 11.640066066856807 13.363466660455948 15.589197697237923
Zr 9.420701599422607 11.412975158687821 14.649902090893097
Zr 8.568158874933255 8.951647704062822 13.362790955113734
Zr 8.758506216249067 14.497758510521926 15.158215896263973
Zr 16.860519911317535 16.09739735432638 14.443243616698496
Zr 17.509314166321424 10.326318080471465 12.450289423556267
Zr 18.25061356908713 13.20976084071943 11.950953268542348
Zr 14.596689450962304 17.225455291265913 15.978303567541841
Zr 14.34674533085641 14.575511333240321 14.605696814268919
Zr 12.765898821308811 12.402153217057318 13.040753057642759
Zr 10.167575828595707 7.957457726409005 11.057299513316392
Zr 15.47228272597854 12.076896680438118 11.808218541605793
Zr 11.82030988379502 16.270151797593694 14.789983057005392
Zr 9.450151492876996 11.007336962213506 11.434395981589537
Zr 15.929094158766969 15.037801221870005 12.009493110552441
Zr 14.276969077334115 17.368944827115364 13.133516209729638
Zr 7.276885385297575 12.528927554655649 13.034333026412138
Zr 12.622236394320577 10.809646303744364 10.605515709985431
Zr 17.723513856140595 11.479409085030941 9.732744404676982
Zr 15.57499056734499 9.56172004086681 9.788098111542737
Zr 9.971792521106122 13.837619853153079 12.600214437318087
Zr 12.703914389894914 8.085032234906485 9.6144792242126
Zr 13.392146233600165 10.086881770847333 7.764365283973429
Zr 12.64784077978845 15.093366671710932 11.904572844705726
Zr 9.502965476051925 16.936079068666157 13.202650633297946
Zr 13.977015749315308 13.460979112736561 9.777765109274732
Zr 10.521534510334558 10.073565930868977 8.703335936635815
Zr 7.380994176952058 15.340062206562889 12.470290115055235
Zr 16.92087117309605 14.233426045030855 9.29270473956864
Zr 7.903994159791761 13.386399684168055 10.359571244310247
Zr 14.517200187008267 16.49309926344173 9.97555149157593
Zr 11.677323650557396 17.63838681524193 11.317318711334147
Zr 15.563668644682835 11.955803735787761 7.764841019996571
Zr 10.7010422613067 13.136783197346768 9.589562552513359
Zr 9.373296984827729 16.002609717099784 10.398859466874072
Zr 12.549204649466992 12.797282746135268 7.27007299086711
Zr 14.690031496559829 14.833484481954416 7.369553212603777
Zr 12.081157932128022 15.59085625467219 8.82395294672318
