50
Energy = -370.69976773 eV
Zr 7.626904671405949 8.96538867704405 12.404779467726724
Zr 9.084928051343502 9.945984574781663 10.021862235867687
Zr 10.250186091285398 7.422822043618008 11.827689532830487
Zr 8.700777106311557 13.100779122577626 9.044595185719308
Zr 7.204344825494104 14.76805095377302 10.92262275150782
Zr 10.773644471731691 11.305567290402958 7.847740751743983
Zr 7.895544783093495 12.012012267784208 11.991501318102937
Zr 12.010563725185913 9.174970562608461 9.880547341457273
Zr 9.115642547989674 8.016291300422187 14.592778443371632
Zr 13.289138378417306 6.946413007373246 11.799748252975535
Zr 7.98183724057092 10.677118280893215 14.782663728820602
Zr 9.387543783767214 16.040570625743026 9.504445012662144
Zr 10.240616900259994 10.246743229850448 12.916516791953715
Zr 11.557752209402045 14.238114348223338 8.60831979797156
Zr 11.780151731162588 7.414984159149286 14.442546995452714
Zr 7.666135489935362 14.571698674622926 13.728657850973097
Zr 8.672297319422096 16.927247748680212 12.20450355523073
Zr 11.056381701046783 12.01031588433335 10.624600856225783
Zr 10.050752389356997 14.318064462262944 11.913039940324992
Zr 13.508444623164081 11.810603312581286 8.47771523646285
Zr 15.034061635167644 9.065596628617302 10.530707682430034
Zr 13.021717399630056 9.446178954030135 12.753034366896541
Zr 9.9719553728037 12.789873470460446 14.454147952104748
Zr 13.823130492034013 11.606884074647168 11.305572436074021
Zr 11.00533567317021 10.114920399691526 15.943812580520573
Zr 12.9798724188788 11.866867735110818 14.44712123776905
Zr 14.545942124475623 14.497215391449704 7.969200291577563
Zr 15.959655570138006 8.812930706421684 13.494189770868212
Zr 10.249167684161955 15.865808856370457 14.64683359806051
Zr 13.897059963764343 9.005192725638212 15.760092162178568
Zr 13.392683025195808 16.842850497337196 9.126209620665309
Zr 12.90095388517433 14.848854075114376 13.768550193793661
Zr 11.588119135425545 16.811682404329385 11.528759192365438
Zr 12.491463685538294 17.836035333041814 14.156230554001512
Zr 13.508393345631843 11.358992736681916 17.348714409164845
Zr 17.47362837161798 10.351561096166765 11.315861421611245
Zr 13.604269284187486 14.466219247932738 10.830438744873646
Zr 11.703524010662669 13.519203342644019 16.601993228332905
Zr 16.171357898476472 12.84770197944129 10.065143794227588
Zr 15.73871734689155 11.891644736691292 13.29865847915309
Zr 16.13668603819385 10.9621451587022 16.100608944822152
Zr 12.801678423480919 16.16924938677781 16.463485203133207
Zr 18.289168053831997 10.6732735729551 14.056162096337
Zr 15.125530655723388 16.692980473712502 14.916929362730812
Zr 16.123859552447566 15.843183600943767 10.011886347766163
Zr 14.478064418338134 17.331088737061613 11.976450164113622
Zr 14.777165813740915 13.820128348055956 15.989324044495675
Zr 18.346020697383416 12.998068424290723 12.216612984241644
Zr 15.946438245147707 14.781477746390834 12.842811251947879
Zr 17.631573692653777 13.403443899645334 15.005583081839392
