54
Energy = -397.94701184 eV
Zr 7.8032566732122675 14.710803834109171 14.747836882003421
Zr 7.906548435506508 11.872776700296283 15.030903175724239
Zr 8.937257691950016 9.049442155945506 14.975040519439084
Zr 9.3229653170753 13.968549500866116 17.090349318099822
Zr 8.002623537033378 10.223332395303963 12.490559389672539
Zr 8.94519447532576 16.1522846297281 12.793057915854932
Zr 10.026402831851003 16.6518170335762 15.387700300677034
Zr 10.352108439187765 10.978884234506467 16.838062524413345
Zr 8.494864140489755 13.193182779184179 12.088596364181095
Zr 9.04347456089373 15.778750246352727 10.061106066913364
Zr 13.584847465671745 9.240048548312 13.053793530018853
Zr 10.544637045454017 8.504213571376537 12.367935061470849
Zr 10.71872476309192 13.856234934894015 14.520121036735999
Zr 11.816990108849915 12.99595567651195 18.178520262512396
Zr 11.847142992268653 8.90737674066997 15.411447673408885
Zr 12.12646094741413 15.540538722511204 16.792067918041067
Zr 9.970361131731499 10.953385770168694 10.442493578098622
Zr 10.473412766038392 11.141901244152217 13.691250726059966
Zr 13.391019865499205 10.637801045033436 17.802778630048714
Zr 9.673754945810904 13.43115335836971 8.94643847077897
Zr 13.107795228203585 11.876611911304373 15.28734204939508
Zr 12.66846314533199 16.093996010818042 13.612677034755812
Zr 12.93440977236913 18.26469502307771 15.54273368880312
Zr 12.814636747513978 11.646019475064804 11.97650910908702
Zr 13.300372207143296 6.906598829477168 11.948708633058958
Zr 11.13516172609089 17.50866083362974 11.40475730456486
Zr 11.273214893609362 14.251341277837735 11.35282063011293
Zr 13.36247939101128 18.876161414257798 12.654641851532467
Zr 12.383303433887479 9.183675364875135 10.120631745272172
Zr 12.368751883446965 12.399084886655972 9.139427451661554
Zr 14.452846391755381 13.837412416564156 17.49589876232022
Zr 15.006158187210778 9.38883467742057 15.542400249954905
Zr 15.13228948661011 8.635476678087821 10.437674976557897
Zr 14.277910645050968 16.63783507103902 11.016700769536179
Zr 14.78582502742832 14.114342600259045 14.448668665027688
Zr 11.938997191175059 15.753371765580802 8.91258970403193
Zr 15.4814958764673 17.458696678466488 14.054720517117929
Zr 14.483045167417766 13.80778446584771 11.330915024873315
Zr 12.84301321125509 18.654200158275316 9.398252791670698
Zr 16.68261152720112 8.264466887710865 13.02857949350622
Zr 14.801333933250023 16.633770713463257 16.72434682833971
Zr 16.183888201417055 12.051803951908393 16.299412170295163
Zr 15.94371241820417 11.27733815349077 13.027080862084938
Zr 15.284865333510893 11.638541241665871 9.75858219296862
Zr 17.038027981416786 15.252886220812703 15.720064934606064
Zr 17.791373911740518 10.05829680567637 15.223489625520529
Zr 16.922786226134747 15.108045357367327 12.63916959617313
Zr 14.375385167363621 14.22414587082152 8.231291302820088
Zr 17.486237250707674 9.909272712524993 10.556158839305018
Zr 16.603535033012925 15.088199111143135 9.595928774945751
Zr 18.24972596966351 12.910163339924031 14.249190136839621
Zr 14.604932599335642 17.066555273603942 8.127597156133115
Zr 17.968101977387782 12.738007024676355 11.23899667890844
Zr 18.93866252335239 10.37911598830523 12.77459857021624
