52
Energy = -386.3147672 eV
Zr 16.99280250357684 8.602817051855986 14.190050852661281
Zr 15.5376622763065 8.370944229531043 11.749487465090459
Zr 18.165809654792163 9.897253145913101 11.72904864628902
Zr 15.684249750367785 10.299202579325595 9.770077915940464
Zr 18.385192671038837 10.891440851753465 14.68025398412466
Zr 14.109265200200422 8.725918439106431 14.231895734632017
Zr 12.969468208228667 9.95571137627943 11.57180054020663
Zr 11.7845075471615 9.388718501609285 16.585091258950175
Zr 15.663014593786931 10.752918104527893 15.997056812266838
Zr 15.921437221948686 11.27161426169004 12.94744380720745
Zr 12.993207788385092 11.426733212294899 17.82875834013898
Zr 17.23450246751937 12.49753160500933 10.166529847728116
Zr 18.729771113278233 12.731152236587779 12.644296862383793
Zr 12.697874977124135 10.461934357218043 8.431974442615935
Zr 10.843889593268765 9.311944116627501 13.831609597770415
Zr 14.280998616789221 12.70117418917772 11.14728167604993
Zr 14.543076868691434 12.837061439216047 8.216080999781498
Zr 10.030319346609614 11.676727243207631 18.253681838584995
Zr 17.119138535026234 13.493634675248309 15.10484975459444
Zr 13.110013714145516 11.394780872115374 14.490310414727633
Zr 10.603258386443276 12.028607437311758 12.470204204704022
Zr 14.836884128383337 13.329739341410278 17.38469105834271
Zr 10.346435579147727 9.781808150439756 10.375487514232791
Zr 8.887634504972633 9.570558468364359 16.228983289401157
Zr 14.497683786245217 14.188372096077613 14.288093901761634
Zr 16.601754804453435 14.6123070095965 12.199737429526806
Zr 10.46401421069184 11.884529377485736 15.42886499887328
Zr 14.279266524372634 15.96640291354816 16.993015326036456
Zr 15.75169746479968 15.431832575008182 9.39365056685864
Zr 11.324302707788842 12.578150743286615 9.834601942521243
Zr 16.0746210783011 16.54890242900966 14.5930346197181
Zr 11.792190103816518 13.283974055534642 6.960638668814776
Zr 12.091216154553509 14.24766600815822 15.824867430405906
Zr 12.01724385326374 14.103303250952983 18.654570567259444
Zr 9.825879327581687 11.1103007122305 7.831401120803286
Zr 7.703959194763863 12.176742431685513 16.377010376708043
Zr 8.182705480094679 10.976339330772513 13.700035165818576
Zr 12.906762655695701 14.903932532456782 10.083104561820052
Zr 11.786843029094653 14.682491969851995 12.856389866087655
Zr 14.454516966002995 16.662149554028474 11.961917224068285
Zr 13.700168539552575 15.477011997286835 7.24985807774384
Zr 9.269302992565207 14.536436690519805 17.133052307582016
Zr 8.433725729993387 12.066065577623002 10.391098816172875
Zr 12.934803982350523 16.971052182246417 14.528160119992423
Zr 11.422941141244056 16.686645170754176 17.20114832652459
Zr 8.50340288392571 13.91094996235297 14.135751558814214
Zr 9.112262213498717 13.835938529576774 8.191267580506793
Zr 9.508882838247237 14.978739465325587 10.908253541707458
Zr 13.54010508297738 17.525125752357773 9.21557529450458
Zr 10.00839887131773 16.23767153780858 14.668563393335447
Zr 11.438985800516535 17.199774844673165 11.310982680288069
Zr 10.911168257258414 16.070474236271895 8.277456280525168
