55
Energy = -409.79187489 eV
Zr 8.300279569774519 11.464714890134392 10.514143522925552
Zr 18.643679496468327 14.290405471998444 13.106068391983923
Zr 15.213012446258848 10.25198693854947 15.082219544605111
Zr 11.00003570078496 7.765487559353548 12.463438641090477
Zr 16.161368643666826 14.07694895937628 14.621616337238338
Zr 11.499922386016499 10.990083594796735 17.71332875219243
Zr 13.475040216640837 13.003155239465467 10.234934817743541
Zr 13.134977919475967 15.821165950506566 17.394149561864857
Zr 15.699226174798481 9.33029767553211 12.334865130563825
Zr 10.795839119014609 12.375694056752089 11.817256063694492
Zr 10.56398540336001 12.158844430218934 8.720081155474826
Zr 12.128526391456838 10.740736932877406 14.670573082745259
Zr 8.45524362938027 14.324633973545797 15.645338599540375
Zr 8.079760644386592 12.998929848113928 13.032664480051753
Zr 9.222234422534909 11.542138645080971 15.619494002805295
Zr 12.86881947069369 17.525624041444154 10.364997467421636
Zr 10.010412668442623 17.021565827655564 10.526666994336129
Zr 17.397484355362238 15.251718301451858 10.315406043710803
Zr 11.290956592982287 17.960676186626788 13.059118316662811
Zr 13.515223736544915 7.883028654841246 13.871236407536248
Zr 14.987653925307434 15.14836029659216 11.843530510304731
Zr 13.09893954396767 8.616425414276117 16.65575342375239
Zr 10.670562769304553 8.417791895759288 15.238379217553998
Zr 13.425527622522944 15.614274877472091 14.483652103228328
Zr 17.805550876514992 11.529730345687526 14.224183593924417
Zr 16.65632993189017 12.359749935252692 11.607642349472687
Zr 10.536292076582177 16.462413592183342 15.612656089190022
Zr 13.76944483648134 12.91411799581993 16.261288663250532
Zr 13.98862007511278 12.514822849629404 13.15523682476006
Zr 14.33872076993298 10.554237817405042 18.132762116525925
Zr 10.824740888142014 13.880827065281254 17.463985662642123
Zr 11.061470038844814 13.617723660062808 14.589388040893281
Zr 18.773917460757147 13.531157864810254 16.041610077583222
Zr 17.053988476961695 16.974202512374 13.043041786390196
Zr 15.842758899783496 17.634916698032992 10.435969515976867
Zr 16.088931796913265 14.777039850132626 17.481996476144023
Zr 15.584974852011937 17.28142259467081 15.631751882613155
Zr 14.288133299846534 18.245424846958944 12.922463533620826
Zr 11.494213804883016 15.092268231111113 8.831187883341194
Zr 12.784869841006048 10.226096431895428 11.769772350700196
Zr 12.85160567836906 18.241510899874214 15.586857330326378
Zr 12.653256097754982 10.12878279900251 8.659448548286841
Zr 9.287468774610637 10.074240572231396 12.997107414306843
Zr 16.6626441678678 11.92291558673504 16.952072240456964
Zr 15.218206603126989 10.422416738001397 9.735242269522644
Zr 14.594566128983615 15.567462613903713 8.743902187283323
Zr 13.314501706012754 13.141142693003928 18.991963841253337
Zr 13.454670731896313 12.88073020313218 7.5917602342541635
Zr 11.773661973443872 15.171003329785911 11.957699591777383
Zr 18.231940952111493 16.09921074146456 15.530509926802425
Zr 16.19308970121642 13.112602565416271 8.802692890546522
Zr 8.94071519788565 15.827957705437933 13.085432422786702
Zr 10.24950359476718 9.436635926475002 10.181055419873958
Zr 13.510330725570553 7.8954939471103005 10.738613577404953
Zr 8.961791303882634 14.336675837006943 10.34141680137261
