51
Energy = -377.62564529 eV
Zr 18.108278884309126 14.206061143107028 9.534632571682605
Zr 18.141744022612325 14.18138518210994 12.267872343709074
Zr 16.856875867342843 16.630656227836543 10.825988544701232
Zr 17.610166730175887 10.025805740836734 12.976841394256649
Zr 17.045549046265368 11.67482540355093 10.850771705554973
Zr 15.702682294647216 8.855480789525215 10.650888506569888
Zr 16.015939081538313 15.513761855940652 8.180752613957104
Zr 16.089883300056982 15.693631725674175 13.783283309531981
Zr 16.08583734440168 12.582194658684601 8.21498355327787
Zr 15.31907604642592 14.194503322171864 10.934475078027566
Zr 16.161211179239828 12.646141655065096 13.847659006824323
Zr 16.00718529552482 7.743677399466422 13.38165877287859
Zr 16.103134647203714 10.002900774679487 15.451902803912045
Zr 14.21963306824717 17.08610627614721 12.334050953640386
Zr 12.413183249143824 9.43879489069675 10.191245582268486
Zr 13.811013029222346 16.597464599462747 9.655827117431695
Zr 13.393166061315178 11.516452562332523 15.422589378682549
Zr 14.580431350711427 10.353607453650506 12.878870984605312
Zr 14.056262650795237 11.611592349729523 10.065570992357259
Zr 14.776489966948441 14.115339872468613 16.140102856354847
Zr 13.56056659979955 13.971170436208986 8.243134928099417
Zr 13.336533193056479 7.671108464824287 12.29020077931835
Zr 13.561255948632525 14.122047689186381 13.406471250318106
Zr 12.149575102145356 11.386644129241398 7.372518448857288
Zr 13.83252832781886 8.264154505402862 15.12449300075107
Zr 11.816811209200138 11.632453545243067 12.565186703447141
Zr 13.14352855134355 16.684014532619052 15.072574573138894
Zr 10.861056173059415 12.119647986745404 9.833072043023062
Zr 10.923419057652785 14.354371431706031 7.727444463871756
Zr 12.123224889257571 14.793912065906172 16.9187541441483
Zr 11.345310777891136 9.217260709292413 14.141006871456902
Zr 11.691380960213525 9.608672072827478 17.16303019950704
Zr 11.396262803219216 17.144924735213355 12.813122935277578
Zr 9.928320773214088 9.60971368074072 8.535051982597384
Zr 9.673294246588833 9.727154137532589 11.507438103930186
Zr 11.654884740227002 14.761261093175001 10.909095979519337
Zr 11.983231991660507 12.310162297507262 18.152230494929597
Zr 10.889537885096104 14.279365858882798 14.089300566917284
Zr 10.348018756562466 11.794836712840773 15.554797114191123
Zr 9.209199183950007 12.116323254249838 7.344741629708763
Zr 8.92103402620183 12.95655432978005 12.041677782337844
Zr 9.979261568732069 16.46320953404721 15.466096757002763
Zr 7.979705163534367 11.0243640671424 13.799785049151998
Zr 8.684018061837701 14.19516449028405 9.419962421035384
Zr 8.897496114426819 9.282158814048097 16.076629873280456
Zr 7.8622685624069515 11.311171187234063 9.761403659707888
Zr 8.968603344924762 15.84631725101557 12.544175198238834
Zr 9.439034053826564 11.05240078712442 18.384529740397273
Zr 9.412104130870148 13.987882613897714 17.437986400184425
Zr 7.891089674048171 14.06601863236632 14.778062202235027
Zr 7.510107616989141 11.833024713695632 16.53603138038256
