52
Energy = -384.46289 eV
Zr 12.1194390358309 18.68503408784478 12.434297134473928
Zr 10.549027524906334 16.547488896342195 10.780878164235578
Zr 13.541708309540944 16.5041800324567 10.993018194697662
Zr 12.758931775512451 14.530768725254962 8.763330673125486
Zr 7.3061921372882725 13.28461476310329 11.300983080072697
Zr 7.7219157241001914 16.13830989908451 12.320068547415904
Zr 9.580651691673495 17.925610100080064 13.23210512715446
Zr 11.437071900474743 17.903166111283305 15.484782500209146
Zr 9.762282623442553 13.443428052348686 9.80979287616557
Zr 14.515443414552626 17.710561536918586 13.99777975635355
Zr 15.701327443149008 15.321091943898775 9.099666931361432
Zr 12.063353903177784 15.977310095394476 13.610112659545448
Zr 6.904036875180524 14.033986014988178 14.012985111538294
Zr 14.711119071578086 12.718808269006828 7.9321970162709565
Zr 12.122599618041452 13.889936263743843 11.401352180040469
Zr 9.724838458224774 14.193023627661479 12.977011242023496
Zr 16.121600152158695 17.128046546012428 11.505513495621322
Zr 7.6372962432295335 11.25349574850012 13.427134513543171
Zr 12.522248928132159 11.420389294897074 9.513516210893123
Zr 13.765542973858214 16.127797072312394 16.23918120975328
Zr 8.8238599779067 15.992749499808559 15.247686961545542
Zr 11.213477462796966 14.752072088593644 16.60313632721085
Zr 8.166920966438338 10.73382304031884 10.34078082878094
Zr 14.980970076439181 14.791975241736756 13.496014109305891
Zr 10.39447453044097 11.420877296173524 12.027592217851799
Zr 17.739513269093724 14.684792595753322 11.348984444066184
Zr 14.858353505256218 13.056862728314682 10.969562651440869
Zr 8.873323248028179 8.864357091392575 12.31732057380413
Zr 12.284783485033174 12.819741987325976 14.324402239625527
Zr 8.997801381154016 12.826931425662298 15.717975237550421
Zr 17.246780990082787 12.856013293295414 9.086826779570345
Zr 10.858797049787672 9.036680929947112 10.245915158129218
Zr 16.520394635366134 15.195976039046851 16.06347147796165
Zr 13.367199398350733 10.538967719799864 12.277988859765454
Zr 10.0625641379553 10.161582771424742 14.90156003765808
Zr 15.541413637677199 10.443687736036448 9.636713147909632
Zr 14.049412851682774 13.288292039808322 16.63133309200435
Zr 17.50089241994926 16.479340356484286 13.747889453730796
Zr 18.091997535999006 13.592452164873992 14.092909119818524
Zr 11.423754045639116 11.79135621679548 17.02388329285282
Zr 15.440918590336555 11.835708092204747 14.23597985080282
Zr 11.547457526446562 8.109778170149701 12.930198044661871
Zr 17.664029434905295 11.705321227844536 11.665466707213186
Zr 13.701558190562967 8.181223000669247 10.697291343387306
Zr 17.040686672654584 12.357601418054951 16.752397875110734
Zr 13.039645576281265 9.994531977475093 15.306213458457332
Zr 16.287772085828966 9.179284416836612 12.265977372228486
Zr 14.908647733361871 10.61119895019713 17.608806176412507
Zr 18.159495873440815 10.562709189876097 14.495776156721494
Zr 14.195913309764316 7.734739968528406 13.46537317128287
Zr 15.93004979895975 9.047807839263632 15.386517277653182
Zr 17.707474710146364 9.750921115779848 17.496260480676874
