51
Energy = -378.24476698 eV
Zr 7.794025012272999 9.592754345491482 15.884182785133769
Zr 6.33376208291824 11.23421781380453 14.199784186115286
Zr 7.535789754032576 12.551884047536184 16.683887097585313
Zr 8.431346393493023 9.358476769846257 13.048759548091805
Zr 9.77513945018345 10.61786170948692 17.4370401618508
Zr 7.595754686207391 11.979522519824554 11.790094888114716
Zr 10.558277154645127 8.844326607371196 15.177386536804402
Zr 7.185259080782586 14.028974907404399 13.823694674656137
Zr 10.198265297312593 10.932755175299958 11.33675243148192
Zr 9.252865207118422 11.98347103714173 14.498490805321486
Zr 12.12233214698717 8.76097105449468 12.147342719226662
Zr 10.194897979101107 16.92015539189375 10.556844025262576
Zr 9.319267005406754 15.015354183071944 15.431638531009567
Zr 9.858365339849067 14.024706882542697 12.196830458550883
Zr 10.658565975398812 13.192841794217438 17.229917154980246
Zr 12.69700564952828 10.817615800416974 16.819068754656513
Zr 12.524316732943472 12.662076825012278 11.579919024840303
Zr 11.913666281666043 11.17969289103571 14.036445823836042
Zr 10.609960287149502 12.95742467496785 9.3337434628057
Zr 13.819460083565845 8.886855863429329 14.880870144854708
Zr 9.305773824285616 16.944658636159726 13.30400665929552
Zr 14.214353423527236 8.103244697546495 9.982639734096107
Zr 14.86172638018288 7.418862091488522 12.542355382511568
Zr 12.481156137810663 10.310557163537775 9.373009402254684
Zr 12.058796951224496 14.053673537618478 14.906293941697898
Zr 11.353505736304403 18.788371375487703 12.64968628699399
Zr 15.943189720268965 10.741725528333031 16.463445911657207
Zr 16.63562819016243 8.989581075102985 14.005061768024007
Zr 12.12035334334187 15.968739383189247 12.543866073345715
Zr 13.449882250347319 12.649234553355322 7.929566556308794
Zr 11.664237885960267 17.28878051251177 15.210923865602112
Zr 15.495037242019853 10.363991244763799 8.62991607287587
Zr 12.508003520674219 15.107852513760823 9.631879852654256
Zr 17.010447224948436 8.917910144344582 10.940595509793306
Zr 14.265196951464977 13.335398923465105 16.740718531296242
Zr 14.740964540114312 10.383902650621868 11.79039007370914
Zr 14.801466797382485 11.723177561520757 14.274375399429038
Zr 15.20480777548263 13.158319767235568 10.363770766452692
Zr 12.993161171123024 17.93872773608393 10.45332229047031
Zr 14.559551722661336 14.397966063754115 13.33237446697369
Zr 14.143145556890344 17.99988369976804 13.422189222863357
Zr 17.588336233424243 11.348795146695725 13.067327231419494
Zr 16.4216437639886 12.836161806716055 7.624665940070153
Zr 15.297588325554646 16.217108094461306 11.027647370056775
Zr 14.97083876443703 15.274109734327759 8.14476500019092
Zr 14.505414767200715 16.16071219820908 15.77675498393162
Zr 17.863733562863064 11.831287126245673 10.04140914225578
Zr 16.75277726251149 13.927134424619744 15.418080853549167
Zr 17.340371782946868 14.054874677800594 12.311088221183086
Zr 17.531194464859002 14.798026162859392 9.426230105596588
Zr 16.62391980819637 16.46125737160369 13.814446592724618
