54
Energy = -396.30870448 eV
Zr 19.376578194733455 13.976731735480948 14.376610166781521
Zr 17.907079651178258 16.52807228961518 14.646346511363111
Zr 15.851481527411572 19.137193867040452 14.088892624407016
Zr 19.034758830223282 15.494322698323852 12.019908375784153
Zr 17.24868462628694 14.075548778903634 16.405420179196096
Zr 15.558798644778655 13.692027854206296 18.835448852576956
Zr 15.439288145990957 16.259054751949098 17.410620058134608
Zr 18.662802948729485 12.536286680140368 11.893972290162903
Zr 17.783792305882063 11.587478250715764 14.78768256184016
Zr 16.575112026541493 17.0403204989214 11.795477027817546
Zr 16.610251132978473 14.159938159227021 13.19675217730872
Zr 15.925452453419627 11.380384825331726 17.25236234541078
Zr 14.947564653412995 16.21458839910613 14.522614855647003
Zr 13.931768061899962 18.70988367950432 15.92181740476343
Zr 13.07370026842011 15.051646443743449 18.7879378439621
Zr 17.03235798936072 10.03932128046222 12.463029014222661
Zr 13.928661043892134 17.903626789579214 12.282412791529472
Zr 16.97219408201491 14.593987096209425 10.142165581174392
Zr 14.167943202213188 13.708777775161131 16.217895106331927
Zr 15.788705489514358 9.142969575278936 14.909455565701574
Zr 12.333720929051594 16.248590271728574 16.113462801721216
Zr 13.041233354452455 12.07771004633598 18.465327951166586
Zr 15.553524354398995 12.054456432282333 10.827875734855446
Zr 14.684678888104568 11.836007701960058 13.831799995195766
Zr 14.424365067873556 16.800627335646645 9.28354339628409
Zr 15.863772431938914 7.185865504721824 12.882893673836469
Zr 12.779685647091712 20.179022897551683 13.846935404089391
Zr 14.30868110912214 9.365781174821617 11.807566173933628
Zr 11.215740312990656 19.179312100504138 16.238997161571273
Zr 14.156976136199804 14.944883884799367 11.269710174619169
Zr 11.252090204586686 17.498398098041452 13.63675264314359
Zr 9.467639809159769 17.205771113559923 16.122296286672555
Zr 10.707873030778439 14.027883706414931 17.4062221235382
Zr 12.025851786163459 10.160775056681349 13.336103110006476
Zr 12.443785096211654 14.547658527132212 13.446989528670493
Zr 13.34604639733848 7.642349544512529 13.994347865329978
Zr 14.279522603442953 13.386423051227462 8.666052301100311
Zr 11.560130225221894 12.195262829348584 15.210300973353874
Zr 11.835219375822614 17.24974726478491 10.59768634072395
Zr 13.462671815688966 10.086507325904483 16.278455298095913
Zr 12.413986426055665 12.43577534034217 11.111750478219603
Zr 8.590475689881673 12.672181034322621 15.717471951962372
Zr 10.195139639110698 10.953328056520718 17.44460016354232
Zr 9.780415011124422 14.938527619700483 14.498427676893026
Zr 11.087579047178338 8.752056456168681 15.87773556784989
Zr 13.142509206198799 10.460301664943742 9.052199101481586
Zr 10.119637997478774 15.12542155981089 11.38920211324066
Zr 11.840578498264064 14.899009593070451 8.99349312034129
Zr 9.705693544721957 12.397986184655574 12.715725057862839
Zr 11.823154689427351 12.424819933258247 7.385666815007678
Zr 10.480717216634067 9.908435957300888 10.995347960929424
Zr 9.21064658895958 10.181681990731114 14.599238847453549
Zr 9.834967239705763 12.619607084313525 9.572598141132213
Zr 10.415255022163286 10.153108659377473 8.253076132671689
