5
Energy = -25.23670253 eV
Zr 12.448067373687605 10.2424210810884 11.210057806342329
Zr 11.264437994129953 12.745521610679281 10.936889475065797
Zr 11.01551737206554 11.383345648974522 13.263140411491214
Zr 13.984404871987627 8.561404351796204 10.13731108747357
Zr 9.941190690206492 13.789104405482027 12.9965949649
