54
Energy = -397.55400691 eV
Zr 19.78263411243818 15.306031657733303 11.748438978625556
Zr 19.891866069834297 15.984215737539003 14.522143120552103
Zr 20.452168368959757 13.323572136210169 13.595711311662352
Zr 17.280313683645414 15.241274705614549 10.487777245999414
Zr 19.065426087356588 13.62024650751461 16.115405697989015
Zr 17.37923202687356 16.561127065494517 15.715504783092781
Zr 17.792431319000098 17.269467271905132 12.838803470453042
Zr 18.621669975038465 12.612268042123466 11.280778784228664
Zr 16.445381162198185 14.456602555839215 17.331434538062382
Zr 18.58185886006403 11.311552025478376 14.130304071875456
Zr 15.403483670919494 17.41452810747469 10.987320854453616
Zr 17.514503091680115 14.236496329423566 13.552407260167252
Zr 15.387845872930566 18.71195221533114 14.742924611202241
Zr 17.218881257533447 11.41608542357565 16.849833363615875
Zr 14.951516096835945 17.517858932684618 17.409364725753054
Zr 13.350769710621373 18.555420749512898 12.69545510075345
Zr 14.54482213706899 13.854398785436265 11.820122282153159
Zr 14.214637862290935 15.290760503319666 19.20587973705014
Zr 15.887461488317507 12.702527718138061 9.453436402301493
Zr 14.792897005310632 15.27684862234156 9.056412027387896
Zr 13.585340869233828 14.940538287906495 16.29687608674049
Zr 15.276491778220594 12.506959401893099 14.86542935707616
Zr 13.116324124267328 19.589430490530738 16.372955011923572
Zr 14.996782732254783 16.074240598820126 13.79668698442832
Zr 16.147752491626125 11.175534455959921 12.202739946999918
Zr 14.528206038130756 12.506289142547743 17.967848853472052
Zr 16.292104729962485 9.520131856401115 14.60736212897252
Zr 12.076109769373573 16.846718086592794 18.061121171417426
Zr 14.955096070266633 8.44813006633642 12.021635069587
Zr 13.83562231194807 10.591336497841366 10.36359634583309
Zr 12.245645953341267 17.37030214773909 15.192778652727824
Zr 14.322371749188216 10.059388580619197 16.692154254671433
Zr 12.674096633243678 13.391106727486678 9.607682835838942
Zr 12.17685534606038 12.283391058114994 15.633453279529213
Zr 12.029328170002449 15.112228969271007 13.460038733852075
Zr 12.692035191731149 16.45345263664345 10.646331825422855
Zr 10.641298533821773 17.75208565631244 12.451420928345021
Zr 11.685905031382877 12.032852042270658 12.175715449817854
Zr 13.466610218966153 10.114927446771452 13.821400875600382
Zr 11.688273272254548 13.7157408745255 18.4134310875756
Zr 10.41977774314886 14.797023805069411 16.222958957801037
Zr 12.069646237482893 10.845882634631241 18.48662864194484
Zr 11.845621488641026 8.887776721752864 11.823153870151634
Zr 11.089966710483464 10.671075193969006 9.522718947308082
Zr 11.489692594612219 9.277794596004474 16.281927851075018
Zr 10.139384462589568 14.841738910181403 11.255290540400892
Zr 8.144837479317728 17.005192253299203 11.105721140101862
Zr 8.87698641121322 16.125086216419664 13.765968505392935
Zr 9.703732701082473 11.703754706271987 16.930014195564613
Zr 9.408957046485687 13.262530701390011 13.879257013009408
Zr 10.170168609466945 10.328201109790932 14.124625289163026
Zr 9.24251343579055 9.723277952212065 11.427550757000166
Zr 8.789127178650613 12.248740721998553 10.972984476675459
Zr 7.289512228887084 14.531235902196594 11.975833417892648
