53
Energy = -393.38588939 eV
Zr 8.485430273130028 15.26825140080935 15.904402800797238
Zr 7.052231842964962 12.703065414994144 15.66025538701506
Zr 8.605739743143657 16.940578231017493 13.474687592604594
Zr 7.104354951967117 14.334046317570532 13.254644538886957
Zr 10.67303859395289 17.429065433128393 15.460765638977277
Zr 9.642505846657649 12.679663507655466 16.971305491933585
Zr 11.155080998354338 15.315385845578426 17.579255058454436
Zr 6.851524881698983 11.207990736382513 13.308692833722427
Zr 7.871321825600766 12.38311005933375 11.020206511144911
Zr 9.47876774867524 12.476504994657839 13.756536668249971
Zr 12.096501735161745 12.341836322808815 18.324843297645536
Zr 9.27176042856009 15.10598805096102 11.189734164529204
Zr 10.86019694401375 15.08387205008349 13.878398275518006
Zr 11.311582091437991 17.461121887253295 12.231601446474674
Zr 8.5985288179296 10.201314251226982 15.442802554259499
Zr 10.865955625246373 17.03521247051831 9.224698850073493
Zr 13.456818804810332 16.497552898206145 15.978249089609037
Zr 12.540377442493805 13.523649338133684 15.664444774717476
Zr 11.612204051385882 10.651957879406549 15.558262639290822
Zr 14.044621664296876 14.483528918528629 17.965519924457073
Zr 10.629918871982976 12.159327514336207 10.578581224708728
Zr 10.265240167388566 14.34175387691844 8.48352207134651
Zr 9.518328113887048 9.803438319468334 12.455743949112277
Zr 11.35670600760975 7.915814160947982 14.145878099343397
Zr 13.645283455300932 17.43928177415697 10.263892948042573
Zr 12.238464185924911 14.97406952939123 10.753208821221198
Zr 12.484967806863489 12.84063249817771 12.874374854255722
Zr 13.897363176156457 15.755737881162313 13.015399661204995
Zr 15.424107947258229 14.23993005599333 15.239362504379711
Zr 13.122306576526725 15.49128467313046 7.9154279350703485
Zr 14.574689439388365 11.26770642406195 14.17779937966884
Zr 12.451493818318658 9.990720537584272 12.42517894537748
Zr 13.819984498946182 8.763922338485564 15.537054103993883
Zr 14.585855706623358 11.701893362616852 16.944653087716
Zr 15.43368422174474 13.16117353162703 12.115851633017352
Zr 15.494983417469214 15.050022036501897 9.94940995442083
Zr 13.522143893316732 12.530948551205025 9.831166884181032
Zr 12.10224113821959 12.533940547805697 7.388654332401547
Zr 11.520765264561355 7.522427115743814 11.302145412230022
Zr 16.973910956110142 15.433396848199546 12.908219934254966
Zr 11.928101558241034 9.798080431168808 9.321975706528734
Zr 14.133151919920376 7.352044018512574 12.934738281886226
Zr 14.921229422245322 13.30920233268335 7.337241627295128
Zr 15.038307001145595 10.20064941329557 11.204880922329284
Zr 17.55775978178193 12.531569505505203 14.007322637749592
Zr 16.463844243251362 9.03239509605092 14.090605344937105
Zr 14.16054936372268 7.733309234357577 9.870088821407368
Zr 18.15057998645728 13.552238024681834 11.18894644380071
Zr 14.446746360167761 10.332504831232283 8.05002152597628
Zr 16.77491162415564 12.076366784191293 9.15203793522617
Zr 16.684758407598196 7.755040452744998 11.594658788637219
Zr 17.909790979277165 10.546881791114442 11.766279345133052
Zr 16.889335702884868 9.147959102664878 9.187359441599243
