5
Energy = -26.38727124 eV
Zr 8.766793602286176 7.518056200818234 7.511885896332068
Zr 10.564999630773826 8.381751854841163 9.334230938756795
Zr 7.180265081255522 9.236889156848797 7.966708979111707
Zr 10.860149904252056 10.183006643051456 11.116540420592063
Zr 8.641015062630604 10.45358175861194 9.882589888284025
