5
Energy = -29.45029812 eV
Zr 7.93373703781695 9.246424710587924 8.956347454308737
Zr 11.850846106534572 10.56552897052448 10.756284243263865
Zr 9.154428682285713 11.281833522911901 10.476971485905839
Zr 10.543166612586003 9.875721846037798 8.465172326102335
Zr 9.863803276899366 8.572082665245986 10.861916187559919
