52
Energy = -386.38003328 eV
Zr 16.929874064320057 11.787888516830892 10.077093734905306
Zr 16.589722930768588 14.716260723592113 10.897107580975195
Zr 18.627459291404428 13.076823366491569 12.099497628254515
Zr 15.045796787134154 13.690996795948996 8.359552427459937
Zr 15.598781995769322 16.83912172839171 12.39596978067557
Zr 14.266721846858339 10.759320530174245 8.435939038505886
Zr 13.677306443332698 15.919526910551065 10.155117532096796
Zr 17.54638894749595 15.175052449603221 13.825916813943634
Zr 17.7857198764572 10.386053947825578 12.458580744830567
Zr 12.90529252594668 12.529587482092376 6.65896418990904
Zr 12.769492952434145 15.247422697991459 7.255170474133183
Zr 15.969425808988653 12.65070099010858 13.59518228620985
Zr 18.361973896092735 12.172976191506448 14.883253925095522
Zr 14.963957136666265 9.35726702108857 11.638100523631184
Zr 13.592857013033665 14.50653261017238 12.788733400085878
Zr 16.405274518931407 14.088568054985906 16.517567521158703
Zr 11.976127648096321 13.411507121259305 9.437338660049742
Zr 12.92537854034972 8.434597387199684 9.4366790903819
Zr 14.890692309661224 16.242210830956505 15.150281821135938
Zr 12.958737794800344 17.535077782485903 13.38850344014647
Zr 14.377466853145817 12.382361529869215 11.008536875973876
Zr 10.790840649057516 16.19713065495937 8.821601409479065
Zr 11.236311049981767 10.525305635424333 7.976385527501693
Zr 10.114749086540925 13.508668202723342 7.360010838510726
Zr 16.2549496225007 9.585291677393341 14.697758307550146
Zr 16.07038770833261 11.425646747867463 16.754409649563552
Zr 10.126611098744723 8.736713687918314 10.097328184333204
Zr 14.007289915943867 7.942036987982322 14.386807265395953
Zr 10.876004884126017 16.110389518337463 11.789598206308476
Zr 13.514847648317055 10.76418710022209 13.826043986011356
Zr 12.092827335764927 7.953677521811856 12.250368379998614
Zr 14.0432494059047 15.438357896876827 17.843184610197117
Zr 10.141218415307037 17.681330320689174 14.224242863252437
Zr 13.555344007730081 13.18649110771859 15.855918168295396
Zr 12.021872190451326 10.690609151865411 11.138969217148343
Zr 11.528541136662323 15.15710492745644 14.706606540377555
Zr 8.885627382148506 14.508568144942323 10.053893284896573
Zr 13.609530013609792 9.95687098474637 16.70481886992257
Zr 12.085450890833057 17.21869728153754 16.600888866177094
Zr 9.286624646313548 11.642336868751155 9.955410730807513
Zr 10.647578901978614 13.223121921260521 12.023993343526412
Zr 13.835297684313213 12.621090005143033 18.482181546336392
Zr 11.265285394050052 9.035340465630632 15.129184726933783
Zr 10.859878704118993 12.135057539619282 14.545589138061644
Zr 9.609357131693816 9.910747662648708 12.79237857762205
Zr 8.615508929533831 15.139166360350714 13.729661683735007
Zr 11.282417110092661 14.417815379065122 17.847271775817763
Zr 9.32949301507452 16.232583523949803 16.45801643337029
Zr 11.036820746372605 11.437014179471854 17.415750791967383
Zr 8.066346993882167 12.33072837692399 13.45471015883592
Zr 8.810930113081636 13.399122732420444 16.34235675048066
Zr 8.72957295248466 10.527422120121289 15.640906159584082
