52
Energy = -385.64967607 eV
Zr 17.27898543645085 15.421701041240558 13.981776794868676
Zr 15.752468564084037 17.000818327945503 15.957830329537323
Zr 17.49496239524982 12.317435554289277 14.281669366619667
Zr 16.188953057684493 14.149811933669667 16.545461141447785
Zr 16.05322547310598 18.182832912864036 13.30592221311667
Zr 17.394698035749403 16.22944847556101 11.272613419303207
Zr 16.500015033525745 11.385222824028487 17.031712216196116
Zr 13.311128241755611 17.934951273999555 14.788389042706397
Zr 14.133664612916245 14.957106828351295 14.574351568356278
Zr 15.359431625069428 13.541291684205166 12.156584471787076
Zr 13.305152975979917 15.532405412881007 17.22630530348346
Zr 15.604954616120263 18.153703481713098 10.206803691149176
Zr 17.6127010034386 13.299206620289887 10.848461232208162
Zr 13.421950718741073 18.978830743313434 11.985367209732916
Zr 16.526213658995054 9.494888826783017 14.956051369766664
Zr 15.455160604864108 15.197704482646891 9.281499303680027
Zr 13.918459269933775 12.602483122870003 17.84574493770374
Zr 14.346453706921688 16.221686736579958 11.961183037653726
Zr 11.070838529777381 16.108666160326653 15.526443325807175
Zr 14.017695428896493 9.783377640546222 16.817916553965336
Zr 12.664287399843367 14.365830680354462 10.289093293814755
Zr 16.11001612682378 10.59781127445133 12.180604057600638
Zr 14.599979097679077 11.69672230229835 14.671474405045153
Zr 12.82059271081598 17.185908611139993 9.681738824654833
Zr 14.810631355091386 12.086059288242874 9.503632498214804
Zr 11.954284518211333 13.885449582770203 12.96822510015682
Zr 13.226893750788312 11.175861236857623 12.053630911785278
Zr 12.774503654326706 13.31975357365227 7.466556541466321
Zr 11.898800274618498 12.910844652833296 15.574578348012684
Zr 12.12440487013619 7.788100699081193 16.39671761000313
Zr 13.933475409659424 8.717567631372129 13.69803748180218
Zr 10.380582023449737 13.937952645785122 17.45317245232937
Zr 11.458988401272574 16.767569812150356 12.577891691608647
Zr 13.812208083471733 9.194744252614655 9.960156366287565
Zr 13.129539986737308 10.543728279753891 7.493519025773845
Zr 11.512313773216489 10.01746747972807 14.502933768877373
Zr 11.212841229162036 10.627863020479074 17.4578522268249
Zr 10.324622657735098 14.325826510257658 8.314410881216107
Zr 9.269803887139462 14.349074758885433 14.303802254478962
Zr 11.455552979146432 11.693737539890778 9.779733620730086
Zr 9.561467742700342 14.592283796575014 11.19072926923899
Zr 10.035495490297825 11.764136841753627 12.34180127039569
Zr 9.37646816151386 8.659520800097065 16.08780277453636
Zr 9.033346586454622 11.595508458235898 15.354921976715314
Zr 11.157308327753784 8.817558619029816 11.564236707706739
Zr 10.84801905109398 7.181228556603953 14.008149961727336
Zr 10.207541957694119 11.4349614005302 7.291302430935007
Zr 11.165251737676055 8.867613375049809 8.641678449190202
Zr 8.37538743256814 12.623601038916444 9.547641425462624
Zr 8.722460318798461 9.290860298679386 13.311774007617608
Zr 7.47681766768833 12.331879965239192 12.506673257736622
Zr 8.848950183225774 10.001250117579481 10.003765246864976
