54
Energy = -401.55271408 eV
Zr 15.88143053171883 12.727112690545916 7.318817344988656
Zr 13.283732811864072 11.594209929894447 6.823500745983327
Zr 15.35452491921927 9.870976577380922 7.8138010657098755
Zr 13.558874196474815 14.376006944690307 7.9740865025943855
Zr 17.457142120917435 11.45851858069769 9.344214756083957
Zr 16.05233673025495 14.280078286364942 9.944937448315619
Zr 12.244511281345092 9.624750405475856 8.972542866949595
Zr 14.169274588858 11.763720652880552 9.652649446533918
Zr 11.130187678800896 12.550131182025963 8.442669544516223
Zr 16.078111234892276 9.031124586100985 10.542947957661225
Zr 18.313962929921388 13.188940536646992 11.765781505836522
Zr 13.756531467637867 16.713329398672037 9.681842086078204
Zr 11.000525393186734 15.303413275717125 9.448331969630132
Zr 13.393328842708197 9.267753326520713 11.992566668808337
Zr 18.33199114714861 10.184895667785543 11.871282024295082
Zr 8.635625510468968 13.173240933016002 10.240602939076705
Zr 13.496233082233221 14.33403518692328 11.365264837875236
Zr 9.29556874038168 10.441015990448133 9.371721027889661
Zr 15.814630543531022 11.773151630923978 11.970426824665694
Zr 15.902290906705744 14.17297646627586 13.64539900178386
Zr 11.450126652216992 11.415574004830534 11.162602676177451
Zr 10.286499502658781 8.585447468432543 11.491772990902941
Zr 16.08448010681681 9.257709189269098 13.566614196638389
Zr 11.701515258661553 17.068199879787315 11.909778160016133
Zr 10.747270092329986 14.063119405002137 12.181039058231772
Zr 17.844497728851817 11.682815224815865 14.234926439807357
Zr 15.173099232337895 16.671925157179853 12.195416800167445
Zr 8.434146039080474 10.831234954291316 12.181218274693741
Zr 13.852383369264828 18.61114074755568 13.831719226436684
Zr 13.489861202000816 12.100978685037871 13.671373205610841
Zr 11.560630999456388 7.522709281842417 13.924885680932254
Zr 15.863616986908522 16.710698559976358 15.269830775846147
Zr 13.538012082790885 9.113619813978618 15.154292326798682
Zr 12.928878058100338 15.895960054883247 14.189526339954249
Zr 11.077085185959263 10.56815960144145 13.84615930105651
Zr 16.812247817839616 14.032620003521606 16.508355114029076
Zr 8.785321092406827 15.916010462711494 11.401049317549116
Zr 15.513118203401802 11.547547145348366 15.882565119892606
Zr 11.286341762952084 18.33333092188513 14.840702664021135
Zr 10.80971707039436 8.897389277067436 16.363482685047554
Zr 9.429094617182718 16.19756144056118 14.227121046012252
Zr 10.983948419217052 13.531598435975003 14.994378884515083
Zr 13.802571951544792 14.268071746147648 16.199366280091038
Zr 8.199790630627486 13.519503229219524 13.47231028893422
Zr 8.893323678199826 8.684985788320787 14.183694858481106
Zr 13.496566393459227 17.63593300095785 16.760093626513726
Zr 15.491999040669734 15.887151275799042 18.128637773899797
Zr 12.508421478369897 11.403436290080318 16.518340379310736
Zr 9.122483062161542 11.401805948869974 15.855610981218527
Zr 14.627051249035937 13.04851501910286 18.545914706685654
Zr 10.816810210251782 16.214926693503852 16.946014377910043
Zr 8.60285578882372 14.330698459839265 16.40603569316811
Zr 12.829657708534036 15.483813829238047 18.829791065919594
Zr 10.966744076404634 13.33547247519201 18.004664042069443
