55
Energy = -408.96505365 eV
Zr 8.64169977677555 8.610996058337776 6.281518208948871
Zr 13.090771335152757 7.0361542194263995 10.135042004713059
Zr 10.215027703181688 6.4908255994516715 10.636520181184958
Zr 9.586341551965111 10.657165558460656 8.388730225299412
Zr 8.347345584783191 13.40703977625196 7.845829811322928
Zr 10.628064920456476 12.934085354498416 6.383321904854053
Zr 8.440300545676132 11.308178577603348 5.572157513433291
Zr 6.5761745102290945 11.296324645214899 13.005231910916425
Zr 13.175380645057116 10.857539151311704 13.219172236082665
Zr 11.16971450059539 13.016565297191908 9.432168497093505
Zr 14.208946318932002 12.388283604180163 10.35322356102729
Zr 11.887822426637657 7.987077945435708 12.932969921542933
Zr 6.7122801950117665 10.387388547290893 7.730812709719423
Zr 8.6388100224366 8.384311326358977 16.245716440723026
Zr 6.9643076706671145 8.489396060462413 13.752232431404085
Zr 17.07035866137199 11.836507690612125 10.188039090886424
Zr 14.323365062562594 15.70426684903088 12.279326384555674
Zr 15.688365325175374 10.772785938979483 7.723583708564153
Zr 9.46590547919247 12.362297583983834 11.974210548663027
Zr 6.983184938866021 14.072391802613568 12.42724231999264
Zr 7.962916706627447 7.761641111724575 8.847875545280843
Zr 12.132666480705595 15.94597635338574 14.129443024183432
Zr 11.082682206316807 9.971253493610284 5.696320071731472
Zr 16.25869670438647 10.094336053362293 12.848956977713645
Zr 15.800924692544369 13.621052177319795 8.073547280288084
Zr 16.409596970971577 14.631930627028899 10.522574458223392
Zr 10.93534317267859 15.545580501492568 8.132467428550976
Zr 12.182571837703778 13.676266079173852 12.273160529584574
Zr 9.79902862293618 10.342633038952306 14.1160701634959
Zr 15.545329874114547 11.365530776137671 15.2808379553775
Zr 14.644885254180256 7.8069377971194225 12.39764595830162
Zr 6.193281611295097 9.340722034363546 10.68268277103896
Zr 9.745134639202355 11.020686769216876 16.936181499755666
Zr 8.148186059438112 13.036819476998676 14.961365282664843
Zr 9.061822442553106 9.281834357391679 11.33521441801585
Zr 13.780352742698469 8.399119588263384 7.743765539132259
Zr 7.066007084554879 12.24297231218283 10.139505708883128
Zr 12.747814613007508 11.0783629239284 7.900356643768751
Zr 15.948092392023225 13.042210090103197 12.875198123261152
Zr 7.453731126043602 6.77770818113079 11.497835842816698
Zr 14.39422864316992 8.822866687540134 15.043373203885933
Zr 9.48349310436586 7.072786608373463 13.671541586157181
Zr 11.436622702958786 8.629783743243905 15.916589491221197
Zr 13.760348683394863 15.539542599226708 9.36860779195705
Zr 11.464794892185271 16.334020850385528 11.152511060488793
Zr 8.880933743122965 14.976291905622569 10.458370915524734
Zr 12.823086691245054 11.139451386772276 16.27255433857028
Zr 9.512589548478381 15.327768546449791 13.296509338053262
Zr 13.191578145725192 13.93504646059535 7.087107696287712
Zr 11.001393271061096 13.21032892451743 14.990430984146657
Zr 10.941105145812923 8.003831479728667 8.183213098808885
Zr 15.136556852827288 9.409492732729673 10.141455277324146
Zr 11.988634521236492 9.981179002391455 10.582004572575386
Zr 13.895607036243357 13.717005461998829 14.832034501488451
Zr 7.049519609464714 10.591173280839978 15.77936631051344
