52
Energy = -385.93820969 eV
Zr 17.305388101906733 12.005899834615077 10.36805779704296
Zr 15.346166501005175 10.73615552976869 8.31004482885043
Zr 16.134184405976452 9.324629882619478 10.955076185956946
Zr 15.948473456017126 13.757115408454773 8.67965796627965
Zr 13.471185134153295 12.822824429835592 7.167228816819826
Zr 17.021629187721206 14.603512034727734 14.39744995268728
Zr 16.610294489321927 11.654091096667196 13.366154437616833
Zr 14.095984866137282 8.24648666347401 9.298004194505053
Zr 16.22742755004971 8.396068078030224 13.757600885559832
Zr 15.91248701555351 14.521900231435593 11.70205217010253
Zr 16.52765552801091 12.83939382134342 16.341939093921823
Zr 14.431893705784947 12.185366801249591 10.733131782343083
Zr 12.34971059290775 9.976192161555584 7.721824229691504
Zr 13.714895992765198 7.402104359937824 12.011460738775522
Zr 14.744964029060048 15.325065520491428 16.47116017798663
Zr 10.6331970055825 12.090834153940607 6.733997085178566
Zr 13.50046937274925 15.067659218403344 9.444672604704738
Zr 11.191928342181178 14.842414897141767 7.536108015389774
Zr 15.190834265038449 16.89461648607307 14.035743814327367
Zr 11.454972805649394 12.661856295534117 9.496589766498175
Zr 14.279880072148487 13.34563176623382 14.388241470420493
Zr 14.125380342401103 10.083109865823271 13.112124296842678
Zr 15.34390075634865 10.225525745098215 16.03899389123838
Zr 14.961727652218014 17.268148481401973 10.989740999819993
Zr 12.216228963932032 10.073714476151805 10.884914567430048
Zr 13.49666751824226 8.002013419743635 15.196434631286216
Zr 12.963083981589183 9.564559421880917 17.720972402143126
Zr 11.072909255262548 7.893270363534958 9.935184083225781
Zr 11.206104983395607 8.399124814016549 13.234001351104245
Zr 12.17490402987596 17.60164687907597 10.295366078748616
Zr 12.502347704143974 10.975027710228558 15.245791378493202
Zr 12.95682400047118 15.501351228392407 12.33586671469408
Zr 12.025113825241112 12.49736795381716 12.412498148042411
Zr 13.055304927721334 18.421698196592857 12.937985439877451
Zr 9.461865763407797 10.376120431349776 8.832437792934105
Zr 8.775543607838612 13.449209234852344 8.510797359922725
Zr 10.564649039210497 8.808049081902476 16.154535687650036
Zr 13.842896622957149 12.504172428911566 17.534926503815196
Zr 12.270948307018337 16.790529254674404 15.141352849045763
Zr 10.327473334906903 15.254892327408548 10.431074637651143
Zr 11.80931643483088 14.0161721091525 16.234630644878774
Zr 9.814555395024382 11.226350169435813 14.287294127079646
Zr 10.572505814835177 11.33416414969982 17.562153482595807
Zr 9.228088065525297 9.707723321324114 11.658847410377371
Zr 10.304854161660854 14.188154560236976 13.554643759712002
Zr 10.309930495531667 17.326036477334924 12.739861278995278
Zr 8.876406340576118 12.565431253214028 11.34302393493482
Zr 7.931264443504534 10.664611086674459 16.201380260521383
Zr 8.000390951509317 15.461485952747966 12.263445044089298
Zr 8.909340424354804 13.371786368911843 16.534824716582218
Zr 8.931513500966144 15.967785602751535 15.130096277687349
Zr 7.495188658872973 13.315752856334155 14.138491552711466
