55
Energy = -409.47236562 eV
Zr 6.859491916805052 10.136701498128632 9.011243080301226
Zr 16.555363158675945 12.807299008101742 10.79151684266082
Zr 14.012417899501635 8.736368081920439 13.692464320217857
Zr 9.552953329130734 6.3429755242581205 10.879543452296426
Zr 14.447089123463108 12.22172209025645 13.126617300440211
Zr 9.806130252943946 9.200298368400663 15.957991789053311
Zr 12.028049430999772 11.338390561024418 8.661033821419037
Zr 10.746311234077844 13.887396215205154 15.907374963692407
Zr 14.31786817538621 7.840340591166834 10.519662958896511
Zr 9.343433692461726 11.126825823721857 10.46906368156486
Zr 9.232866477954769 10.785379342726928 7.387663931952347
Zr 10.423868868325242 9.265949785265782 12.783978800567978
Zr 6.401152646387209 12.697284508931164 14.087258643716721
Zr 6.560257707926557 11.515813411523029 11.517180128890704
Zr 7.408706008472248 9.82328292595124 14.118731315186452
Zr 11.646825619351828 16.107013583403077 8.474839063551144
Zr 8.590069011635462 15.651635348046254 8.732305835761851
Zr 15.863834164386946 13.337078856790388 8.021506317930111
Zr 9.897697604913429 16.804723653370704 10.78702992036286
Zr 12.15669853779966 6.812663467505246 12.124647722814009
Zr 13.63177169693965 13.292362663621068 10.101012777384193
Zr 11.779148940323845 7.445321864416728 14.95629896767595
Zr 9.078516275745644 7.0702797383781535 13.77439351804228
Zr 11.798283222332925 13.163326467208412 12.518607508976356
Zr 16.29693793100967 10.004046263722119 12.282419820757289
Zr 15.360419761524133 10.548615717285065 9.438171766457234
Zr 8.108941739321576 14.596053238465805 14.941695808737427
Zr 11.853944139707833 11.088744605091826 14.617462262180652
Zr 12.848698152218704 10.46172332805179 11.415059527991174
Zr 13.06184048166935 9.50762906691673 16.636397246659865
Zr 8.426479594609528 11.877217668511282 16.212011383266585
Zr 9.19747719842325 12.225214838002884 13.416977380248039
Zr 17.38278217731377 12.461270246541359 13.48818004872318
Zr 15.386726589198988 14.908586682466193 12.346042754558951
Zr 14.66925942601461 15.691826463600743 9.187999093558325
Zr 13.580828641058751 12.656707700297902 16.53518606567958
Zr 13.216185421768508 14.966693163091843 14.494800161422797
Zr 12.636049500054355 16.093683481647364 11.44321107870571
Zr 10.095949688002081 13.704118648580577 7.042883314195091
Zr 11.153490978895205 8.750637176475724 9.8577110515479
Zr 10.300161175214425 15.54612057837972 13.354153587068778
Zr 10.99272075884574 8.52296257061577 6.791278999195485
Zr 7.750858188423805 8.593250001979877 11.347942348229656
Zr 15.675626467692737 10.765843529906487 15.310204077829537
Zr 13.618310254945056 8.781467377301537 7.8253903745968625
Zr 13.117192037372133 13.95236959840719 7.036983845856342
Zr 11.110535693283396 11.429632073877377 17.47609917001783
Zr 11.80435629065725 11.336883310208405 5.844720175547308
Zr 10.52665825110097 13.932389923403605 10.065985928092926
Zr 15.808671005302182 13.873762175922263 15.210508968508547
Zr 14.508528415818871 11.355345519711586 6.694039129337816
Zr 7.93049503661596 14.351225593388872 11.674164674947551
Zr 8.65609814838878 7.960489896362587 8.508343030056258
Zr 11.92553165816711 6.405266212860258 8.963624193361271
Zr 7.581769617071785 12.962119385233812 8.860715484939494
