51
Energy = -377.96961021 eV
Zr 18.20379648610888 12.730674219735125 12.173068055038838
Zr 15.997232526676122 15.206892838673896 9.094794752769324
Zr 14.860947301165663 13.49508597808286 7.209550986349057
Zr 18.152666449912243 10.125375848754604 10.926947921386741
Zr 16.67168080178675 12.28502005479261 9.323317260998422
Zr 17.741697956425714 10.213782853891683 13.703190701499265
Zr 13.11413103889533 15.70276739458689 8.186869152059517
Zr 16.37576252747109 12.69536077822012 14.581899924324528
Zr 15.777618872017431 14.53771641846576 12.124471037761579
Zr 14.38071714034361 16.777032363778297 10.599020300997198
Zr 14.222199988679405 10.780759576638491 7.984119059193501
Zr 13.882598447471361 13.308421357026125 9.96000446646001
Zr 15.719469234408427 11.413302500451234 12.026324686170579
Zr 14.635699900875407 15.142503300248666 15.305647194662258
Zr 16.14959445600321 9.286348160978704 9.279057942730951
Zr 12.027265444075718 12.743790812672291 7.594612966449269
Zr 16.059609188126352 8.259849110826778 11.987018838220035
Zr 14.920686266452782 9.807343730766602 14.446246337644885
Zr 11.951649737979048 15.129030499599766 11.022417258203445
Zr 13.76952189981146 12.093563515953035 16.138375428127095
Zr 13.525137086030739 10.171883511789293 10.90718176981688
Zr 13.143961410176571 16.464127388731963 13.354881428209094
Zr 13.357190699305221 14.491975063204434 17.77076268666359
Zr 11.3916834323957 17.501983400779096 10.505015557978249
Zr 11.961709294055199 16.808083088554557 16.237513495711664
Zr 11.768793230582784 14.288827683723083 15.22907198406991
Zr 10.325186143447077 16.565476093972794 13.382614948922802
Zr 13.693298248711233 7.736091845064351 9.920428227915238
Zr 13.516697605198495 13.242032712955332 13.171182547359482
Zr 8.85328018881326 15.668869459104062 11.233284820473976
Zr 13.254679180159988 8.028437468560213 13.007991191247035
Zr 11.369306790097944 9.64309466624737 8.427897902790063
Zr 10.596891489751787 14.903231178768337 18.014315034371318
Zr 12.141162199614044 9.700465774020394 16.39225343956125
Zr 12.058231132860668 10.646080277201644 13.45676370664396
Zr 9.982292936200091 14.507106157122857 8.86626003231968
Zr 10.922816053963267 11.747642891225663 10.37868615236291
Zr 11.53145892707294 12.138970437310943 18.151172632363927
Zr 10.307000548943712 13.552958810842146 12.620627455883364
Zr 9.076643177206016 15.552295739537863 15.77340421546476
Zr 9.282896128283099 11.829622954162277 7.944423995705222
Zr 10.98783219716006 8.700801771059806 11.297869955524394
Zr 10.27998591019689 11.833311541214638 15.37273837160944
Zr 9.447203924062073 10.102680451027142 17.517799816269033
Zr 9.885141439564554 8.969597832270559 14.788147187881194
Zr 8.747123194556309 9.86385228142928 9.851203074347964
Zr 8.069994731583222 12.730763600014829 10.490435359564543
Zr 8.880679823885108 10.856483471567516 12.720409749741036
Zr 8.453706024522665 13.002306721607896 17.233360643591137
Zr 7.94287826519559 13.426954167989255 14.113640370613815
Zr 7.57970788772376 10.771094412355241 15.45611375157544
