55
Energy = -409.6096093 eV
Zr 11.677994222298395 11.677994222298395 11.677994222298395
Zr 11.677994222298395 13.277865164857326 14.266906726263116
Zr 11.677994222298395 13.277865164857326 9.089081718333677
Zr 11.677994222298395 10.078123279739462 14.266906726263116
Zr 11.677994222298395 10.078123279739462 9.089081718333677
Zr 13.277865164857326 14.266906726263116 11.677994222298395
Zr 10.078123279739462 14.266906726263116 11.677994222298395
Zr 13.277865164857326 9.089081718333677 11.677994222298395
Zr 10.078123279739462 9.089081718333677 11.677994222298395
Zr 14.266906726263116 11.677994222298395 13.277865164857326
Zr 14.266906726263116 11.677994222298395 10.078123279739462
Zr 9.089081718333677 11.677994222298395 13.277865164857326
Zr 9.089081718333677 11.677994222298395 10.078123279739462
Zr 6.744129135233829 11.677994222298395 8.633561304276967
Zr 11.677994222298395 14.722427140319821 16.61185930936296
Zr 11.677994222298395 14.722427140319821 6.744129135233829
Zr 11.677994222298395 8.633561304276967 16.61185930936296
Zr 11.677994222298395 8.633561304276967 6.744129135233829
Zr 14.722427140319821 16.61185930936296 11.677994222298395
Zr 8.633561304276967 16.61185930936296 11.677994222298395
Zr 14.722427140319821 6.744129135233829 11.677994222298395
Zr 8.633561304276967 6.744129135233829 11.677994222298395
Zr 16.61185930936296 11.677994222298395 14.722427140319821
Zr 16.61185930936296 11.677994222298395 8.633561304276967
Zr 6.744129135233829 11.677994222298395 14.722427140319821
Zr 11.677994222298395 16.858310930605626 11.677994222298395
Zr 11.677994222298395 6.497677513990833 11.677994222298395
Zr 6.497677513990833 11.677994222298395 11.677994222298395
Zr 16.858310930605626 11.677994222298395 11.677994222298395
Zr 11.677994222298395 11.677994222298395 6.497677513990833
Zr 11.677994222298395 11.677994222298395 16.858310930605626
Zr 13.291536967976915 7.487619134246259 14.280051199460848
Zr 10.064451476619874 7.487619134246259 14.280051199460848
Zr 13.291536967976915 7.487619134246259 9.075937245135943
Zr 10.064451476619874 7.487619134246259 9.075937245135943
Zr 15.868369310350529 9.075937245135943 10.064451476619874
Zr 15.868369310350529 9.075937245135943 13.291536967976915
Zr 7.487619134246259 9.075937245135943 10.064451476619874
Zr 7.487619134246259 9.075937245135943 13.291536967976915
Zr 13.291536967976915 15.868369310350529 9.075937245135943
Zr 13.291536967976915 15.868369310350529 14.280051199460848
Zr 10.064451476619874 15.868369310350529 9.075937245135943
Zr 10.064451476619874 15.868369310350529 14.280051199460848
Zr 9.075937245135943 13.291536967976915 7.487619134246259
Zr 14.280051199460848 13.291536967976915 7.487619134246259
Zr 9.075937245135943 10.064451476619874 7.487619134246259
Zr 14.280051199460848 10.064451476619874 7.487619134246259
Zr 7.487619134246259 14.280051199460848 13.291536967976915
Zr 7.487619134246259 14.280051199460848 10.064451476619874
Zr 9.075937245135943 10.064451476619874 15.868369310350529
Zr 14.280051199460848 10.064451476619874 15.868369310350529
Zr 14.280051199460848 13.291536967976915 15.868369310350529
Zr 9.075937245135943 13.291536967976915 15.868369310350529
Zr 15.868369310350529 14.280051199460848 10.064451476619874
Zr 15.868369310350529 14.280051199460848 13.291536967976915
