53
Energy = -390.75145067 eV
Zr 14.574951268240016 7.922282085951552 14.09074801160568
Zr 12.142444830949849 8.244399036353851 12.64590584355893
Zr 12.188410669927364 7.951019638900859 15.500678819180674
Zr 14.78348634372527 9.882652306408085 11.935734875671699
Zr 16.661522906903933 9.847550616571676 14.638123056688308
Zr 14.51692759571423 9.51526016074776 16.62818209075665
Zr 16.535094871888614 11.88959988690007 16.809356906854386
Zr 12.974497269269055 10.709731890264258 14.218619110063521
Zr 18.274930643652414 12.507942302241617 14.533787736166698
Zr 16.156336340134654 10.612047653931567 9.59662369322367
Zr 17.615502689526203 10.798596000706095 12.105006750028041
Zr 11.044683647359998 10.61411148588018 11.573641737892903
Zr 10.183426650681698 9.773849695997798 14.32551161188517
Zr 18.872509883056466 13.509654345953567 17.30948384241625
Zr 15.520390282017079 12.949768483229217 8.375261559422126
Zr 15.742668150422432 13.019124288729035 11.303255795377012
Zr 17.724984345129055 14.975924592351205 12.729317627495124
Zr 11.787158930289724 10.31990454444374 17.0549385164679
Zr 19.55314552566433 15.063487344296254 15.086405988737683
Zr 15.356243230603987 12.634325204581069 14.057694763011172
Zr 13.71124633026636 12.776820583079203 16.68541283966389
Zr 13.316252327901946 11.678329631806651 10.04027292200474
Zr 16.521620276804658 14.370072616089395 18.694674575476668
Zr 16.40945603815792 14.798556842055143 15.704668819816138
Zr 10.65798843707818 13.3349187602735 10.257709614864192
Zr 9.506244986842137 12.513464716493282 13.0029772911246
Zr 11.870358554362202 12.638647032770878 18.85542440512377
Zr 12.405176328353768 13.587781307932987 12.633047856857885
Zr 18.406519369896216 16.381758916250746 17.424616662620252
Zr 13.607318097350658 14.59410325327824 9.731582020563598
Zr 14.71056416181936 15.689972569481874 12.73264436230818
Zr 10.624336447664636 12.500780550638371 15.939418231095747
Zr 13.61247402275853 15.07382779529529 18.842710218186117
Zr 15.635569297362464 17.10139492638011 17.8839392858833
Zr 18.141313404156232 17.461269452497262 14.61629111523762
Zr 13.137213975505674 15.60935576772658 15.59962497563416
Zr 16.31032747371764 15.675064196481133 10.075059299646709
Zr 9.60109893546151 15.372389322466494 12.122812282117996
Zr 15.09681561258257 17.94338964235665 14.963446685306508
Zr 10.916185136342872 15.090468082013965 17.68079041691089
Zr 11.575372580890559 16.16657912087211 10.522825571416687
Zr 10.378578522224036 14.893850169470994 14.668115862711163
Zr 16.700637637015515 17.914575879589457 11.938302987833683
Zr 12.007025189728978 17.283773527173093 13.216379523757796
Zr 17.126457834007088 19.514787746749622 16.578458836016047
Zr 12.587061256527576 17.650923077028953 17.908048384910636
Zr 14.100118645593986 17.579670000593804 10.51902062337733
Zr 10.548479801782582 17.399009316490762 15.87622676090964
Zr 14.15454088611086 19.644754362503566 12.702049694153533
Zr 14.432428994626129 19.75374476728489 17.53459583430086
Zr 17.008166558199747 20.04688693029788 13.714681517179773
Zr 12.461898220614984 19.443325161257405 15.339918679730353
Zr 14.932653083589873 21.06125047111692 15.158787270258475
