54
Energy = -401.1120235 eV
Zr 14.653922621197434 8.224929864025707 14.449223577491216
Zr 17.186729964629897 9.959827655337921 14.710735094756734
Zr 11.402823456543963 10.432648018539432 17.387420089802443
Zr 16.87661620688947 7.776517767437754 12.783416597137292
Zr 9.965616231435629 8.536629088956245 15.454145998196037
Zr 14.901143783890387 11.793703119181563 15.242618456813505
Zr 11.998397581621669 7.50147444784891 13.130703816086797
Zr 8.438620101337014 10.06089331753181 17.334082157494926
Zr 12.407178833281824 10.045503743858252 14.591669424578818
Zr 14.333455650493585 7.0940813422546505 11.483865150582204
Zr 18.413777236654486 10.017907334817655 12.07925623347867
Zr 12.004639470413588 13.12777436207135 15.918852966555331
Zr 15.421642950644713 10.480740402597991 12.410419005542282
Zr 9.593071649416963 12.588548325433118 17.914824965065836
Zr 17.372207606018204 12.702514775130114 13.165723307120324
Zr 16.790284237768507 14.283297427901127 15.579650784347523
Zr 9.812237731459602 11.567161402965747 15.024534024747293
Zr 7.47150451008807 9.787140598923902 14.590390414764624
Zr 14.245699369990211 14.547350388926917 16.943858362325358
Zr 9.926647703391385 9.627430030008282 12.614370267937447
Zr 16.42612440295552 8.693448470121824 10.044159248676545
Zr 11.510273361194379 7.545037647233666 10.286569453074433
Zr 12.221237691286088 12.305944670756423 12.983400093348802
Zr 12.805729800239368 9.86010958220949 11.2368656098749
Zr 7.1523898151710235 12.393277979171364 16.01944389662942
Zr 13.769861103901906 8.214567588990564 8.794797298543033
Zr 9.183982287879425 14.59949166997283 16.009658602658753
Zr 14.274694953075057 14.389078659711425 14.01286473006456
Zr 12.11974256458449 16.21761937810941 15.00510672611054
Zr 7.688564126296166 12.220887554786028 12.96064023066636
Zr 11.643313061138306 10.500067199402029 8.57512474141324
Zr 9.97044882440786 12.240839173132777 10.82716291695613
Zr 17.172601703408034 11.742368540927034 10.088614748371976
Zr 14.765847514318603 10.953502545158441 8.792778580512005
Zr 15.227442068978856 16.754759317198907 15.402723750599504
Zr 16.731247160047317 15.945122640615534 12.935990697418644
Zr 17.67718707863551 14.549228396181775 10.56505548389964
Zr 12.657602333288727 12.85021451619647 9.980232250853648
Zr 15.154901272386118 13.373721671681313 11.383658411452693
Zr 9.09904248888333 17.062101987424665 14.587816845725484
Zr 10.063994924285154 14.602082183372334 13.026096788309085
Zr 7.145264518911513 14.980989444349433 13.850322532811605
Zr 12.869438482999513 15.36939317715283 11.568683740736699
Zr 15.5209758948033 13.992125068717401 8.429865725149645
Zr 7.743310704637187 14.277264316453548 10.94978524326221
Zr 13.168030862631163 12.725375902275657 7.081565654887372
Zr 10.540741223691523 13.360507858383171 8.008355588304314
Zr 11.084133333409035 17.567976716712103 12.56934359245957
Zr 14.20428735734345 17.66455160992489 12.790777206168299
Zr 15.366854054589629 16.49154729437472 10.162317532384638
Zr 8.29185138717954 16.89704382344097 11.826798766515507
Zr 10.371546765168308 15.475200147720232 10.103373026506453
Zr 12.969279965970813 15.490240841260006 8.272706627059335
Zr 12.6225926174304 17.779010166293396 10.081018176498967
