53
Energy = -393.9702959 eV
Zr 8.730675381184282 11.554365177508716 17.862206702138856
Zr 8.868280760959012 9.29114232597376 15.735284425361144
Zr 7.079887243341961 11.312533496472769 15.240398245449866
Zr 11.280441748400683 9.856449057831886 17.270495332273423
Zr 7.449377502707826 13.852276893354974 16.272385015026988
Zr 11.95295288855182 12.709837865708185 17.986072937475335
Zr 9.017547891133207 10.714225554069928 12.991287801330385
Zr 13.194451498746291 7.567258569656829 12.614418601811273
Zr 10.090957977700763 11.973800594780158 15.531902987087172
Zr 11.425004116168516 9.275643905372656 14.318812890829845
Zr 7.5326949780717065 13.51150103326273 13.284666289319103
Zr 9.890327836501381 14.611206617709966 17.514866390327015
Zr 14.26795891105129 8.567372941222155 15.038245668016618
Zr 8.263038733356142 16.260323779731568 14.811085329456592
Zr 13.554896315840757 11.318400227193623 15.943141460717195
Zr 16.235089862466108 8.242767917591818 12.740170981430662
Zr 10.121930386825097 14.38889450410103 14.211841938216539
Zr 14.335725334068124 8.265603692114395 10.281659021649402
Zr 11.742929607068714 9.912111426003417 10.901056697844403
Zr 10.113804663912529 12.973081724154392 11.289405116838727
Zr 12.555479457732012 14.727002448804992 15.61740710395727
Zr 14.36456997569897 10.330812829948115 12.490560880822635
Zr 12.098178803160673 11.969517565472394 13.356966205719294
Zr 13.035976114255085 15.862528606216273 18.075206823640947
Zr 16.3666182023553 10.441018950981832 14.984499224610701
Zr 14.891760623835266 13.496610135000827 17.15367426517519
Zr 10.626170231507917 17.11012816023444 16.575807205948657
Zr 14.698886218514168 13.557495410800705 14.026322579157874
Zr 13.272952734089833 12.502090633856874 10.644263806267823
Zr 12.222890367549757 15.015284823041311 12.48009708842429
Zr 13.208153226318883 17.7745151784472 15.766372429846971
Zr 11.320437139132508 11.949084637124942 8.6410010627192
Zr 15.403542616381344 15.937310891653816 15.908801676765671
Zr 17.468429749288525 13.101719703912602 14.65466059190706
Zr 14.035468070830005 10.581603977260261 8.610426330925684
Zr 18.29084822717105 10.612930463938218 12.779035842749856
Zr 16.766770147546417 9.872078766712825 10.135598327335542
Zr 11.45234128170495 14.872769652146015 9.352956640081254
Zr 9.302186518858402 15.858197700260826 11.870715821258583
Zr 10.951471385402668 17.47909661346404 13.743615886226957
Zr 16.390211868884126 12.65177144616884 11.766214429253061
Zr 14.388795419676384 17.021351728436702 13.161378157659172
Zr 14.65079709838308 14.961835243257386 10.571790983333534
Zr 13.577575538643417 13.680506497909619 7.6729270614293
Zr 16.859284644351273 15.498540135050357 12.843361314631343
Zr 12.660496302903468 17.385744090543685 10.862623626108695
Zr 19.168890757298392 13.522347091860262 12.454316655719232
Zr 16.2597286726577 12.619204338576813 8.556747263927946
Zr 18.706733244332415 11.953088785926255 10.123866651816005
Zr 13.510649930542485 16.609567061877765 8.263924199790138
Zr 17.76987090065114 14.83643791186102 10.111319348944658
Zr 15.749054253685333 17.443825829162908 10.186856110021191
Zr 16.008239898108577 15.456759463698983 7.88781826982907
