51
Energy = -378.32432995 eV
Zr 16.951337196591325 15.108327109105488 8.813446685822008
Zr 14.584298679508262 16.522744850877007 7.852302551614775
Zr 15.144050613354374 13.728791467831552 7.145068302346988
Zr 15.415822438163655 17.135263664574854 10.590141219155988
Zr 16.959706674624005 14.804876611375457 11.716936128448411
Zr 16.10896182307352 12.080819877574854 9.866709307468216
Zr 18.100521669742044 11.901579152815323 12.142738672567207
Zr 12.236966660811213 14.725129887355797 7.583427969719845
Zr 14.485331873819531 9.488201922191378 9.388842739962788
Zr 14.31977835947436 14.321795311007136 9.899015719729203
Zr 15.825019716272626 9.766447129092985 12.028333414842383
Zr 12.479530636526428 16.897707049416884 9.926361387027727
Zr 13.139046087904202 11.921451283845595 8.24397995839259
Zr 17.907986507458013 13.65889622449685 14.410731050653494
Zr 15.592999581830988 15.611440382290334 14.742235377448718
Zr 15.463721607588981 12.82076834656369 12.85666566582719
Zr 16.907932258013535 10.779896519485305 14.735200119417408
Zr 13.294643684496373 17.90120356682261 12.796545639952852
Zr 13.310485444167453 11.512436235245108 11.244749721106057
Zr 11.388570446291615 13.727406389183233 10.488071661807092
Zr 12.926759889706826 8.534204339031486 11.740698605805658
Zr 11.487052937144334 9.55849044891002 9.213225748515402
Zr 10.192957405629308 12.149397765535063 8.10737112349142
Zr 9.650940247210828 15.316497634941749 9.278997604330641
Zr 13.733534611802567 15.272432972526488 12.448701223689465
Zr 8.056738530754723 12.969614066739178 9.648512884889703
Zr 8.38866091786022 9.996317847953177 9.735242366059097
Zr 16.42035646778837 13.169809715279836 16.798971391202755
Zr 14.007379046412774 13.119898354699716 15.415946317919738
Zr 10.135442501260677 11.196911056398681 11.721787858883914
Zr 11.64423953172816 13.359334337355826 13.31222442751498
Zr 10.796626237423707 16.309841224471366 12.344382930395877
Zr 10.129173909704159 8.160540290107106 11.363434612655379
Zr 13.665797256376683 10.592069749481778 14.087965457516887
Zr 15.271389599813963 10.384028872060425 16.99781082180325
Zr 14.794400665597854 8.395330497607008 14.823939237372942
Zr 12.357274986784256 15.780351867277435 15.117414545536624
Zr 8.782449619349812 14.206611699305682 12.216131209649022
Zr 14.229740099250922 15.129096839562338 17.452127183845707
Zr 7.059201572046577 11.72527200708214 11.841453582848239
Zr 10.859366591608113 9.436743492996465 14.132792685602643
Zr 8.093549644646549 9.328333470536188 12.835915532000907
Zr 11.198452963771976 12.087966861250663 15.800457301070832
Zr 13.576133593103767 12.299825890382886 18.332831674761053
Zr 9.558505329977034 14.781154897340542 15.231501612954125
Zr 12.476509801600388 9.610811819865036 16.916230861711885
Zr 8.556406658098107 11.928841102011836 14.407404046612474
Zr 11.391259438574421 14.376329182426103 17.782203499996154
Zr 9.363905892126109 10.006417151491645 16.665934537144107
Zr 10.864366662433238 11.529013018900194 18.679758785186962
Zr 8.773313855708569 12.866835253688064 17.269288701323514
