53
Energy = -393.90289435 eV
Zr 12.745573426365004 17.893918415865866 10.607282914976057
Zr 11.761479742027003 14.196075446314556 7.497507532255855
Zr 12.07564426180291 11.224999555149513 16.070562551403924
Zr 9.783763951404097 7.374482653008058 10.399163592940496
Zr 8.471899645978644 14.543659267163454 12.081867247241892
Zr 14.574829753302486 9.957454803390753 16.14472854979995
Zr 14.193778977100168 12.40888809180066 18.0592821232477
Zr 12.145934432304427 7.18229206815056 11.980626518186817
Zr 11.38950632954464 13.26905109070686 18.010646727090155
Zr 10.58717231958152 15.753096965189867 17.052729949367073
Zr 12.312240770787517 14.207388480819564 15.250623884399655
Zr 16.14465769141263 14.937917221621985 12.624382264700277
Zr 9.542267990037653 13.285471998152735 15.593443668478093
Zr 7.834957599513635 9.290405882969617 10.910520526357821
Zr 16.167249233248207 12.171464657650631 9.770118053507652
Zr 14.655138891988198 7.461309472579466 10.5028715551241
Zr 9.668809078289293 17.296227341029084 11.02983559935733
Zr 13.393156665366641 10.247061392049766 10.395727649315182
Zr 14.49867621324859 18.230060131129417 13.11165013899028
Zr 13.932279793079053 15.22578750476253 9.648377695975404
Zr 9.522020321044227 12.392431129462045 7.579165979492721
Zr 11.972898856245545 8.397131748854202 14.721751128121632
Zr 9.25209937988884 7.908608076696808 13.24099240411867
Zr 12.294463650474098 7.883502973084589 8.942518500905367
Zr 14.713292279472938 7.983560405245399 13.374871656082156
Zr 13.898340440812502 13.066985822073963 11.74746591609908
Zr 9.753316501029945 10.181303959793825 15.098015967856204
Zr 10.654987036681835 9.955519310641902 11.899052456988034
Zr 11.47393102223576 12.447464361305 9.853242909702923
Zr 15.404358494459943 16.157982775734467 15.321396724027414
Zr 17.709599982412595 14.05701398657304 15.016824512448778
Zr 10.842990735201017 12.682418245744353 13.096019258378233
Zr 16.902497726660847 12.286062271667081 12.561430590019697
Zr 16.340259215150823 9.64845193006612 11.306626565572415
Zr 13.616190194756488 10.685476487392359 13.375703693478105
Zr 14.967930326510727 12.977115802975865 14.970267677050586
Zr 12.240321921551264 10.726966241261032 7.4679617536466445
Zr 11.288104387942203 15.08342566948893 11.18831309340582
Zr 16.90452244536551 11.688167885140498 16.922615119939845
Zr 11.553550038130956 18.35558437621193 13.067617565152952
Zr 14.16082925805812 12.561068319630833 8.135006187943784
Zr 13.559949347327018 15.334953235320752 17.759750754715316
Zr 13.401823410460828 15.763461795217152 12.930523901692988
Zr 16.58711645963424 10.22918676598995 14.30452976302671
Zr 8.588741143589766 12.121621889186741 10.486755445734326
Zr 9.915565493946193 9.796601240123469 8.784521082850777
Zr 11.319100902923543 16.68356370186537 8.577560737526058
Zr 8.064574653852238 11.033485510603319 13.190140616959528
Zr 12.65654476224364 17.284313839635427 15.494168757503255
Zr 10.088785729235221 15.989281210306393 14.0430445376621
Zr 9.100885531208624 14.847916565914254 9.052901598921254
Zr 16.272395231558267 14.32824367717404 17.452732784741396
Zr 15.11601485860264 9.514600402403325 8.395059801598503
