54
Energy = -401.99983839 eV
Zr 18.728968211731427 16.350263776405527 11.966754542511195
Zr 18.383056887605132 13.936893458848703 13.479173108826192
Zr 18.00800926866615 16.62742472196712 14.836748024466448
Zr 17.489701443973757 14.147302200096147 16.35216263034806
Zr 16.97880872194657 11.503161909096074 15.105950445344664
Zr 17.48118206992209 18.726812669448403 12.780300464202544
Zr 17.16125906789009 14.293414677011285 10.612438686009245
Zr 16.5232980569686 11.617819272769335 12.089456096550242
Zr 15.927257428105616 9.02493577313291 13.481081999869426
Zr 16.564695830854145 17.446721384903114 10.220555558519536
Zr 15.764607610120771 16.31142661045688 12.7064769288852
Zr 15.265900690742438 9.044471176921427 9.987298372377262
Zr 15.484535914241228 13.89131908036066 14.246345413367846
Zr 14.956701350437958 9.705695193608536 16.43836549804592
Zr 15.545306442296114 18.535360384827822 14.908050371887464
Zr 15.183891652921611 16.052014211463316 16.30809286119584
Zr 14.765193726923197 12.737571632570308 16.932439152145786
Zr 14.046694817905353 7.2785925844791 12.123019046137381
Zr 14.966670288814361 15.28306060712652 9.051942328155562
Zr 14.908707876263394 12.277180320782746 9.50919974226002
Zr 14.074361182416526 11.359834977241087 14.249839339559486
Zr 14.646427962816375 19.064309874227572 12.199491627946514
Zr 14.080883914468476 13.881503672556606 11.684042818725509
Zr 13.387209376408888 7.99322520996114 14.755304715951503
Zr 13.698970261298113 10.370013388011087 11.60991609856563
Zr 13.396303806605681 15.121256100046635 18.477235774341
Zr 13.173605234619 16.86052405169297 13.9050081097382
Zr 13.259496077469782 17.08013461668316 10.65657348104925
Zr 11.346261403830889 15.156809865892727 12.189897743961847
Zr 11.576272037065038 12.23421177988703 10.927915406284205
Zr 12.912367725326204 10.546963468784133 8.631255533607272
Zr 10.604531425875168 8.128628303624858 15.528290031360413
Zr 11.92737878619865 10.726898334986073 16.109937462162907
Zr 11.786389244278604 12.78588337865516 18.173844399992515
Zr 12.603552826409087 14.392864811532972 15.643458894027669
Zr 12.222009686596188 7.944602650100213 10.05009897623993
Zr 11.186098211571048 9.567706819329713 12.860260649739846
Zr 12.423159165771107 17.305666326910643 16.671231992613414
Zr 10.310289000415983 16.726946560891953 9.919174910350527
Zr 11.206412023070492 6.695950529114952 12.900613013069844
Zr 9.077943696737224 10.674799023518535 14.98104546176047
Zr 12.231872284059646 14.36443332206038 9.288531391475773
Zr 10.914361781633964 18.07831623375944 12.484801537863243
Zr 10.613394963872684 15.390937603481042 17.775562956920346
Zr 11.11380015300148 12.50092893865856 13.804169324775996
Zr 10.29473012632344 10.159106504533966 9.493804069744973
Zr 9.475897054364545 13.384917930288397 16.260116295130498
Zr 8.61830561617182 8.239797025905787 13.51020307057986
Zr 9.365690102147484 8.026194954688311 10.915459849437143
Zr 10.065585352771983 16.110069273775494 14.86793979185418
Zr 8.758064768523322 11.023715088833052 11.984329876957519
Zr 8.608075433571573 16.318513689579653 12.184593829158485
Zr 9.14458369030148 13.956804900732424 10.475427706378694
Zr 8.435902546429075 13.788558616075218 13.447838791879638
