54
Energy = -400.94260649 eV
Zr 18.629475756418387 13.799379989482187 16.520766781245463
Zr 19.389156477766345 14.469863262438798 13.900489542782742
Zr 18.349681407189525 11.617554643380204 14.355161774584776
Zr 17.68765781594626 16.410453519186778 15.528746634512778
Zr 16.730883520232755 11.686749180513283 16.993899570110212
Zr 15.93424127487834 14.572624086486101 17.556477900511855
Zr 18.024547977091235 9.88457447537074 11.948007922269811
Zr 16.650692063204218 9.130200243202353 14.372126200115261
Zr 18.031155943982984 13.036979678888224 11.724517096883782
Zr 16.51779738999169 14.025358442938018 14.399434142717645
Zr 17.526488033295454 15.997061699008222 12.330825290031619
Zr 15.142871121654306 17.181150525548276 16.641470859686102
Zr 14.655616404798657 9.531553096932075 16.8352947624675
Zr 15.507279648216812 11.46791238080293 12.300308772019113
Zr 14.680851781081492 11.591082699331524 14.928344445713263
Zr 13.757487436222078 12.451837290708504 17.569818894850687
Zr 15.380759260294598 17.361600433059134 13.701040421916124
Zr 16.755035206163697 10.900637598382646 9.6919371847906
Zr 13.69567708472912 14.934503377579937 15.072943310428863
Zr 16.083071408919878 13.833897646452588 9.690828577852937
Zr 13.946424321856565 8.553581738422332 14.22838692755514
Zr 12.84856114191317 15.610012537227634 17.624979091354277
Zr 14.841948217641631 14.576465818209451 12.08557568571133
Zr 15.251670094137408 8.789402996516156 11.412982520227066
Zr 12.803834910332892 17.75280134324011 15.25016928447179
Zr 12.550972075626495 12.775814948542996 13.317823717764403
Zr 11.983870018784705 10.284623494251193 15.654976318270075
Zr 12.43112955117627 9.902602581940757 12.32320834290765
Zr 12.650705570130754 16.493346156105705 12.495602717305585
Zr 13.839622289248988 11.2427447306505 9.757785320446642
Zr 10.667542567241059 15.827364817277108 15.297552821708962
Zr 9.136417136901773 8.845762956187802 14.302667700087616
Zr 11.233779283980953 13.131789245821698 16.199001455655853
Zr 9.851554795871506 11.466552534389978 13.646901040352306
Zr 14.025320700811111 13.518654322666329 7.822068034621696
Zr 9.17449193584819 10.928797331943692 16.475982717375683
Zr 13.999372293358784 16.153150697205078 9.56199440986732
Zr 11.680528813643617 9.415115173111554 9.32851396193916
Zr 12.428722354155889 13.89073072762892 10.39455291339195
Zr 10.389722225438799 11.696294493408956 10.927782559758997
Zr 9.866511291827642 8.628628146237252 11.300283355895852
Zr 10.17760780887272 14.5651560389645 12.59032999216589
Zr 9.960043791894716 17.545944703278614 12.85040006576703
Zr 11.338415337377596 12.116108862602493 7.989277431935852
Zr 7.839533910718428 15.908064933712447 13.854230747473276
Zr 7.0738611922793675 11.018332978059323 14.5176803246233
Zr 7.607727639993254 10.08386412785917 11.929864971556462
Zr 8.306336111949294 13.57193480237497 15.391471404925134
Zr 11.69034637855453 15.110303703004238 7.825733532798798
Zr 10.761350932151876 16.664492936701752 10.048130733831046
Zr 7.648508065335978 13.178706324505933 12.266203902451222
Zr 8.876219173455517 10.39857852523787 9.091224441756435
Zr 8.083872740680773 16.06639683415701 11.052423111949272
Zr 9.368181208611473 14.055258968076705 9.330005167398435
