55
Energy = -409.950039 eV
Zr 7.185713051957082 10.184010780711134 9.135837648758317
Zr 16.7879794747444 13.317709314390568 10.902317715801727
Zr 14.062916260321597 8.960825071974815 13.944589955809114
Zr 9.815874694400854 6.549014892323692 11.025571416410417
Zr 14.275919971986026 13.073617222675198 13.607102828276531
Zr 9.97528146250866 9.340860576553743 16.188488960868966
Zr 12.415539138255129 11.57675402015746 8.692984096831172
Zr 11.215949508339731 14.13129977144957 15.999710542702703
Zr 14.301086170678847 8.342935045462276 11.014631340906623
Zr 9.571134634933266 11.193900383948117 10.657674220908689
Zr 9.532627409718481 11.111121209253449 7.563721131983085
Zr 10.877303394367752 9.248168925270797 13.096931014400017
Zr 6.772171064558987 12.81815105221502 14.228551878163632
Zr 6.65645102935108 11.390121386966426 11.758443466917647
Zr 7.595159396743094 9.879175017687697 14.406333113604251
Zr 11.965823994728508 16.238799512484203 9.050922347344773
Zr 8.908355689372069 15.825977591837496 9.122651957552351
Zr 15.907452154027109 13.362289759985972 8.143512464832112
Zr 10.14913502952979 16.53978506863545 11.579161885292487
Zr 12.283500156921068 6.620765420248901 12.437833235916578
Zr 13.847385550942015 13.500778853965087 10.500751976012952
Zr 12.009047617756151 7.450109890554246 15.295790622330628
Zr 9.483037995609907 7.020664686720944 13.909202784932274
Zr 11.405267141162286 13.961810152794301 12.862999977555512
Zr 15.921478659773369 10.708582311221134 12.382500012605325
Zr 15.548311994710712 10.823264747636104 9.505556026236938
Zr 8.836854847396518 14.847120664165102 14.533460890978501
Zr 12.070988245397064 11.33277101891858 14.875506277787812
Zr 12.722096572248004 11.12780331264976 11.772579816181272
Zr 13.17438527034178 9.646067728405438 16.880829945158556
Zr 8.772985340467493 12.07280240803247 16.30099990146254
Zr 9.382725783451454 12.00455876701274 13.423250949361783
Zr 17.36410721970848 12.865303397145178 13.659448601470013
Zr 15.939342946802457 15.435030150795066 12.824157078854597
Zr 15.151028287645241 15.773259369187112 9.608316864589044
Zr 13.78055591310828 12.810415423239073 16.909104556641324
Zr 13.725615242156644 15.737415832369743 14.939748635854368
Zr 13.123549359892873 16.203297223739753 11.925749614142932
Zr 10.368860410487198 14.24733080515882 7.135010617972025
Zr 11.504016472516618 9.08361957365983 10.032820957645807
Zr 11.191873662235349 16.583649936256165 14.267943009186345
Zr 11.75122453509875 9.199011748281059 6.938341516595603
Zr 8.051826427206578 8.734173527864904 11.59961301919107
Zr 15.631791460422411 11.134773807553461 15.46443335050064
Zr 14.174451407518328 8.730108310353444 8.171114134628322
Zr 13.341786501309727 14.287668943274609 7.292479073086223
Zr 11.260819968679543 11.590890339647121 17.72306544182354
Zr 11.782064641146318 12.041837059428948 5.837432851373771
Zr 10.661734119982034 13.772192341990309 10.024695949053033
Zr 16.075275797988283 14.163837063514377 15.65375152699054
Zr 14.403285046000317 11.3145325084752 6.644187802312639
Zr 8.063081387972101 14.19286822793199 11.686981789198443
Zr 9.077536233789598 8.184627962972646 8.680507518721027
Zr 12.306943189975785 6.6571489804654265 9.295492074062597
Zr 7.855581061656847 13.071680900387824 8.901493612220689
