6
Energy = -36.44357682 eV
Zr 11.218672703728128 9.439944187424782 8.399560461494186
Zr 12.11686575398959 10.899349211316391 10.593007845897057
Zr 10.134340205183305 8.927552445800524 11.020630061603462
Zr 9.455439040034916 11.30373316844101 9.708103583841352
Zr 8.715516595503166 8.787785124475006 8.513500490779732
Zr 7.410814379904458 9.686173907266744 10.80563173120956
