6
Energy = -36.43954869 eV
Zr 6.47788215711034 8.081946311742794 9.507947419020702
Zr 10.070340010913778 8.465827212388525 7.040318811511674
Zr 7.3715873801340015 9.59219108294508 7.165613551886294
Zr 8.920495210229664 9.69338397493446 9.435491748178736
Zr 9.176161830025471 6.955994478533588 9.38294473223676
Zr 7.62788741158674 6.8550109543891 7.112037722232046
