6
Energy = -36.40468932 eV
Zr 10.940688743476215 8.245791202137866 10.4718886671517
Zr 8.522053905297312 9.933248065152156 10.41526680249511
Zr 9.043031018393496 11.635475946381936 8.214970157741217
Zr 11.011520449428552 11.182364210270036 10.196416797087025
Zr 10.254038719917903 9.212866119282442 8.148525682098109
Zr 10.323435541028447 9.81597988653454 12.583181862487791
