6
Energy = -36.45931298 eV
Zr 13.271786840888272 13.82758160229605 10.990263589252026
Zr 11.471572157421893 12.726743132405087 12.876719360642548
Zr 12.836520274203322 11.036061437029636 11.105978171757707
Zr 9.978772296827824 10.775370411936748 11.370943271176904
Zr 11.644098012927762 9.954079692037059 13.446491136559105
Zr 10.842387078653706 12.836745968254435 10.067464444470518
