6
Energy = -36.38489481 eV
Zr 10.796505680988103 11.015222030749221 8.747416794774498
Zr 8.939176568182674 9.50413365073382 7.657267769499685
Zr 11.132674573167362 10.576549301630411 11.447153235849305
Zr 7.708578887990753 7.8100456293709195 9.345513934379078
Zr 10.454231472291301 8.338054728234347 9.885529276243734
Zr 8.522156864129721 10.287130622451459 10.455852105529914
