6
Energy = -36.39791453 eV
Zr 6.947273233251387 8.409235543976875 10.422852265236793
Zr 9.58961209176772 7.731301393992428 9.673321215390722
Zr 8.083489581195163 9.448604534136024 8.058712586780466
Zr 10.542876151489141 8.418387165907824 7.098418793972918
Zr 10.727472863078388 10.35586966224841 8.97322989260607
Zr 8.819941017045004 10.353324973572695 10.759861149962417
