7
Energy = -43.15668301 eV
Zr 11.04408858443964 9.536878264932149 11.22181517833792
Zr 8.747171109207995 10.604787960404128 12.313373135610469
Zr 10.543553097255165 7.592995948773145 8.948263066599337
Zr 11.347098436226208 10.097556904113956 8.458876797280107
Zr 8.42325280101779 8.94157118861741 10.10954914176991
Zr 9.336815151756175 11.660774751308836 9.827733857243459
Zr 8.861162637742765 9.855971519365417 7.47980673298989
