7
Energy = -43.05860881 eV
Zr 11.884250477715497 9.610246128734763 9.836675197196529
Zr 9.870342251119476 7.914271164143112 10.191604049224635
Zr 11.327460680226201 12.138666172353807 9.718103269265026
Zr 9.292394256912715 10.462540433911657 8.557705442005512
Zr 9.574517539914488 10.556460969660694 11.362397575013446
Zr 7.337240179056322 9.13538185857974 10.130239354752705
Zr 8.411911291774812 7.812777815675371 7.894694107448032
