7
Energy = -42.32363703 eV
Zr 6.162588628512437 7.726157424897359 7.723742262108854
Zr 7.855491457144581 9.622191550172724 6.392101966122382
Zr 7.698511526809437 5.43748885421309 8.235801912470734
Zr 9.558368716471488 7.268125233456047 7.15336723920945
Zr 7.1137449150109635 9.874217190578198 9.345886050286499
Zr 9.860315633643372 9.702366004156865 8.45668897288289
Zr 8.872739622407604 7.4912144028400105 9.814172096918961
