7
Energy = -44.27581402 eV
Zr 13.32154242334041 12.913952057793706 13.193738201828658
Zr 13.901134334126985 11.913461601150129 10.654241509528893
Zr 12.263326604903332 10.324796635308566 12.40994803747531
Zr 11.277566398569077 13.013792281243889 11.138997675067884
Zr 11.67914105515281 10.604520106505287 9.582877838955827
Zr 10.699623575889387 12.241108357113845 13.826995217984779
Zr 9.60880281849353 10.735599391617667 11.469249600202382
