7
Energy = -44.28522128 eV
Zr 10.208901575208568 12.751297248171793 13.168398271720628
Zr 13.733708520010918 11.447103512967702 10.455826911601836
Zr 12.108404366033584 10.689395204387337 12.73573183146403
Zr 9.417571143220918 10.492943677977891 11.68483926977339
Zr 13.021075972265272 13.375945798726233 12.324641032894666
Zr 11.56892217381256 9.74345851785847 10.062099095920475
Zr 11.03575205317407 12.548449801418485 10.452713620828355
