7
Energy = -40.24239337 eV
Zr 9.697407376148773 11.068408832579953 7.8158877250713426
Zr 8.281960733164953 11.089205017745243 10.251192462204505
Zr 10.975338214152389 12.27477576224205 10.077804468367273
Zr 11.983414696071433 9.862116458213393 9.000619419528237
Zr 10.555794292872232 9.787379088208318 11.544331197925883
Zr 9.261917639114458 8.639229627012496 9.174416105815324
Zr 11.296516778512151 9.225106094070401 14.052288052553056
