7
Energy = -44.27695447 eV
Zr 12.868590974600039 13.503127397167257 14.647085725722334
Zr 12.968980348825433 14.758333324306028 12.165438962525027
Zr 11.90839153588096 10.424516889803666 11.334352100564443
Zr 10.92802680403766 12.779713983200567 12.592598696328459
Zr 12.412209789073152 12.92565354080615 10.105571903157943
Zr 13.977989299792199 12.066956265068832 12.382193748527152
Zr 12.200547874249548 10.85535680967449 14.282385191239122
