7
Energy = -42.31632397 eV
Zr 9.380398223635332 9.084732760301222 5.843605217846494
Zr 8.491685938951314 6.751775111423194 6.760934434198574
Zr 7.168444043668314 9.647642490020964 7.206660178303884
Zr 9.445621211312808 8.673870737735385 8.713922494094366
Zr 8.819001043241846 5.701217307548821 9.152173947547638
Zr 7.0209296420771645 7.403634627913819 9.719128038572807
Zr 6.872874411218962 9.93608147916259 9.802530203542243
