7
Energy = -39.54998499 eV
Zr 10.067738691865815 7.900312914460369 11.139483394052972
Zr 8.6945013 10.283138718420265 11.135971190529062
Zr 7.321263908134313 7.900312914460369 11.139483394052972
Zr 7.321263908134313 9.488689685539631 6.249519205947031
Zr 8.6945013 8.6945013 8.6945013
Zr 10.067738691865815 9.488689685539631 6.249519205947031
Zr 8.6945013 7.105863881579731 6.2530314094709425
