7
Energy = -44.42946527 eV
Zr 8.16238826746745 10.144896269964455 7.659464017890845
Zr 9.013005314074542 11.825159771770357 9.730409367015435
Zr 10.857718144594125 9.892160755380344 8.648497870971715
Zr 9.197474434656217 7.585379605537068 8.13301578529531
Zr 10.5840000379348 10.304919120830448 11.489112638903059
Zr 8.214199154871224 9.126876953522999 10.360078930270408
Zr 10.711911868832411 7.683982110453398 10.490184276549234
