8
Energy = -51.05137631 eV
Zr 10.909159649576237 13.233844695090843 10.660784382209794
Zr 11.14430449661571 12.621467308855761 13.566825170838609
Zr 13.105222372973785 14.11882499763494 12.309466833840839
Zr 13.872338804202077 11.480962425482916 13.186762904994346
Zr 13.979633629221702 12.617263729045163 10.259894960416851
Zr 12.18095835820058 10.68490478413398 11.016056657669242
Zr 9.540543693635927 11.03409265947036 11.86936977628521
Zr 11.566353892063466 9.834910910963336 13.60698294976786
