8
Energy = -51.03721263 eV
Zr 10.77474151025661 9.063758522723058 8.178521157086196
Zr 10.422812851276085 10.170780631371967 10.921271953519716
Zr 8.209473925063525 7.553863603154933 8.344032129835755
Zr 7.907325081408807 10.133026853695705 9.55005484865767
Zr 8.038951097380487 8.14478818478135 11.43388707128702
Zr 9.975526496839548 11.741994898287587 8.582544313033944
Zr 10.331075012242662 7.35495958178425 10.293549588606353
Zr 8.46884202553256 9.965575724201273 6.824886937973484
