8
Energy = -50.69323349 eV
Zr 12.913219323969539 10.895315287068192 11.431091428863606
Zr 11.70378206629991 8.725347264790608 12.11091482535007
Zr 9.970322776156607 11.254274518673501 11.564033387879286
Zr 11.710202583528378 12.647122915473645 9.645002747097696
Zr 9.161228847124889 8.408421467742981 11.438068620360358
Zr 10.99695444012556 9.690065921577713 9.389319415252418
Zr 9.380255593137175 12.077810664269432 8.62960691522679
Zr 7.99877861640158 10.09993055637062 9.651616306465352
