8
Energy = -51.02976407 eV
Zr 12.727180532904473 10.52993807576585 12.285808317868751
Zr 12.791009195836804 12.115061404534936 9.89610752668906
Zr 14.511519290860658 12.676387851587691 12.112011584884096
Zr 10.606922678200078 9.959573490464908 10.624902422742357
Zr 10.26648831784743 11.58029976455182 13.308556111104014
Zr 12.788165516979053 12.313105901405581 14.441400596340515
Zr 11.923227517953544 13.794697617439788 12.200262303006877
Zr 10.025447834049707 12.571847756853819 10.607673577491806
