8
Energy = -46.31721205 eV
Zr 13.327214494954251 10.492801425486817 10.624546326070565
Zr 9.79932318611343 8.88125741228512 12.792608992807146
Zr 10.438229273329412 10.472781754991157 10.449255790755082
Zr 9.9872635744651 12.354652161746465 8.338113643159362
Zr 12.346830467552516 11.51058653126459 8.523061314872711
Zr 7.950630719402506 11.562654385223553 9.636324515498826
Zr 7.855599242458037 9.895699635818541 11.553156803138782
Zr 12.115295122125088 8.553572853816714 11.810474513114562
