9
Energy = -57.57786449 eV
Zr 11.606679327505429 9.494658434912473 7.32092653603788
Zr 9.922766878267051 7.5003234825161975 7.842151300898109
Zr 11.450743768264177 11.600260005321788 8.94552952042586
Zr 10.905089603996279 8.98447428463691 10.192109636300115
Zr 8.906465286478467 10.208604500689791 8.420783215521935
Zr 9.705373285614716 11.692345433690194 10.970461486515108
Zr 8.178332027654578 7.621968779707668 9.86662268738805
Zr 8.931294474473955 9.158542700104247 12.275248182135345
Zr 7.116185096266667 10.271943417697095 10.666801220338499
