9
Energy = -57.64109561 eV
Zr 11.416629532836932 7.672778356499608 10.202188639028217
Zr 10.462740244533709 9.538449493436469 8.079872155225221
Zr 11.056082024058606 10.193832339674847 11.05257341572298
Zr 9.860425947450665 6.646415663375928 8.341429293874697
Zr 9.711691238551595 11.965668557466032 9.403422565703567
Zr 7.916175744844386 8.17640292410165 7.400491678597562
Zr 8.639201825254391 8.630296310757402 10.269952486148691
Zr 7.433128187409755 10.595210061340138 8.4718293131418
Zr 8.098777741899951 11.175601671316635 11.372891077468495
