9
Energy = -57.81128495 eV
Zr 12.026995069610066 10.38878600024427 7.887540875604571
Zr 9.722936145319702 11.709641529663545 8.812053000428056
Zr 11.686096784468187 10.776996618899291 10.78578870953186
Zr 10.81399875756943 8.346222050956275 9.402989302891292
Zr 10.810582200113963 10.992478353384888 13.520958633660996
Zr 9.36704372200274 9.402231365189742 7.22686818841309
Zr 8.954527369186453 11.599045135462948 11.582599232325038
Zr 8.162952520131736 9.461505715119854 9.770734564774028
Zr 9.84723974571816 8.85856060820484 12.070114402245137
