9
Energy = -56.82575298 eV
Zr 6.9625695567821895 8.677142727509542 8.46151779460982
Zr 9.968211653929805 9.741391522237633 10.535362384768597
Zr 8.07401619069724 7.875793026303395 11.136992664010195
Zr 8.175097504466596 10.503091718488534 6.670376203786648
Zr 9.429394198019612 8.018449439765911 7.184021090683164
Zr 10.636582435234354 10.637336557295306 8.047705858228184
Zr 10.630548656123642 7.196013857103655 9.813296208710995
Zr 8.077304024753031 11.322426905788719 9.370369756966591
Zr 8.169077116112643 6.151155089984001 8.9031597021167
