9
Energy = -57.62928548 eV
Zr 10.05927241631092 10.792674854084089 12.538454833599351
Zr 10.388821078616296 13.542309528896727 12.846911871755003
Zr 13.26939570889568 11.784562575053764 12.810539609337784
Zr 12.495558237702374 9.332688434934305 12.309186756061411
Zr 11.727460790270937 13.582851801657883 10.402277950857503
Zr 11.451455564629477 10.827036638307728 10.127674628582087
Zr 14.062056998782152 11.953440833240581 10.318274598413305
Zr 11.525053732102496 11.765194024856012 14.76546733794527
Zr 13.098554126637222 14.400395235815822 12.755162372411089
