9
Energy = -56.93905161 eV
Zr 9.204174155613451 10.636951137385589 8.692281580747906
Zr 11.579907377808242 9.128364088379026 7.822267424970835
Zr 7.937474867559741 8.420919518771724 7.746082603877478
Zr 11.844115426539096 11.747197302535067 8.364135897763083
Zr 10.062303253751974 7.662220591101839 9.573552015244928
Zr 7.079711463025254 6.74056133358965 9.82444792312863
Zr 5.674280833920863 9.09223172416321 9.30157265935131
Zr 8.047366360500261 9.20640829448312 10.837133980842118
Zr 11.273622649187692 10.068102397496913 10.541482301980144
