9
Energy = -57.60837956 eV
Zr 15.827333269691518 11.379680959883432 12.987909200783157
Zr 13.588848319137133 11.58432975364684 14.545502107037168
Zr 10.715076625471028 10.911816455514879 12.768583845143251
Zr 13.384402935284763 10.836110961522612 11.772945790182582
Zr 14.146264340000357 13.629025890243973 12.414114221182578
Zr 11.821692354883643 12.673328055428737 10.612666774666451
Zr 11.617444243346482 13.379547207224878 13.792726158090222
Zr 9.449683247533187 13.326558657378296 12.007448434499834
Zr 11.622592979370042 15.213666886240775 11.713159843624835
