9
Energy = -56.70903794 eV
Zr 8.841652758382047 11.02739279335215 8.083797734770828
Zr 11.298299535107429 9.688761169893011 8.81296325849622
Zr 8.650057057334774 8.202609182922577 8.916639783339209
Zr 10.998792716031199 7.408169800822928 10.30673969658632
Zr 9.507797798212366 13.482931453943925 8.568156539208978
Zr 9.021829568537695 7.733692735836195 12.04576961803377
Zr 8.903368042362876 10.281368532539917 10.837953106279702
Zr 10.978770417538081 12.16808437271836 10.254242683148007
Zr 11.504663544380128 9.745569149682769 11.84656628197031
