13
Energy = -48.41482925 eV
Pd 7.62044389087991 8.141458557952763 6.501182672993531
Pd 7.968827998502813 8.134077769463417 9.029181353936501
Pd 8.343127621367426 8.1232457403844 11.58663667134236
Pd 10.068434840460972 8.160964054052497 7.3710181252429186
Pd 10.482497001656379 8.166224605494694 10.004915209681718
Pd 10.751458954908205 8.149128363474961 12.551629904265322
Pd 7.603835409617415 10.698496251333381 6.50645693402581
Pd 7.952380698225852 10.701602577011613 9.034382136310045
Pd 8.32724738594912 10.70669789414008 11.59182599826181
Pd 10.052211064991667 10.706238988396581 7.376142872818413
Pd 10.46685216333469 10.695737721966514 10.009534928013599
Pd 10.735776002152177 10.707182925018406 12.556473712118724
Pd 12.162008014127645 9.444045643660045 8.415720388639507
