12
Energy = -44.9423997 eV
Pd 9.745749710965109 9.01269185905263 6.122316897392247
Pd 12.198891298332727 8.654990712504286 7.227102220504834
Pd 10.123950182535669 7.222713413981149 7.974684751584488
Pd 8.368090887628265 11.393694089404953 9.352348918957786
Pd 10.443013465282458 10.198952840792748 8.363952002057014
Pd 7.84435326770348 9.233228582223687 7.913281366111482
Pd 9.057517641417805 8.36079939118987 10.064154958406725
Pd 6.787341705249954 9.583456692572062 10.439759463981567
Pd 11.695027676714494 8.435580257813363 9.867187355768326
Pd 7.987231857721906 11.467878336808761 11.929436274217002
Pd 10.293656630110451 10.439108382522793 11.051614750358741
Pd 8.493446058636167 8.972602388200599 12.520336447764942
