18
Energy = -71.98342295 eV
Pd 10.86609293189621 9.978533788619965 12.242569713889134
Pd 8.391908999664944 8.969284436160166 12.636268795746107
Pd 8.838087482614412 11.56472098332661 12.8954397862979
Pd 11.265176657669068 12.562583856295946 12.787600681519155
Pd 10.03892213603743 7.870302085864028 10.79117108420392
Pd 8.030752459767898 10.525273333291896 10.542797238358212
Pd 9.826552563841686 12.593482021564913 10.576671013314504
Pd 12.499659423051511 11.494395493155324 10.69353489502995
Pd 12.599220447882614 8.712257005049777 10.616482511395484
Pd 10.437364514042155 10.218083416095233 9.623992503605749
Pd 10.465895058279155 10.360571479791009 6.883546854568275
Pd 8.481360698070787 9.15460765725294 8.21497237820304
Pd 11.167178791929173 8.02688279355572 8.3228157419878
Pd 8.630459442278015 11.861433238343835 8.246584137084916
Pd 11.285835751997686 12.49234512044128 8.334056522808606
Pd 12.78453943828668 10.188868022538907 8.357442590352832
Pd 7.419088964766151 7.910677996580317 10.403193915375791
Pd 8.947352118927151 6.614554500775361 8.699204697578644
