16
Energy = -62.18851304 eV
Pd 10.634199271952882 11.124989211662594 11.508628038472413
Pd 9.65628163944731 9.154011562575796 13.044292230979437
Pd 10.49470242451 13.710964665565992 11.18968328279751
Pd 7.190229558428671 7.603683802143513 8.975765140678556
Pd 9.156126961633289 8.363648508700342 10.516319868626168
Pd 12.698879901559858 10.311770112433528 9.595279835281877
Pd 8.044845237259668 10.549263172729795 11.477407923845307
Pd 12.84027330556547 12.453587791226239 11.110030044609099
Pd 9.529832601272316 6.334717072129428 8.925194584456769
Pd 7.566827826304326 10.192241479324986 8.903516360124485
Pd 11.641261236111701 8.682593131047062 11.383416726921574
Pd 8.744568231316103 12.409166182841167 9.723929847138368
Pd 11.489653115229467 8.081578757261655 8.816183544894544
Pd 11.372392213388709 12.670646597613773 8.914773991298507
Pd 9.150885156326387 8.473405551950272 7.4109682219188375
Pd 10.1694371128852 10.345430558915194 8.940509960029619
