10
Energy = -36.46478946 eV
Pd 10.59669024519191 9.86249456667356 8.133651688012328
Pd 10.42236093291103 11.671875750455339 9.970894722871847
Pd 10.280960510466398 7.705267917833695 6.628673000082848
Pd 9.873602677865676 7.469493530277074 9.135120268144556
Pd 9.153090499439893 9.510562731764537 10.610180420745811
Pd 8.16411383943344 11.213481742668048 8.822169709857734
Pd 8.219719985019529 9.074332389334824 7.253546433984364
Pd 7.984490932610153 7.114557557018009 10.926779742859296
Pd 7.582433368654002 6.6776623963195725 8.254441979950787
Pd 6.839267394012891 8.935291663694933 9.441975826178272
