12
Energy = -44.81251773 eV
Pd 10.294654 13.841967437951118 8.533388626029664
Pd 11.58131392847295 9.000756502060344 8.90937069562705
Pd 11.58131392847295 11.588551497939655 8.90937069562705
Pd 11.570696650688753 10.294654 11.262043732543816
Pd 10.294654 12.789033535546029 10.92399673167757
Pd 9.00799407152705 11.588551497939655 8.90937069562705
Pd 9.00799407152705 9.000756502060344 8.90937069562705
Pd 9.018611349311248 10.294654 11.262043732543816
Pd 10.294654 6.747340562048887 8.533388626029664
Pd 10.294654 9.007767803581967 13.229753469673726
Pd 10.294654 7.800274464453966 10.92399673167757
Pd 10.294654 11.581540196418029 13.229753469673726
