10
Energy = -36.75449752 eV
Pd 8.548766930063415 9.500121984404432 10.945280440244574
Pd 8.549066073653755 9.499952600137515 8.057910857138532
Pd 7.920915031637991 11.65852641029482 9.501536478118227
Pd 10.455754965482226 8.059804724811952 9.50139373964844
Pd 10.452816508679048 10.945887358171294 9.501209755971109
Pd 6.373145109921235 9.497606508612748 9.501628424157039
Pd 7.926657348178895 7.341211284416313 9.501700834786872
Pd 11.079121412783396 9.503821111278498 11.660110633174098
Pd 11.079255275193782 9.503399422524726 7.34315882638805
Pd 12.629976253791838 9.505143685962237 9.501544738528882
