13
Energy = -49.79770355 eV
Pd 10.2607065790367 8.201667619441094 9.992119120775966
Pd 8.404813758974328 11.678076115927793 7.558403317594427
Pd 6.252867501095379 10.090934188156151 7.247172841937773
Pd 10.482007503646512 10.01859844307307 7.980203116688387
Pd 9.721425585995847 7.533436042794175 7.462799383240333
Pd 8.62129482519655 9.527178795448725 6.06317588304265
Pd 7.953281164926208 6.831203846305426 9.687214910940872
Pd 5.888326452106661 5.718418425556277 8.467444382555252
Pd 5.72524867268964 8.277622174852478 9.208620260252959
Pd 10.261274613302248 5.63668219464647 9.213912149277865
Pd 8.124008498445082 9.399044751895303 8.944270924505759
Pd 7.051204701886741 7.576077747111936 6.9969934401067215
Pd 8.307025668073978 5.273306647586702 7.450775784724426
