14
Energy = -53.6369508 eV
Pd 14.081382003087343 10.334246 10.334246
Pd 8.99793817212336 10.334246 11.60135007905341
Pd 11.670553827876635 10.334246 11.60135007905341
Pd 10.334246 12.668725268204525 11.64514532717518
Pd 12.647289923065896 12.54890590622117 10.334246
Pd 10.334246 7.999766731795473 11.64514532717518
Pd 11.670553827876635 10.334246 9.067141920946588
Pd 8.99793817212336 10.334246 9.067141920946588
Pd 10.334246 12.668725268204525 9.023346672824822
Pd 10.334246 7.999766731795473 9.023346672824822
Pd 12.647289923065896 8.11958609377883 10.334246
Pd 8.021202076934108 8.11958609377883 10.334246
Pd 8.021202076934108 12.54890590622117 10.334246
Pd 6.587109996912656 10.334246 10.334246
