11
Energy = -40.34371184 eV
Pd 9.343931358826259 7.1102179629744695 8.459564852182181
Pd 11.485327689292571 8.570339515234618 8.291575746120822
Pd 9.149036449375366 9.175011579372894 6.808443793335265
Pd 11.346551545721365 10.568266417596991 6.607759926535348
Pd 10.096927023999543 8.586771363892819 10.564396999134075
Pd 10.174806365623029 9.154715896840798 13.09930969311039
Pd 9.980931142060452 10.72800163194036 8.82478641069007
Pd 7.854335860520433 9.173804390935981 9.17602575198789
Pd 10.133014607433298 11.177081590636059 11.430548607532668
Pd 7.913659699197509 9.49782732480506 11.847049677013219
Pd 7.850841689787246 11.604323510131549 10.241507500087232
