12
Energy = -44.46211562 eV
Pd 10.979762023485213 9.927873293144392 8.554725801472571
Pd 8.788278509981026 7.774069138977843 7.789951694928627
Pd 11.510867785361265 11.19824733806491 10.727828535247165
Pd 8.985498645870566 10.582173328802073 10.361710259218661
Pd 10.319756131232966 9.405152942247561 12.304672668042738
Pd 7.561660326697597 6.643813025041411 9.717295308031073
Pd 6.971790583224795 11.700849877582685 9.269004585210245
Pd 10.262095377925421 9.14721073648999 6.255625356765138
Pd 9.652794398091569 8.041995415297206 10.200201896085796
Pd 6.986599628439234 9.119349675876741 9.382440666086255
Pd 12.1629349759183 8.662768408442695 10.543304617519365
Pd 8.550092388426522 10.52820294368937 7.6261509923007536
