17
Energy = -67.08341909 eV
Pd 10.965416535001689 11.911885091757611 10.485471624001244
Pd 10.3199679723343 13.107446525199494 8.25373044523524
Pd 8.481827635359762 11.222642488073806 8.570259664667843
Pd 8.655043577452748 13.223675204041534 10.332612428116228
Pd 11.053007717917094 10.599075000964095 7.879686593659832
Pd 11.057790106755455 10.120586102572902 12.4317808823827
Pd 12.621076180785426 9.903912583700164 10.107962789027587
Pd 8.593918286062879 10.972182642671063 11.76954598789709
Pd 9.976612527611191 9.551974557889322 10.008471823763108
Pd 6.536974698255161 11.647928419227943 10.307848986782401
Pd 13.377915223922164 7.45247833236766 9.782697515502782
Pd 11.328124188671444 7.9626864197732035 8.320239103609559
Pd 11.337761519229803 7.629538926835243 11.316419469168906
Pd 8.91472010779127 8.797929752685116 7.589849312498393
Pd 8.922050104183773 8.342566364551477 12.12336040748726
Pd 7.346394828805786 9.158920208925784 9.899556622774993
Pd 9.12333627243534 7.088024119314786 9.700894251527435
