11
Energy = -40.85591182 eV
Pd 8.72751831390858 11.500827293919922 9.475095909612923
Pd 6.653294358704959 9.850116985418664 9.190359609738806
Pd 11.067244178642632 10.044503798092173 9.678497387157641
Pd 7.572227035812841 7.346852042391744 9.17254449167199
Pd 10.206048507714632 7.4194782263353485 9.501653509364214
Pd 8.845933316823809 9.222704476878977 7.9072317277715705
Pd 8.492853609785138 9.112614081206148 10.874283798433238
Pd 9.956450134230918 11.078806980942229 11.783083216067602
Pd 10.845975303617013 8.567380624646466 11.819816135063109
Pd 10.439280124003059 11.209367662568924 7.419873125085678
Pd 11.373383403880803 8.734443206699938 7.458911292441956
