18
Energy = -71.48836906 eV
Pd 13.463857056547651 10.946465902191042 8.358431015947373
Pd 13.151366140148246 12.998428880786998 10.037278037829942
Pd 12.934696618022768 12.369402073923133 12.580980019445338
Pd 12.509608733401269 10.466138340144948 10.755989872914519
Pd 11.39300202798934 9.290933520970043 8.589244089074414
Pd 11.099618160246976 12.047162752507043 8.651268966591369
Pd 11.031969332263596 8.360105285112526 11.486499872038925
Pd 10.700351152297143 12.814586961259185 11.21549650357314
Pd 10.910600856044756 10.724238218931664 12.897044391083849
Pd 8.413216424409795 11.789519746071653 12.20177512792943
Pd 10.620292275065276 6.886486668806539 9.352680526617032
Pd 8.835122644543729 9.168226865530267 12.976040685224309
Pd 8.564070881565117 12.43959268485044 9.546126822396053
Pd 9.157589636081891 10.814607521302502 7.480748028602674
Pd 9.765738561882555 10.323252156246705 10.403257993689214
Pd 7.288095230823109 9.730015624170697 10.84585433639235
Pd 8.699821597868027 8.626799103079545 8.760701213555617
Pd 8.5699058377681 7.334566081294362 11.048487643339524
