13
Energy = -49.55303999 eV
Pd 12.583256358582034 11.614117270757403 11.37154603171153
Pd 7.9715456414179675 8.940684729242596 11.37154603171153
Pd 10.277401 10.277401 11.469097038963477
Pd 7.9855455037373835 11.643420691105327 11.417051526030004
Pd 10.313514388989974 12.887336302712423 10.894599668315303
Pd 10.241287611010025 7.66746569728758 10.894599668315303
Pd 12.569256496262613 8.911381308894677 11.417051526030004
Pd 11.309621155660347 11.14400508798994 9.048607200831972
Pd 9.245180844339655 9.410796912010056 9.048607200831972
Pd 6.8276323325946695 10.370528505920555 9.414184317046006
Pd 8.80528731900517 12.057655748419545 8.922569212172894
Pd 11.749514680994826 8.497146251580451 8.922569212172894
Pd 13.727169667405331 10.184273494079445 9.414184317046006
