16
Energy = -62.40793811 eV
Pd 13.04833118634465 9.934835245062104 10.379249474885942
Pd 9.511799466213784 13.326570519733904 8.995242382531211
Pd 9.738802328765614 6.818668915106121 9.524010051733205
Pd 8.353722969303714 9.0139406062333 9.439152822201608
Pd 11.579115152584302 13.969806870066437 10.564220639294758
Pd 9.417740384006182 12.808761964731172 11.59076723920859
Pd 11.997767780141443 7.511759598680309 10.748831080805388
Pd 11.109612436274771 8.97801068488927 8.741210369376832
Pd 10.161626083202544 10.46223559810978 10.644847687182764
Pd 9.707565258922282 10.662457923442808 13.235309281021435
Pd 11.684431501254608 11.810684810105839 9.043089538190499
Pd 7.744068771654424 11.529455946785637 9.868211736909744
Pd 11.97140333075133 11.796732066751089 11.98193250217801
Pd 9.571187381020437 8.229145832116759 11.81037477260271
Pd 11.91024880317363 9.259723106599381 12.716290590055111
Pd 9.424677922727525 10.894598365266399 7.860852896578302
