12
Energy = -43.20850517 eV
Pd 10.188535334296335 8.35092753 10.188535334296335
Pd 10.188535334296335 10.188535334296335 8.35092753
Pd 8.35092753 10.188535334296335 6.513319725703667
Pd 6.513319725703667 8.35092753 6.513319725703667
Pd 8.35092753 6.513319725703667 10.188535334296335
Pd 6.513319725703667 6.513319725703667 8.35092753
Pd 6.513319725703667 10.188535334296335 8.35092753
Pd 8.35092753 10.188535334296335 10.188535334296335
Pd 6.513319725703667 8.35092753 10.188535334296335
Pd 8.35092753 6.513319725703667 6.513319725703667
Pd 10.188535334296335 6.513319725703667 8.35092753
Pd 10.188535334296335 8.35092753 6.513319725703667
