17
Energy = -65.92039798 eV
Pd 12.42217177467944 11.072772196654135 12.631239727840287
Pd 12.326221434913215 12.422007415828519 10.354673626055432
Pd 12.95659839287171 9.836480587207523 10.416637911092383
Pd 11.676486246155987 14.230975374229258 8.707597639405208
Pd 10.525997242083843 10.432633403469397 9.728750635069089
Pd 12.848799784685035 7.5842475883256455 9.135444921237177
Pd 10.103466321242893 11.925665551098257 11.813620665581407
Pd 10.839506320323634 8.569116410507815 7.998006842466164
Pd 10.361890173697603 9.549977438365548 13.069868126471203
Pd 9.622040603476146 12.946449578005188 9.34448478952662
Pd 11.134535807513462 8.182884818848255 11.046927713266035
Pd 8.776518944568874 8.195835887067368 9.620190131073402
Pd 8.173778023860772 9.970034818215304 11.56531305392095
Pd 8.492182879510063 9.086704482022832 7.191009145735758
Pd 7.665661362314225 12.461059027547595 11.03053960729851
Pd 8.05708101274727 10.845272409876252 9.000772534778207
Pd 8.841390299289722 7.531282698630956 12.173364408624499
