10
Energy = -32.72183543 eV
Pd 16.427926063462152 13.171886702577641 14.380833888579204
Pd 13.812999040049746 12.584173704304014 14.758983245614917
Pd 15.099109673805218 11.659171669416285 12.651689968229187
Pd 17.07692592854286 15.172487208050262 12.806494376030628
Pd 5.254801503494034 13.365753547953702 13.721736799104336
Pd 17.546337059390794 12.670489881472362 12.053345969865754
Pd 14.508627988313075 14.83810974352218 13.596916007686463
Pd 15.360537880071115 13.908807581292528 11.263085223805293
Pd 12.962736571801075 13.149603520356475 12.310711886932785
Pd 4.11743590704345 11.178367676920278 13.875290460407017
