13
Energy = -49.27631212 eV
Pd 7.263383687056653 10.25789803524128 8.679250779841922
Pd 9.077894763664853 10.781862978211363 10.529752836120483
Pd 8.160146203710374 10.26217536600637 6.108749048294109
Pd 5.661418557998931 7.93636062518255 9.091020929777994
Pd 7.42726926109382 8.67586724544265 10.86669610556849
Pd 9.863078040480055 10.772073308585659 7.954439926847681
Pd 7.662752637031183 8.032239124857837 7.424980231764941
Pd 9.55885048435007 8.520278568924242 9.34682687957937
Pd 10.085240606996948 8.428151791123817 6.633168613867866
Pd 7.793921551450308 6.355420215124103 9.458905656233988
Pd 6.310070943824302 5.8288409922443885 7.375570118333432
Pd 8.764843982157583 6.035826205951481 6.186606760417999
Pd 10.181638661970085 6.219265606213965 8.299970627950843
