15
Energy = -58.30845465 eV
Pd 10.221669273525096 8.497824882370134 12.255140820418793
Pd 7.81713133706325 7.395442672166498 12.121245161080079
Pd 9.398439206462633 7.3440026478658105 9.999650388144866
Pd 6.699000904593817 7.92282047183961 9.803673260675943
Pd 12.054259029505802 7.83332079476587 10.327566204147768
Pd 10.911683371355892 7.973015837001615 7.880864054041705
Pd 8.092621649162803 9.822758490038192 11.067804430563047
Pd 10.5265598782652 9.911014369492644 10.032721464736461
Pd 8.50001411285828 9.085578153156254 8.220959294134792
Pd 12.705679729728608 9.842321497116783 8.564461469003032
Pd 6.4540452035621225 10.497024946343398 8.990457058509703
Pd 10.449129749137816 10.58636774821242 7.277075129287422
Pd 8.779877546608036 11.770310724510047 9.311257445406675
Pd 11.400404656668409 12.197819792203624 9.138002914969308
Pd 7.900545777834264 11.27565946799462 6.855618673616442
