11
Energy = -40.41845751 eV
Pd 7.434663966445938 9.453173243882302 8.443700021242964
Pd 6.21639874270838 8.312118684152155 10.413306653754784
Pd 8.755588267231591 8.67609062561285 10.792091397572413
Pd 9.401357061368342 10.985027267723536 9.351782321136694
Pd 9.058457898046461 7.513998012099551 8.295419138754559
Pd 10.583533854373254 8.863444901896743 6.7084286860257425
Pd 11.921828560730809 11.467877108868926 9.810073634974488
Pd 8.94652447575869 10.787407283397705 6.806505949420129
Pd 7.778315774172194 6.331591339265439 10.199166774016186
Pd 11.035931994526894 9.07151927774552 9.255958290868586
Pd 10.597533668180558 10.257395235138576 11.645693908075947
