16
Energy = -61.57208906 eV
Pd 8.92628652182306 9.581430902199571 12.118227323551137
Pd 9.78812364725597 9.14977582997002 7.795668966382114
Pd 9.822547152012401 10.981281094884789 9.991347275479985
Pd 8.108548152524696 11.173156076776186 7.990644037633698
Pd 10.36131482400316 8.01893075134969 10.16034971643347
Pd 11.542151464188306 9.742252325050897 11.71949878623299
Pd 7.884471465354308 9.123435855715833 9.673628717940495
Pd 11.578234245651839 13.250321899442898 14.181545721773103
Pd 10.306185830532907 11.01145980935938 13.766151606295821
Pd 13.38954416602408 11.390552317985192 10.836159043394042
Pd 10.566386923652457 11.56231209711829 7.133197574373979
Pd 11.740936573093421 12.584210724153861 9.162008107807521
Pd 11.132146519224513 12.538991533000448 11.730645788545825
Pd 8.23843410230216 7.204251341474563 11.410105047049475
Pd 12.062095153256305 9.876816237835147 9.04418463664341
Pd 12.970301869733198 11.16212279114539 13.462298132484593
