12
Energy = -45.09347588 eV
Pd 9.425448622205842 12.203479715837538 9.470131
Pd 10.557157820376522 10.143105758695421 10.780781787924111
Pd 8.405203928457652 11.285296778603202 11.778005584050234
Pd 10.53505807154235 7.654965221396798 7.162256415949766
Pd 8.405203928457652 11.285296778603202 7.162256415949766
Pd 8.383104179623476 8.79715624130458 8.159480212075891
Pd 9.514813377794152 6.736782284162464 9.470131
Pd 10.53505807154235 7.654965221396798 11.778005584050234
Pd 7.183500935974807 10.806378003315304 9.470131
Pd 8.383104179623476 8.79715624130458 10.780781787924111
Pd 10.557157820376522 10.143105758695421 8.159480212075891
Pd 11.756761064025191 8.133883996684697 9.470131
