12
Energy = -44.91727421 eV
Pd 7.1806987956154265 10.214944921200221 10.894913591054136
Pd 8.6443012746595 8.129481303190486 10.746947193076096
Pd 7.40629286133328 10.934452049040607 7.426253654725408
Pd 9.131970465472923 10.57051693867451 9.301229088399909
Pd 10.75588055470829 9.541187813893135 11.038091967967587
Pd 6.842997039613038 8.827278265474618 8.77950551201861
Pd 10.91805764086241 10.511341939723378 7.488080129114017
Pd 10.833923775179251 8.31418546677534 8.787056893954235
Pd 10.327511385269895 6.290868939395435 10.243301090355647
Pd 6.9217768971264455 7.4998904856624495 6.611162497833134
Pd 8.974940359261625 8.983073652435314 6.851198345893042
Pd 8.60711832995991 6.73116754462695 8.382200689308691
