12
Energy = -44.94130039 eV
Pd 11.18202083473667 8.95322429503933 11.294327578592405
Pd 11.029507348991242 11.617585290881625 11.279141865834653
Pd 8.79910328981363 10.111592092246463 11.176456105243195
Pd 9.007503760594604 12.548386049310292 9.890129
Pd 11.029507348991242 11.617585290881625 8.501116134165356
Pd 11.18202083473667 8.95322429503933 8.485930421407595
Pd 8.79910328981363 10.111592092246463 8.603801894756808
Pd 12.907332131678304 10.335797316947703 9.890129
Pd 11.77543792395579 6.848542970926295 9.890129
Pd 6.928832308592618 8.684207097409358 9.890129
Pd 9.317925400887757 7.654713994780901 9.890129
Pd 6.7232535760281875 11.245097116648415 9.890129
