10
Energy = -36.74623237 eV
Pd 6.632521098449102 8.749948268379086 8.661948136769793
Pd 9.063765520122558 8.073310472458273 9.213685140390263
Pd 7.606458162502044 9.83425051593754 10.914980277331999
Pd 11.525487916442176 7.502085859303933 9.774151883525963
Pd 9.980736822260896 8.715250313685198 11.578964192485921
Pd 12.015176506456422 9.97381140584907 10.348479813644495
Pd 9.661784696861355 10.654618304420516 9.519515905946056
Pd 8.641230567341058 9.546548196196436 7.092984055244265
Pd 11.224542608515806 9.359352523439947 7.869426002419832
Pd 7.295571661314153 11.250147165552326 8.669704677307738
