17
Energy = -67.32008842 eV
Pd 8.839490469048323 9.461519956606326 6.545936972326622
Pd 8.722101762229775 6.701759641024481 7.471232880260198
Pd 11.028470156724662 7.963195355138378 6.952941979003052
Pd 11.262499078853676 10.55595476326038 7.596192187733665
Pd 6.74015294557965 10.880963207080296 7.248196792282243
Pd 7.069893958265566 8.552188601933779 8.441384344183332
Pd 8.975963481866854 11.38448641131531 8.574040543463665
Pd 10.895077449995583 10.72739048040904 10.447904024289413
Pd 9.588158551244051 8.867405294409314 9.035576337394968
Pd 6.784982179606431 10.790166754791331 9.913841701221536
Pd 12.258666792379865 8.714849876985664 9.306554694769012
Pd 10.772711602238749 6.400276349712786 9.171299278148282
Pd 6.318250929139507 8.368090629668526 10.941518763778237
Pd 8.766584167065304 12.13045448921548 11.10449635254831
Pd 8.37649834552162 6.868226717090707 10.269620690581915
Pd 10.740438887009509 7.904841615296499 11.377697112314149
Pd 8.630443667569057 9.498614280400043 11.371949770039196
