14
Energy = -54.0635727 eV
Pd 11.588553802245949 7.754233930148042 10.070009405852094
Pd 9.826169320183437 9.723443528982946 10.309094230401449
Pd 9.591915220554803 6.406844136701329 8.959392497064394
Pd 7.962810404581923 11.60520086192199 10.366446830846458
Pd 7.983540554238593 11.352795092215315 7.734959280081905
Pd 10.337411120928326 10.489285706201589 6.850144621982961
Pd 8.736176127397078 8.840915445917064 8.264035001920481
Pd 7.221802558712542 7.2774192982312575 9.832682545801307
Pd 6.4334543694048625 9.764081372486816 9.22121667487273
Pd 11.127409611300413 8.00681163160576 7.469136842938087
Pd 7.5160615898651795 9.254770579806816 11.579649833766485
Pd 12.038668615770153 10.087600838144903 8.83484813812975
Pd 9.332507507532888 7.30868137569291 11.432351333064107
Pd 10.220278197283456 12.044675232214543 8.992791763277518
