14
Energy = -53.83624472 eV
Pd 10.037974000302857 12.029950987524092 7.800675232274137
Pd 6.682161692081692 9.55705241727432 7.1278643053474156
Pd 9.31618214038317 9.594238966387806 6.986241127553437
Pd 10.368118347919523 9.89848686517263 9.350096370935193
Pd 7.828063052467363 11.174617304319096 8.937832703856381
Pd 9.80079707154196 12.150636846373454 10.513523320478185
Pd 10.390566262638542 7.455378320481908 8.39797141955173
Pd 10.928950665628369 9.977315879331886 11.886208410327823
Pd 8.07279917356069 7.219608023720587 7.069825760852489
Pd 12.10318433049926 8.131900116101693 10.329907302218324
Pd 8.28559160041253 10.122103052983528 11.395201228762225
Pd 7.839567905353058 8.571134566113102 9.28268443909521
Pd 9.584587809140006 7.7749215131290885 11.088359475958692
Pd 8.415173459264656 6.012578393231553 9.449262562261776
