14
Energy = -54.01782281 eV
Pd 10.248497696778495 12.4651307387998 9.769766698243787
Pd 11.662745215726204 10.550966818839587 8.42944598716948
Pd 10.357337909252756 10.054945503479532 10.727090506767194
Pd 8.985447856209667 10.708812324690035 8.327422620304873
Pd 7.9687929438496425 11.281503184469477 10.740117748231143
Pd 12.380807268360515 8.533441347340666 10.13279992436522
Pd 8.60183158763824 9.28321449532359 12.486143023118023
Pd 10.188909719944096 9.565377836243323 6.331474517678907
Pd 10.342150468443396 8.219767219538062 8.553679665438233
Pd 10.076943819460586 7.418120954280996 11.108619926832674
Pd 7.964050474245888 8.68326462957983 10.040051853562911
Pd 6.444301413439724 10.303172855626544 8.687641782181164
Pd 7.940454531679026 8.418613630768927 7.373690925484082
Pd 8.60880481646954 6.357455917667121 9.071384246341646
