15
Energy = -57.35338478 eV
Pd 11.587312272205404 11.753840098058513 9.519154275161762
Pd 9.000516004854328 11.051409161878881 9.164210079363864
Pd 11.038077568301238 10.269629858756804 13.86111955851831
Pd 6.439656699040985 10.020647646290977 9.006863370927718
Pd 7.649798905357343 10.01829545165848 11.218210194751197
Pd 9.884389990803044 11.452340783385742 11.669519628755857
Pd 8.758963939857422 8.428043113645714 9.300030520122162
Pd 13.906361371715436 10.066626907450095 9.728342241720801
Pd 10.005462299338072 8.787165032178637 11.743436814274066
Pd 12.302249999940738 10.249432368635903 11.659069861292975
Pd 11.354178867028864 9.113200287975332 9.441544553753024
Pd 7.91852042664118 9.448899296752078 6.977299478596269
Pd 8.478051655618714 10.057509456687475 13.621468612183175
Pd 12.843786672776018 10.627062887144987 7.449146329208758
Pd 10.378464150639184 10.034840832590968 7.236781798284724
