19
Energy = -75.83671067 eV
Pd 12.495084809080831 8.777695567405821 9.146287176069649
Pd 9.982601602423832 9.181089752975954 9.707797192634077
Pd 11.668833116670362 11.318654240283468 9.422750659756984
Pd 10.947326181888434 9.954744893376851 7.245350556278383
Pd 11.273899427906716 7.24948614488039 11.131071328293451
Pd 8.680917046418836 7.147172900602313 10.56457213457505
Pd 10.800238560241914 12.650232984767387 7.304840299121301
Pd 8.303277469919978 9.205191234870973 7.724783057581167
Pd 8.935527529376618 11.215947853823902 6.13798281560832
Pd 6.633144839516879 7.96518918798001 9.232836018887317
Pd 11.971992925355677 9.81076612518654 11.55579072907552
Pd 8.806205086480139 11.54417166174708 8.786133524024008
Pd 11.498471659184219 8.164376057548022 13.599789840727876
Pd 7.602310739415266 9.93891825220889 10.561976983388028
Pd 9.268578543099785 8.940043896099986 12.389284693146918
Pd 10.25351417551154 13.488218534525142 9.857499908915559
Pd 9.515176503339003 11.471682135513616 11.404089235506731
Pd 11.862279709396871 12.483752915467567 11.834598073268424
Pd 10.74723081829593 10.74441256373916 13.65547066470639
