13
Energy = -49.42190643 eV
Pd 9.6995351092565 10.552088613347983 10.764506008069537
Pd 10.347744087016197 12.166571449793624 8.76795726773948
Pd 12.055293541707748 10.304384793497352 9.662534151788133
Pd 7.152554655410545 10.872419413920102 11.312782047975823
Pd 10.523507248805522 8.044895946381025 10.018206565160945
Pd 7.945048733321206 8.48247456068318 10.61379392353195
Pd 5.85184819388793 9.558073130396167 9.361170112105288
Pd 7.966695241336031 11.007142099051157 8.778958265304741
Pd 8.658131313170347 6.230639186826851 9.463507870696601
Pd 10.113806322564795 9.64334056281759 7.969233829117626
Pd 12.301262192401767 8.126079048028757 8.052893365046707
Pd 7.77170974774466 8.36317857972542 8.011569366372795
Pd 10.001882084201682 7.0267723352549645 7.403401561296131
