16
Energy = -62.57980263 eV
Pd 12.030568102253914 10.281493400952613 12.085563192326193
Pd 12.475954770506211 10.936754233321347 9.49033099659396
Pd 12.075411955386238 8.261263805362386 10.213335355234369
Pd 10.280335453273432 8.121429023715455 12.20292178454223
Pd 10.783795421338125 12.523106098172303 11.052418206262217
Pd 11.977161287694543 11.279829373248663 6.944167736881256
Pd 9.428596347772228 10.96217834932646 12.771570609812704
Pd 8.277019738769296 8.83001567111731 13.623335570912646
Pd 10.127118491136557 10.056887457388715 10.323159959710107
Pd 9.478909472800181 7.621129866295788 9.667235600232608
Pd 7.727043519613967 9.173410569275058 11.120703297966868
Pd 8.208217873462937 11.80226555726777 10.493169612501168
Pd 10.916796542696208 9.08614836005996 7.941536648990701
Pd 10.024496445097437 12.05652574892406 8.526907514165691
Pd 8.221876352351202 9.815285396325963 8.546401077407703
Pd 9.503743762453306 10.650835471680228 6.3773786945306234
