12
Energy = -45.13564416 eV
Pd 9.533951722884638 8.14315841198153 10.301885403594131
Pd 11.367235544422812 11.032627497721084 11.677348596679632
Pd 7.704282393515471 9.237816715869902 8.665316625624625
Pd 9.982795081145406 8.115549979771394 7.68293702352662
Pd 9.757791568165825 10.801981461127234 7.691945036036278
Pd 11.47875197341793 9.596546627062876 9.3787818448557
Pd 11.172991589147685 12.229229623744555 9.33771152878626
Pd 8.281638028641988 9.364394902998258 6.148867166130983
Pd 11.765251097274072 8.461579306658468 11.779652632210466
Pd 9.063791442501207 10.939871255770925 10.307314736364981
Pd 7.259358484499776 9.243128881469831 11.218979500491217
Pd 9.456597021698844 9.456439262715152 12.625567173313062
