12
Energy = -45.04520557 eV
Pd 9.357258114765711 10.693035787424863 9.343082
Pd 11.95056631582831 10.155277164192464 9.343082
Pd 10.501761181555256 9.774440505955996 11.549556390878426
Pd 8.103955971186874 8.486100507749512 10.705366804032568
Pd 8.103955971186874 8.486100507749512 7.980797195967431
Pd 10.423302598325904 8.003349447635118 9.343082
Pd 10.115228202852167 7.25206341498668 6.8767332522625635
Pd 10.501761181555256 9.774440505955996 7.13660760912158
Pd 10.115228202852167 7.25206341498668 11.80943074773744
Pd 8.091105362503026 10.956235074678007 7.0556637621034906
Pd 6.761755486064614 10.327642496364865 9.343082
Pd 8.091105362503026 10.956235074678007 11.630500237896513
