13
Energy = -49.50145547 eV
Pd 11.4611015374361 9.975326504213962 9.044333104109624
Pd 9.875782740573642 10.602217495252507 6.9525090797571485
Pd 11.440238805241144 7.481294013608753 10.14648150910514
Pd 10.021388157841557 8.078714271688824 7.991643801428973
Pd 9.358288916779168 11.641394356790958 9.308347884077456
Pd 9.45336472010004 9.202519929860198 10.501919902653842
Pd 8.171135460754224 6.228092282221898 7.5576036933967226
Pd 7.178226814952443 10.472393994513842 10.384786178953588
Pd 7.3911958813071195 10.878581235412168 7.74169536941374
Pd 8.994323743959981 6.539272082450565 10.029779149966778
Pd 7.321137813777995 7.945003588043732 11.448360296638386
Pd 8.088797895125545 8.677364250086542 6.353718115565097
Pd 7.351378822084975 8.390394611812463 8.835470711176708
