16
Energy = -61.86917301 eV
Pd 11.152667588349795 11.804774011803298 10.102365514009188
Pd 13.04300327038992 11.36099263351284 8.41439014527843
Pd 9.364975131518781 13.611822948935716 9.713530948883875
Pd 11.44971588206427 10.817682002716706 12.580354774653399
Pd 12.628183901965352 9.697523649444383 10.507404714907654
Pd 8.728801338672072 11.145527963772855 8.930684608336797
Pd 8.6682191813446 8.43542456005651 8.98215086121427
Pd 13.246115820105457 8.740029455179126 8.091747010545092
Pd 6.998678791736407 12.57756442977432 10.331036683535416
Pd 7.436315815476185 7.6201475036461055 11.276833177046994
Pd 10.836093883111909 9.884598194398611 8.156474544840956
Pd 9.501518668183603 6.358478772080193 10.540284587512067
Pd 9.156730394138586 11.85517024744714 11.76835990775876
Pd 11.35155819520456 7.6306693210653345 9.440329944816776
Pd 7.366321298445016 10.091364059522247 10.935644439743584
Pd 9.943407273748777 9.269881319957268 11.07910709936304
