18
Energy = -71.5375406 eV
Pd 9.531960039024208 12.459193436910018 11.352841900637948
Pd 9.215470390696222 9.788122177774211 11.613558076405818
Pd 7.624237772585813 13.365883808086178 9.733431873493856
Pd 7.372693056400062 8.695067814737252 10.078501358105127
Pd 12.304122242214003 9.202622340973585 8.163866208196373
Pd 11.698411717585442 8.443526525687345 10.665979433762972
Pd 8.364510507530625 10.9404734906644 9.002640977788209
Pd 10.033599382558007 13.115451276716541 8.68298532124293
Pd 13.495793376895318 10.52063408255146 10.401328341377173
Pd 9.732453351953286 8.618153974734028 8.818819783479778
Pd 9.353172622328284 7.215814589224505 11.070314985617197
Pd 12.083909541741054 12.958111731901845 10.612425892625849
Pd 10.963037152463023 10.845488642653256 9.697438669811822
Pd 7.0923715655078325 11.29006661440725 11.285797387767348
Pd 10.30691202482507 10.708509404234436 7.1695329335230005
Pd 11.537237993270594 10.964664203869182 12.348059168312641
Pd 10.865912930673018 8.478813876480158 13.171641285914875
Pd 13.382424275216515 9.063509787490235 12.600348951517491
