11
Energy = -40.32686236 eV
Pd 10.320058 10.320058 12.768806493833301
Pd 11.68427665268558 11.646974255382629 10.906737065889953
Pd 10.320058 13.85902181561784 11.160564457438023
Pd 8.955839347314416 11.646974255382629 10.906737065889953
Pd 8.955839347314416 8.99314174461737 10.906737065889953
Pd 9.047991280242329 10.320058 8.594961796716692
Pd 10.320058 12.672271113348085 8.806915440380424
Pd 11.592124719757674 10.320058 8.594961796716692
Pd 11.68427665268558 8.99314174461737 10.906737065889953
Pd 10.320058 7.967844886651917 8.806915440380424
Pd 10.320058 6.781094184382159 11.160564457438023
