11
Energy = -41.06588565 eV
Pd 9.372358917068313 8.0999124840192 6.9757303203865595
Pd 7.972996788548114 6.324388036713179 8.483838297449088
Pd 10.46605874027795 10.589513130923299 7.108530438681418
Pd 11.771422715805965 8.693607898340124 8.179364035522106
Pd 8.263437401625989 9.973210442324987 8.443099922380798
Pd 6.661989291724393 8.208321780210662 7.393921259027354
Pd 10.412402274076012 10.50836856459086 9.830666941729767
Pd 7.8048523367112645 10.932992584598168 10.789379664006956
Pd 7.159784375897894 8.330135687917657 10.153991754313724
Pd 9.219979916867086 9.117674907331821 11.857382534607344
Pd 9.685717223593093 8.01287448303004 9.57509481409055
