11
Energy = -40.53897526 eV
Pd 11.306629661721967 6.8827456867039825 8.770928597760003
Pd 8.777688184220462 7.210483839249337 9.015361854476218
Pd 7.020431681219607 7.141101685125697 7.105747895766721
Pd 10.614184902071525 8.759983743314942 10.382346613054976
Pd 10.334721402676236 8.984318265770174 7.692470940848291
Pd 6.257857559053674 7.915604669534225 9.441912921000178
Pd 8.034570217142672 9.345702178879586 10.648463078390487
Pd 9.814091290462219 10.776510837145452 11.791241929886915
Pd 7.694817869816353 9.513469483545148 7.904465967788057
Pd 9.529852212126531 11.069729935182732 9.247235734445734
Pd 9.291593537159507 11.090638296081623 6.686101695479914
