10
Energy = -36.11782755 eV
Pd 10.688138854822265 9.064850488806986 8.330833559096948
Pd 7.938792868864264 6.911188587987652 7.560985068728253
Pd 10.309909204996359 6.560030881299736 8.341340104632968
Pd 9.756962799114211 7.821125191420926 10.562877589261296
Pd 10.9133129071694 11.548863633789798 8.74241717055884
Pd 8.106228616094402 9.121796085281595 12.094157923707293
Pd 7.3804519208345765 8.18919790884571 9.764512160748813
Pd 8.327426331282174 9.41715132646942 7.526179821956221
Pd 8.561730316890676 11.8996353721939 7.943843148225043
Pd 8.95447349415513 10.410879675830174 10.079166707123202
