12
Energy = -45.42924123 eV
Pd 11.175440590687597 10.912144996369591 9.799968551430156
Pd 8.464517053233191 11.252335711290566 9.750677457027077
Pd 11.698301313250914 8.435924368397718 9.121712543763438
Pd 9.69183269722248 8.979202640310232 10.764239364985917
Pd 9.749563277739227 9.779072472971846 7.9471252124439395
Pd 7.30637784137462 9.676094866765144 11.592299985680189
Pd 7.4350033667361535 10.761098557825377 7.312837384677217
Pd 10.71807258138204 7.67124882752465 6.732768284867935
Pd 7.818444114205114 7.148407761123342 11.017200647534226
Pd 8.067133239336203 8.207928400543047 6.696894819309445
Pd 7.239943061300657 8.852343892158208 9.116957281150233
Pd 9.308155052362517 7.073545996493819 8.842643467070182
