15
Energy = -58.14903816 eV
Pd 6.235418229993032 10.256802859718055 10.974062104000637
Pd 7.440698788216313 11.900662217129849 9.229871967548217
Pd 8.915200102591921 10.899587842329645 7.215704163950358
Pd 8.307193533074027 11.585723652377602 11.829397709449701
Pd 7.7514122684340405 9.322782120724373 9.056322827337576
Pd 9.823918307148485 10.835901986493086 9.769598539085091
Pd 11.517811741440532 10.884822752637673 7.7365242545615365
Pd 12.41739688042817 10.886335076952586 10.32418877718459
Pd 10.114580794097149 8.623175133578608 7.864286404288652
Pd 10.706503739349746 10.590215884665879 12.31203030681371
Pd 8.505225241603885 8.992660628185524 11.656495956352996
Pd 12.809615184161334 8.81969329893402 8.675477412742104
Pd 10.991150804580144 8.596441481368327 10.603642984820633
Pd 8.945748836171365 7.1395425905846155 9.784117217148808
Pd 11.405395941541608 6.604329400504172 8.887207493448692
