17
Energy = -66.33208506 eV
Pd 11.85851980254861 12.090533506745658 7.729247343315504
Pd 12.885659792178895 9.711774293029299 11.569762891448445
Pd 10.213766474411269 10.320771790386779 11.485198092598829
Pd 9.468117635803171 10.901308225640694 7.856372843610289
Pd 7.3000061925070066 8.597259189396105 10.767512186383422
Pd 7.8335216119050814 10.34134429509964 12.691841893003492
Pd 9.400043158576134 8.602395615813741 9.18225060290493
Pd 11.626391661596204 9.987610895119635 9.26975424638281
Pd 12.097718118463895 12.24078602264482 11.722725456143223
Pd 9.264686920462466 8.102433394260483 12.55973015144487
Pd 10.24422089561101 12.481592354109793 9.865015375915252
Pd 12.416808899396914 13.902383802686284 9.665404028608307
Pd 9.02065135918138 6.4440723675770935 10.575581704323854
Pd 11.288853935644827 7.779355773095158 10.853807973376862
Pd 8.061826670777291 11.148266500981434 10.177134550281234
Pd 13.682336081219145 11.57912322562112 9.733039528628186
Pd 7.195013505550355 9.594866934346994 8.207420830361356
