15
Energy = -58.45007063 eV
Pd 10.484962022763142 9.976020333687757 12.316773315798645
Pd 8.27228087738329 8.651085394137645 12.90928771579014
Pd 8.272995000261133 11.267169017623152 12.987579375150112
Pd 9.580211115423134 7.814862977577549 10.755376987281753
Pd 7.839468710658541 10.028741599175484 10.694100543890602
Pd 9.587896060310635 12.242393565087868 10.90831695911173
Pd 12.233567859352396 11.419531774255573 10.775414375947435
Pd 12.23576565253818 8.656842694793335 10.684754100574096
Pd 10.312534867235176 10.074557764999586 9.629286366396753
Pd 10.362418354347044 10.179910361309169 6.952111700450032
Pd 8.455298428132892 8.738892750466539 8.371677515633253
Pd 11.017797517096904 7.843663147773524 8.400314247980349
Pd 8.460953915836246 11.500140211607508 8.464815199661505
Pd 11.015589812649964 12.417534167822453 8.56165798806311
Pd 12.692925288249837 10.136448233539172 8.38191418219315
