11
Energy = -40.6865727 eV
Pd 8.226945627794342 9.33362620683094 10.952976206481495
Pd 8.229063577869393 9.327401346277545 8.011806754780162
Pd 7.2031619102452895 11.378611760930518 9.47797340294507
Pd 10.127430227576545 8.01236672440027 9.486848909287595
Pd 9.762224447014708 11.063915400060202 9.479508400895115
Pd 6.021863877374772 9.067690573748045 9.481511886930491
Pd 7.714830162044357 7.101536783172157 9.486167263527003
Pd 10.983762242921781 9.668597219514123 11.287953423723975
Pd 10.98653277741454 9.660125350535267 7.679297294144678
Pd 12.684896618853635 8.535570421170382 9.486948400083106
Pd 12.371793652129625 11.163063213360687 9.481513178440034
