14
Energy = -52.92892774 eV
Pd 7.229203685469514 8.104063432176192 6.46979398887284
Pd 7.243156137994122 10.661114725840395 6.4599969587947355
Pd 7.6434567185473 8.115270369683818 9.00235696284555
Pd 7.657662619809747 10.664019405448494 8.992704299595877
Pd 8.123391957250588 8.122185051912917 11.542417151414423
Pd 8.138266971123324 10.671092124313953 11.53261654753595
Pd 9.712065180294442 8.096926911777798 7.197093572447022
Pd 9.725440054179709 10.643600682380988 7.187643812559612
Pd 10.158203774746 8.11481821986535 9.78299341112524
Pd 10.172559266819087 10.640762876132106 9.774015707152497
Pd 10.623167791812723 8.110950183273452 12.351599331195477
Pd 10.637896304142124 10.65790867891406 12.342442236229644
Pd 12.373160648718889 9.368215679149262 10.65133211531387
Pd 11.89615888909216 9.36286165913123 8.046783997266488
