13
Energy = -49.11425686 eV
Pd 10.575575 13.117939091920503 12.906379519330581
Pd 9.298358682307972 9.215303649163495 10.860614402177404
Pd 9.298358682307972 11.935846350836506 10.860614402177404
Pd 9.276727537325163 10.575575 8.575379047783121
Pd 10.575575 12.848324248792142 8.479161289229054
Pd 11.852791317692025 11.935846350836506 10.860614402177404
Pd 11.852791317692025 9.215303649163495 10.860614402177404
Pd 11.874422462674842 10.575575 8.575379047783121
Pd 10.575575 10.575575 12.884749814699122
Pd 10.575575 8.30282575120786 8.479161289229054
Pd 10.575575 6.809529486519559 10.616713883131691
Pd 10.575575 14.341620513480446 10.616713883131691
Pd 10.575575 8.033210908079502 12.906379519330581
