11
Energy = -40.00217363 eV
Pd 10.176554749160546 7.839381958482485 8.43894400443911
Pd 11.029771094769403 6.721967435713475 10.595216436279348
Pd 9.233915330140249 9.165653175243673 6.45112511558563
Pd 10.963288745217639 9.267320590272575 10.594512445511052
Pd 8.695372134923717 7.758432351709881 10.744616464428407
Pd 7.720155336659202 9.037630799376448 8.520741346636973
Pd 9.995866420582427 10.581044345221663 8.434639987423228
Pd 11.06493496407481 12.838780276508778 8.478314441270427
Pd 8.47650641144996 10.478147690572971 10.673707097459713
Pd 10.669700664203182 11.818051808373568 10.783713423556968
Pd 6.435271293388161 8.957343054956153 10.746358268843663
