11
Energy = -40.86953164 eV
Pd 6.9278839572037905 8.000200670381442 7.311087213825546
Pd 9.565328426984356 8.636738248584678 7.67877386125762
Pd 9.090545699442295 8.215342286669488 10.425102133902582
Pd 7.868430231284243 10.33100320403412 6.576531997902001
Pd 11.267374063257986 9.571150000234116 9.60630415681336
Pd 11.072997100387614 7.010586638507158 9.114689836530019
Pd 8.569289917497514 6.288101365481742 8.575356671190933
Pd 9.342443606003432 10.862415054176251 10.850661403636508
Pd 7.504394487623656 9.85421113921768 9.169654339493215
Pd 9.657424663826593 11.272610086137886 8.289478344891366
Pd 6.589839816673811 7.413593306575303 9.858311980927063
