12
Energy = -45.16442711 eV
Pd 8.137681911859575 11.713655011913506 9.284285920031138
Pd 8.119043924479458 6.400577452328857 9.352885823840984
Pd 7.938750257180416 9.055906725231623 9.497383422835204
Pd 10.264203609466154 7.767508347941036 8.508799378599553
Pd 10.215688329290167 10.428590102047417 8.508216872988646
Pd 6.593994624914746 7.7683835418353215 7.581984505348163
Pd 6.685727881537808 10.421715543776136 7.563316558873744
Pd 9.60730048237124 7.725464090824654 11.104836488694101
Pd 9.58920700794276 10.421536636023852 11.10680339742918
Pd 8.754967634274525 9.122897733727166 6.769154299266148
Pd 8.733894384832682 6.440866701400447 6.78577198254797
Pd 11.7178080730894 9.091165991710822 10.294829349545168
