14
Energy = -53.55959322 eV
Pd 8.337755344270109 9.105480390341045 12.445161967587245
Pd 7.929724639084475 10.725048808401974 10.450336251448897
Pd 12.604150630221572 10.03770940005352 9.809906496792708
Pd 10.346550754494734 8.781650427079427 10.790687292615784
Pd 8.934081115130626 6.693181789484833 11.58011570757248
Pd 10.431594303509076 11.365654856445671 10.152606458216425
Pd 8.670614633995196 11.979060281207726 8.233416174954925
Pd 9.433291667415288 6.546142664304193 9.043465564242702
Pd 7.3578268751051406 8.15372206991497 10.05202511611448
Pd 6.812709569309624 10.040669222601046 8.130895783340355
Pd 9.216330416345867 9.10556232423173 8.433935188074392
Pd 11.573076457862937 8.005764042433327 8.566283933099134
Pd 11.11270562521158 10.650291886169123 7.663247160532595
Pd 8.795556628298092 10.370573218191362 6.2046631522500935
