10
Energy = -36.68607155 eV
Pd 10.388999094787792 8.027569535400259 8.625684375179956
Pd 8.712120110088904 7.917676906015648 10.647991980697036
Pd 8.214767223196962 6.426185404654039 8.415851105019652
Pd 9.809790283792019 6.815410657631438 6.362752946656824
Pd 9.819671651196122 9.468625525161062 6.458299012416276
Pd 7.559032640614578 8.114822289267085 6.214179769801094
Pd 5.801751733621891 6.6067676693346735 7.395308690460137
Pd 8.074433274662397 9.334794473704433 8.450190586616644
Pd 6.265568801958634 7.81870776237763 9.688778690984696
Pd 5.5853941529589815 9.25461472938351 7.547923569283796
