14
Energy = -53.92483346 eV
Pd 10.2239078736364 10.537401591739721 5.965706488435836
Pd 9.971831264454172 10.599453482719282 8.588458808378737
Pd 8.012277472917322 9.71225509131352 7.010386485073644
Pd 7.332326458702701 10.487327601521624 9.482075726481572
Pd 10.700927326785582 8.377539553505628 7.295769108538734
Pd 9.091077131091193 12.20410403761735 10.481913661204203
Pd 6.118716425705667 8.446133102305108 8.460453273457842
Pd 11.443169220109006 11.045984095017959 10.724172740211452
Pd 7.005929253174526 8.229908901168248 10.97378074491231
Pd 9.243415713334743 9.684919546458874 11.232693970457053
Pd 8.678739154512826 8.059697026371278 8.940574899869034
Pd 10.582373667420171 6.236097959478912 8.936040967013533
Pd 11.300303782019881 8.526073548771935 9.899853463284483
Pd 9.465651625307954 7.014111454704398 11.2354815710855
