10
Energy = -36.53368883 eV
Pd 11.186719749885684 8.331528784054342 9.836957660828562
Pd 9.72429271992814 7.921509194492414 12.03858553937966
Pd 10.292845147143765 10.026088501255286 6.011985203240734
Pd 10.041066539577553 7.92555943089282 7.499636912952825
Pd 8.55792106566148 8.459285767228256 9.700022299470426
Pd 8.081561865572349 9.760661419242616 7.411397982970827
Pd 10.150991289992177 10.428505024500343 11.250915988802713
Pd 10.322831390754132 10.534129634828732 8.549158433712687
Pd 7.961988317298356 11.045693154942922 9.80313045505773
Pd 7.755008406121024 9.624051321103213 12.02447816118771
