19
Energy = -75.93370134 eV
Pd 11.100360806794603 11.54233478766718 7.039020353215608
Pd 11.133987137212216 11.183865408320246 11.173163854151365
Pd 13.64553290819698 12.513198025022223 10.562403122198617
Pd 12.068586899002867 11.502922663984291 15.3745819774868
Pd 12.196830357412995 13.945925474506167 14.285320536569788
Pd 12.441498042891133 8.177256589989316 9.539590586723913
Pd 11.532470105865638 13.765185466660212 11.69537365588437
Pd 11.393083514232332 12.99202692984835 9.200489131302401
Pd 8.246275507082167 10.03273999879497 10.322834278543594
Pd 8.935860126146418 12.467703064298934 11.308036570636132
Pd 12.989624369642197 10.712554356496494 8.754881717572763
Pd 9.012322197292955 12.035714947086092 8.690780615185359
Pd 10.484140707639822 8.608272947289988 11.2907064830345
Pd 11.555631213443302 9.724933851905641 13.449064939552825
Pd 10.51808878321083 9.900467701375092 8.971427419851269
Pd 13.194860832236444 11.872009223366838 13.04274429880464
Pd 10.288265000134825 12.268466562210296 13.61290598588342
Pd 8.957310735681292 10.155775484533924 12.84425301262109
Pd 13.326913474589746 9.864030849411977 11.304825090659605
