10
Energy = -35.72585778 eV
Pd 6.202360755149211 10.797795704978883 8.55952548253825
Pd 7.859671525283991 8.940714930810218 8.426302329535305
Pd 8.43653836313563 11.394707578426438 9.648182981955172
Pd 10.485038758489758 9.873310831124991 8.806458189286607
Pd 9.821154860692564 8.12476315474055 6.889546399801419
Pd 10.618520668672986 11.20603954506841 11.003720756163814
Pd 12.098575119520067 7.992836516118859 8.076549350016482
Pd 8.97178076215311 9.202089810002095 10.986230678103519
Pd 9.945482716380608 7.227569204009992 9.329325829698064
Pd 7.510525083263751 7.185080675739097 10.223510754366966
