14
Energy = -53.85026037 eV
Pd 6.157084646582816 11.462783121840667 9.897775141692208
Pd 8.68930598773541 8.999545126833903 6.891660746900703
Pd 7.216872780600591 9.346575500200782 11.08982049648602
Pd 10.462419729806737 7.056174519414528 7.665264592177752
Pd 8.533633394847621 10.823176827355798 8.857655456030457
Pd 6.465335579648331 9.21446062317153 8.47115443067065
Pd 10.834660000031063 9.573459832158763 8.391703567489781
Pd 10.984179189703516 7.3159325463897975 10.333843889201956
Pd 12.42171610440484 9.632803153813196 10.506370486451774
Pd 12.875490210862031 7.849129081034843 8.544640156407363
Pd 8.628092532371962 7.97383865419319 9.321749190979942
Pd 10.796962042847912 11.751605321007037 9.965507831301599
Pd 8.421397757388542 11.785672606863004 11.315466399207443
Pd 9.853061272316914 9.578926804550578 11.117789116978248
