17
Energy = -65.43738783 eV
Pd 11.648638177358292 6.019344416924722 10.675190368502179
Pd 9.929431019277365 9.992937682032194 11.893318038655055
Pd 10.318559589800515 12.39200689448494 12.90784251910626
Pd 6.791292638654565 11.788064798850543 9.143804735165006
Pd 12.039199863897409 8.363264364495286 11.706959690183568
Pd 11.930163314178625 13.00708905767449 11.006968312823915
Pd 11.644118906182316 10.560068087663947 10.082318666512347
Pd 8.454778491099944 12.134497107026048 7.247086942132305
Pd 9.928993815308786 10.151544295334354 8.060566533722465
Pd 12.493182752361708 10.83178385879393 12.562558795035436
Pd 11.356658005155685 8.124584914067926 9.113293422934694
Pd 9.815109472801556 7.767931261045686 7.067232918096776
Pd 9.548037195470476 7.605787523185845 10.834303638247635
Pd 8.538401951084463 12.063999237947652 11.015658069838098
Pd 7.988261666432341 7.336987796753789 8.784257154000612
Pd 8.171677757605355 9.695592078429183 9.82546652222575
Pd 10.154796895038242 12.569557123978953 9.136031510634762
