12
Energy = -44.99983208 eV
Pd 11.183480349246535 12.231482808120655 8.550547898268956
Pd 8.954896567399956 12.545198894676 9.769149655340854
Pd 10.380081161565949 10.336961433300148 10.303252114214102
Pd 11.848894011425141 9.758183099415149 7.983866641680069
Pd 9.147300564497758 10.481092632700477 8.096976692986548
Pd 7.589450747661938 10.46303730295723 10.486667475741882
Pd 8.988325498825956 8.18614035817633 11.051956957468214
Pd 11.25086575910145 7.862362316473908 9.71281944745532
Pd 6.388106007373607 8.255774426309538 11.050020258618405
Pd 7.7132114826922065 8.343216862513842 8.807662065889538
Pd 9.96497694474171 7.994442304756369 7.459255981428485
Pd 9.214680198783057 6.174571515268824 9.284546908459816
