12
Energy = -44.69599472 eV
Pd 9.100469253106947 10.421032266965188 6.921323608912947
Pd 9.979130513309023 8.052757236073766 7.507048229587026
Pd 9.220298503374163 8.081558459827678 9.939606552484817
Pd 11.56295372112523 10.105510978112754 7.953144481964248
Pd 10.394356960595411 12.512842221923576 7.933186107884867
Pd 9.344257148953222 10.64057198451607 9.494685181826645
Pd 11.88586900019087 11.836142471278768 10.016738880328154
Pd 11.551074201251666 9.171933993101833 10.395412029200655
Pd 7.913002322563753 9.706234367290662 11.534181867793185
Pd 10.084198765927637 8.375097434589486 12.459764751672111
Pd 10.32080799432072 10.999181141904932 11.937029814141889
Pd 8.857488560894817 10.199920892543405 13.919970466847055
