13
Energy = -48.80874456 eV
Pd 8.42174938 8.42174938 8.42174938
Pd 10.319819995106387 10.319819995106387 8.42174938
Pd 6.523678764893612 10.319819995106387 8.42174938
Pd 6.523678764893612 6.523678764893612 8.42174938
Pd 10.319819995106387 6.523678764893612 8.42174938
Pd 8.42174938 10.319819995106387 10.319819995106387
Pd 8.42174938 6.523678764893612 10.319819995106387
Pd 8.42174938 6.523678764893612 6.523678764893612
Pd 8.42174938 10.319819995106387 6.523678764893612
Pd 6.523678764893612 8.42174938 10.319819995106387
Pd 10.319819995106387 8.42174938 10.319819995106387
Pd 10.319819995106387 8.42174938 6.523678764893612
Pd 6.523678764893612 8.42174938 6.523678764893612
