15
Energy = -58.45949022 eV
Pd 10.623710835312167 7.691259685958774 6.894650764644829
Pd 7.380951271208229 7.743238732035982 9.015274093889747
Pd 10.49480569748217 7.679995867234146 11.325668072189547
Pd 8.299100373287 9.072800373314859 6.822458753913692
Pd 9.909128160664519 9.05572729837364 9.088725324911929
Pd 8.183105534903092 9.072237999382422 11.260257688897704
Pd 10.545919381027838 10.409134090528376 11.320915713730255
Pd 7.425135260578482 10.41799792253086 9.023411850525852
Pd 10.644292889831586 10.415847127269922 6.890570406789499
Pd 8.310505339289698 11.697039769850232 6.892017020809933
Pd 9.8062237403784 11.680947068244679 9.08230691385578
Pd 8.218049187259085 11.696389897770574 11.200301209955374
Pd 8.124554662280122 6.452949183130747 11.19049428171962
Pd 9.74034927835015 6.437631897289823 9.084427736619142
Pd 8.26793088814747 6.450565587084973 6.882282667547357
