14
Energy = -54.07348432 eV
Pd 11.480889518602945 7.068893983116074 8.876396472664064
Pd 11.414304066321993 8.86495678448011 6.97108050279434
Pd 9.263238558365655 7.380368408799091 7.459640528401031
Pd 9.186865180576872 7.802981434609175 10.048487760894274
Pd 11.118736562701123 9.61827275486745 9.47739748195025
Pd 9.137586783966809 9.99666067842476 7.7652676021451565
Pd 7.047452087429679 6.806714624253225 8.825221534676961
Pd 6.980653612057287 8.628076896286382 6.9428035919635445
Pd 7.8079407929156925 8.855741771448814 11.99023335947725
Pd 10.4350955191817 9.019059869265133 11.994279854568145
Pd 9.04507467661758 10.864824973160424 10.775498025515304
Pd 7.131116258998674 9.374347399288707 9.466471135997901
Pd 10.324483137805972 12.087914676568492 8.803635451289963
Pd 7.704075174520571 11.917116799934853 8.78986812032669
