15
Energy = -58.14805158 eV
Pd 10.971835124514074 11.260758932485714 12.591682189633772
Pd 11.036132920946176 8.668656950314434 12.208879598154072
Pd 11.020314227896987 6.169582261522894 11.584007402925112
Pd 11.430226936713265 10.370292151311082 10.173806721993877
Pd 11.587059446477166 7.740879747290737 9.625623757566352
Pd 9.976268288395692 12.670174725286383 10.607047648149347
Pd 9.037842308803496 7.553207059036929 10.696818920677543
Pd 11.509981697032526 9.523894679562172 7.6740496900007305
Pd 9.40514197734184 7.983130507608443 8.144398965289907
Pd 8.973861700880034 10.168315933308328 11.295842108114009
Pd 11.342512135617147 12.202436573469997 8.301956507639424
Pd 8.921626957633716 13.252112797588426 8.289045927840807
Pd 9.21767510383828 10.611070996302265 8.460496159289127
Pd 7.2799929080679915 9.159422988692377 9.5324438106191
Pd 7.4448392107797225 11.820533636075567 9.972741418794996
