15
Energy = -58.06033452 eV
Pd 11.402161703522165 11.72826189101993 10.838917609868902
Pd 9.975301160850547 9.745365013977992 11.975477894708478
Pd 8.625839740312744 11.647325063102112 10.474394476286431
Pd 7.348971833107369 10.227183686174795 12.312547502855352
Pd 12.44917360199201 9.240402877068274 10.870717273053206
Pd 10.296838088967998 9.996506890707645 9.331310184638676
Pd 12.760635583379042 10.643323974074228 8.586553645501867
Pd 8.113290956532403 8.676582308467303 10.34910340830796
Pd 10.452321720809332 7.446648045213894 10.502290170132527
Pd 6.291288733619579 10.488645785411004 9.826059600014469
Pd 11.998799827059685 8.0663770870401 8.360385785163631
Pd 8.155990417653856 10.429350401939521 7.892380854361264
Pd 10.672211431289538 9.843038165019145 6.817492527546771
Pd 9.263176800467496 7.893761592652636 8.037805697820783
Pd 6.608744746129542 8.307134339714741 8.238845922720138
