15
Energy = -58.38614962 eV
Pd 8.946377138688293 9.593119522918965 11.268126542613544
Pd 11.574537333600656 10.002162870494395 11.693309568326466
Pd 7.792511106770262 7.170289345825691 11.406244496612716
Pd 10.539367055261396 7.469762347953328 11.24873186322661
Pd 6.601712963814309 9.092506662311859 10.035158003021449
Pd 8.955679768603753 7.607214952188896 9.080634168317065
Pd 11.04707117238885 9.178189381817681 9.243882393312637
Pd 8.519733932779635 10.401283756576492 8.776658421864969
Pd 12.623464655122035 11.300011631284237 9.535104422361822
Pd 10.171960545114798 11.78439817007792 10.305277501105534
Pd 10.695596926360684 11.261187567991758 7.623414090726386
Pd 8.490165191623753 10.746242586356315 6.180280281764819
Pd 7.235022166727213 8.648016071801791 7.334840499994184
Pd 9.955829442448362 8.691184923089452 6.846858441481988
Pd 6.4794755100813095 6.682935209311486 9.049984214655504
