19
Energy = -76.07552191 eV
Pd 10.623695650936009 8.075763229000206 12.975119839382783
Pd 8.31301041366804 8.095760377061582 11.592955562687102
Pd 12.221563681681095 10.173628496977068 12.429421755997916
Pd 10.345472999360789 6.519116627287068 10.679155444884882
Pd 10.547734850461424 9.21515200740499 10.578517989142584
Pd 9.397326879112233 10.539815879356405 12.552613758380327
Pd 12.76138690862326 7.802695791556134 11.186694749592334
Pd 11.721829911594433 7.750777307795791 8.660619056854431
Pd 8.970375932673887 8.022126792599364 8.799266735755282
Pd 12.868031809066332 10.117352190103315 9.62929633081581
Pd 8.159517694436758 10.283763549429704 10.136018249069588
Pd 11.026964624376069 11.842231138810059 10.787589150616448
Pd 10.605714996957856 10.099972928712257 8.109865153684414
Pd 8.006612534607415 10.222946160676052 7.522867791373007
Pd 11.950060695557356 12.37941062640059 8.396315075432154
Pd 8.529230480393291 12.717251034108035 11.12900087839128
Pd 6.757270363744308 12.17650474528612 9.073295674393357
Pd 9.28831426053957 12.345237561370089 8.514742465779436
Pd 10.47027858854658 14.206213167712907 9.871868537726607
