26
Energy = -107.30976992 eV
Pd 14.071373300527704 12.086684264498423 15.833192849032677
Pd 13.059106710740465 10.315158187440792 14.16885435693467
Pd 15.140662387141655 11.852886141813745 13.41753013362308
Pd 14.648958227275351 9.45867963538071 12.235886163460256
Pd 13.01510595744526 13.456578085030472 13.843709223015992
Pd 11.42397096807171 11.998940813384861 15.332498199365913
Pd 15.348367700102271 11.575293137959301 10.719243536769186
Pd 12.763903961436105 11.665233668032323 11.89508161709215
Pd 10.585405450431319 9.455466673423198 14.317673638160572
Pd 14.588042539779805 13.94149688943607 11.771112935133251
Pd 10.51162903199172 14.238630738549407 13.818164878322632
Pd 11.999386297014523 9.084708937290932 12.020271152180966
Pd 10.05629116416398 11.743781027292533 13.161742223015393
Pd 13.423145965248176 9.9297429364215 9.943540199879068
Pd 11.927205905502435 14.192191913926258 11.486590878999753
Pd 13.382676004166514 12.976652956719866 9.623214653606448
Pd 9.420301281252927 9.413480936165419 11.921951139217729
Pd 10.883692401911615 9.21557725645823 9.40320842449774
Pd 10.458738150884425 11.472373565619629 10.519421547715007
Pd 9.364750528232568 13.746631418743426 11.470755612401524
Pd 10.819830590545324 13.469952345428373 8.962011170366075
Pd 12.185539441770723 11.257782841029998 8.120846590746716
Pd 7.805318429708852 11.563931485213466 11.757713463130747
Pd 8.20110706071124 9.971972014720057 9.655209489074318
Pd 9.643552792476948 11.18145981496285 7.787180184686013
Pd 8.162181264092727 12.702521845317344 9.374199651674829
