23
Energy = -92.44495855 eV
Pd 13.23473159523613 7.767750421957115 12.544478345950862
Pd 13.764884467462368 10.285817487445449 12.082127779416588
Pd 11.916862485737186 12.182990976536534 12.165807820209407
Pd 13.1625561132834 11.414166238617605 9.784403971462462
Pd 10.771068409197813 7.233265045965327 12.082575078338126
Pd 12.072634787353387 8.992657495846132 10.402729911726196
Pd 10.542978953253648 11.657913920071667 9.984015625389576
Pd 11.346623805798952 9.694590927504427 13.007038418139706
Pd 11.772948696831115 12.784129951976254 7.981914434963567
Pd 11.40987953830659 7.557727822806719 8.37102074043018
Pd 11.745397836893304 10.132899162424605 7.85617421459199
Pd 9.32269892239862 9.160786265322246 8.373126326303224
Pd 9.544016419325478 9.372233073794186 11.03542017835695
Pd 9.483760513353527 11.581795283144855 7.466375954928497
Pd 9.348354830796788 6.9379012535704065 9.897098478532463
Pd 9.704348255314684 14.187666504426533 7.195988740587184
Pd 9.38241578989759 11.49206123632539 12.503852198561875
Pd 8.066879126632948 7.405036401321187 12.143315366638404
Pd 7.938975139917896 11.43036808177939 10.233729345724242
Pd 7.0775201204929274 10.515734498248682 7.942973169415939
Pd 7.192638403968159 9.973531092450395 12.28831329708278
Pd 7.641450774413269 13.185170561877877 8.37733872286763
Pd 7.15142086670156 8.647783425511818 9.905645536218056
