23
Energy = -93.75328555 eV
Pd 11.863390760327274 8.107329324394435 7.653635107597809
Pd 10.172201817512084 9.512653209604224 6.097480457599881
Pd 9.315782958117229 7.225764331434425 7.144832751430962
Pd 12.519171448104052 7.08190528267338 10.086649521063231
Pd 13.334664799267337 9.524922699277909 9.410876281576698
Pd 11.16443030842541 10.598928297176858 8.306945797879893
Pd 10.062524132505681 7.944283526035641 9.529806403514792
Pd 8.401228145630963 9.688427471196688 8.095357317431331
Pd 7.427040880228098 7.505990663418456 9.120103944658032
Pd 9.282830141568946 11.933644153600675 7.004394811318464
Pd 10.58326499199728 6.875786753734717 11.94846856184477
Pd 11.611181005902814 9.25171194413414 11.444100051931105
Pd 9.498995501990988 10.563499915204929 10.394726326687179
Pd 8.349379536202866 8.234483205569692 11.502381728787492
Pd 7.660856872110592 12.148018614218659 9.133994013781876
Pd 10.221344183185328 12.986300918888567 9.253295568988218
Pd 6.773390432132359 9.925523343117858 10.24427183637389
Pd 9.913546893304934 9.028185262476889 13.494192010933299
Pd 12.228333523255618 11.672781827409507 10.493171647383333
Pd 8.618433010290808 12.975398561278027 11.46157924386764
Pd 7.961093350481031 10.683070107980889 12.585887914268216
Pd 11.14437209195103 13.785285871774542 11.619722291266132
Pd 10.601525029410238 11.456740277753033 12.694551146338894
