21
Energy = -84.37469234 eV
Pd 11.889615637388033 10.250110241246388 6.947328833149979
Pd 9.820278746197818 10.830654719880027 8.517842021576099
Pd 10.511456834946982 8.29539419086572 8.191620827531203
Pd 11.86277681696434 12.441494869940868 8.405435380840702
Pd 7.230542976827655 11.404008825668535 8.298839159125928
Pd 9.364299872559048 6.99319531008498 10.26586525169366
Pd 11.107322305220675 14.46231936851904 9.830526144019423
Pd 8.037278865149153 8.917012738188975 8.919790478052091
Pd 13.196400780172189 8.187838457677724 7.915861464677432
Pd 5.860561305031599 10.039074573230918 10.06724317207913
Pd 8.956179521044636 13.177086705089348 9.233929613100942
Pd 12.10249004836882 7.539919377775698 10.192075126276066
Pd 8.178174703497103 11.212227335292743 10.861797347696069
Pd 10.1473279860348 9.383584619975698 10.904714166853454
Pd 7.543372008696318 8.717083267544785 11.544177154817767
Pd 10.842132732358086 12.116588625699546 10.938069378202728
Pd 9.746585360398802 11.05782620326711 13.041183650986106
Pd 12.384955377352 10.120693079790794 9.621519289994366
Pd 11.670013202737028 7.952888896915453 12.681759616607557
Pd 9.276532004184729 8.532395690374292 13.422382573566523
Pd 12.307406360823634 10.438906300019424 12.26195323599527
