24
Energy = -97.6361631 eV
Pd 11.38256844192336 12.355335883863413 7.809481454095184
Pd 9.047859547628931 12.46645356544237 9.201901623132512
Pd 13.685802100755954 12.301525193248663 9.09758469286666
Pd 12.37422279219439 10.029769901379943 8.606338630882034
Pd 9.02080476229365 12.331741933944876 6.592220492418052
Pd 11.455364618004758 12.82262193456398 10.494486318342206
Pd 9.119883404604463 12.759514229114059 11.738735048097977
Pd 9.846018254118428 10.124226064588672 7.75450108461973
Pd 14.858171734855539 9.866305587011597 9.521111895607602
Pd 13.120788799057623 10.79472259196234 11.270960633450727
Pd 11.294089256344627 11.67616118029892 12.94536328766407
Pd 7.25761483889136 10.86318701683974 8.098081319043578
Pd 10.407746671965748 10.394386790714952 10.464185832266315
Pd 9.121282273485019 12.486144925778335 14.347838286068123
Pd 7.757687069643789 10.491987175815227 10.73598208384433
Pd 13.042429651344472 8.184557883248846 10.40648853109477
Pd 10.707634385193288 8.020190275437542 9.118242591867968
Pd 7.002624814775368 11.760844874029369 12.95506027666686
Pd 8.073595016142152 8.512603836039808 8.919537596556406
Pd 11.451939582342106 9.022475533304958 12.469632277437563
Pd 9.082501622483617 10.140931628325081 13.11917433025806
Pd 9.015012774849044 8.174350340344422 11.454368858409454
Pd 11.159094210400971 6.591741707275739 11.343496669016092
Pd 8.984223534548713 6.142776581935621 9.793059516246084
