29
Energy = -118.48006881 eV
Pd 7.132671744065289 10.853329860429167 11.342572740662947
Pd 14.435889556681097 9.314397519766668 9.677935485912492
Pd 12.419693554701837 12.17169196415098 6.912487096852127
Pd 10.415418279350504 14.120756474952953 11.646204864958793
Pd 7.825259185025562 10.777956613482575 8.61064185690144
Pd 10.014466377980606 14.043730075710828 14.233723390129134
Pd 11.787803981491143 9.022311511203647 10.009559017328508
Pd 13.47756206627024 10.840957049640297 11.914850200258211
Pd 11.11033555857781 9.253145815613212 12.575798269399044
Pd 11.28160804412657 13.43275950602458 9.04089159812354
Pd 10.427428326858182 10.924538385635747 8.382025956716001
Pd 11.975407317355437 12.53830314424398 13.388241726295526
Pd 8.504345181511063 9.339838251379318 13.003712067973177
Pd 8.756693049311558 12.559907984248316 10.219190709167501
Pd 13.127251485613401 11.555901012942643 9.36215940103923
Pd 10.900318069384781 10.345906103605266 5.89749814077884
Pd 14.810836032755248 9.449864597783433 13.710006897728658
Pd 9.268236596771711 9.547667793007918 10.483628551791979
Pd 11.027874049124435 11.48102066222018 11.037400899075818
Pd 12.654551513052485 9.40423593097715 7.572033712229314
Pd 7.973170187369551 10.761332432163524 15.122688163163094
Pd 12.530796793166786 10.192686047983829 14.570081572745806
Pd 10.127198075189488 9.09315664394249 15.087520259168285
Pd 13.45589723622549 8.179814903565209 11.910130133156503
Pd 14.807085939219347 10.85967735304226 7.477983309389092
Pd 9.129913122925387 11.895732579451602 12.936540292928639
Pd 10.410246007187528 11.66935357545262 15.312658075201124
Pd 13.015269270565538 13.461797649733011 11.175481362108627
Pd 9.270793731944739 14.982248891449425 9.460374582619552
