25
Energy = -102.0776179 eV
Pd 6.932128206379122 11.492411979848463 13.473237740522517
Pd 6.336340001304341 11.489431301777524 10.858747022500728
Pd 9.407831486408917 10.730450822368175 13.871129770894884
Pd 10.398258880413668 8.749759928511082 12.382228299504737
Pd 7.783308667193013 9.486778503672484 12.01452641740024
Pd 8.869873822609678 12.041456432141787 11.648020709334034
Pd 8.08543094532458 12.576547862138888 9.227885249774175
Pd 11.913282409454837 9.890970793991636 14.20113814348167
Pd 12.95407177052583 9.208489046350785 11.830955326670923
Pd 11.457671009469925 11.631105419321743 12.272598676310636
Pd 7.717083181771595 9.870871405928622 9.259913639742901
Pd 8.887809048280774 7.639453740665114 10.619907531953698
Pd 10.803854581445043 12.946689084119315 10.060328417899413
Pd 10.17827851127236 10.212258363324906 10.207715379889732
Pd 7.459894918406863 7.291783624841493 8.472028918598205
Pd 12.708116701769534 11.037253224119576 10.005095931614413
Pd 11.496706149172189 7.91113264083046 9.929959684555248
Pd 9.93474434641958 13.750306319596794 7.699381534840485
Pd 9.776235652704553 11.132226318651066 7.777145829854027
Pd 9.866317509191997 6.122754201091895 8.732150965110247
Pd 9.653770116531893 8.566843486355467 7.867436585791055
Pd 13.982121659977969 8.70846706960636 9.458472302656697
Pd 12.17368308011714 12.313976028179185 7.764240397582834
Pd 12.020520861058145 9.553081583209476 7.753465912730713
Pd 14.322491993222831 10.813621112081528 7.8323634342124375
