21
Energy = -84.37016099 eV
Pd 7.111527722801073 11.583333083330544 8.993596965215458
Pd 9.173296982051932 12.791681101563965 12.967334121557556
Pd 11.394525231581063 11.59734644126488 14.071734995839753
Pd 9.541401277064296 11.402911799430969 7.9425206362225165
Pd 13.067561176953651 8.529964016750382 10.50738917234271
Pd 9.27444481925246 12.546399709803408 10.271578183169401
Pd 11.981947541421173 10.794710789504144 7.212699915514713
Pd 8.073781869245284 8.685077139915954 12.111028396663794
Pd 9.963391133919968 10.477458725153271 12.103462842551071
Pd 12.015917003506797 9.066479836915724 12.980526877572443
Pd 11.298817505395322 10.286178481826353 9.734408546607138
Pd 13.394245357580642 10.856965086753645 11.671775615903744
Pd 13.809649581045626 13.234325934693972 10.554333080015295
Pd 13.577275262760107 13.00542593666023 13.279161168651822
Pd 11.471885826739934 12.745012773548952 11.6529800215392
Pd 10.478609091020967 8.065964309683647 11.069925268023033
Pd 11.68119774036062 12.810652587126057 8.977233298761167
Pd 8.710152557750515 9.64338174881814 9.751416707658342
Pd 7.350933361161627 11.235319225556966 11.617833850739194
Pd 13.822978730713798 10.957723314163838 9.06551923969988
Pd 13.792526932087998 10.525172631775899 14.250805224646422
