23
Energy = -92.98784761 eV
Pd 13.230641991347717 8.786141215589826 15.078021534000538
Pd 10.530525695118275 8.726798728892444 15.169369079410885
Pd 12.087110074648514 15.057494494562846 10.488667169830359
Pd 8.855337920145693 13.59961040293454 14.538208984684207
Pd 10.37862353788431 14.708577848810325 12.61845338050568
Pd 12.271119246077486 12.959811148985581 12.062363106673493
Pd 9.82226294983418 9.366540423918122 12.529413408139586
Pd 10.805365317366324 10.980168302421953 10.577084795054645
Pd 9.96542156066097 13.456932415833212 10.212499303825242
Pd 11.771002405535388 7.5435104747614306 13.197500759370099
Pd 12.021182883188276 10.552997518249628 13.32274720116325
Pd 14.024607354421835 8.822587599316295 12.573592831022625
Pd 11.4295462419131 13.002809277695036 14.513681635851926
Pd 12.342240513987349 12.6756398082805 9.206630720180602
Pd 9.536007747933894 11.074686475694559 14.817942280276599
Pd 12.404271977328701 10.039966724135532 8.659228785009839
Pd 13.679567905177677 10.993625276069656 11.179229720880942
Pd 9.553917717079564 12.142522186164856 12.459974904743088
Pd 14.457506968772758 8.83593411408448 9.892640810361696
Pd 14.4124881730667 13.483787276597827 10.601355616526794
Pd 11.937589572134144 8.696632712785329 10.874333242826868
Pd 11.932654923900037 10.898902646784064 16.0091751315167
Pd 14.707169087661557 11.389939081146352 8.809084705809493
