24
Energy = -97.77664376 eV
Pd 10.68247598566928 6.781138876869646 8.584098194634134
Pd 10.689339119011178 7.817409137581048 10.982384820969095
Pd 8.602656838233061 7.167233308784949 12.415669315377063
Pd 12.383057115765949 8.784254439390033 9.187482256446652
Pd 12.511408967523803 9.636436842902313 11.774492088523234
Pd 8.35033537677633 7.576656628251227 9.740415919229797
Pd 10.275933620491582 9.254632901575585 13.1534317333718
Pd 9.62358737772935 9.088924181093626 7.873207105666097
Pd 11.670421515588453 10.74418285920474 7.333913789961959
Pd 14.371371206276775 10.203592470803653 10.060845931700857
Pd 11.86516731096536 8.22844993593798 6.675612756481214
Pd 10.182180771017968 10.296250040680263 10.120335500300753
Pd 12.383369232280197 13.694770611116436 11.447734695693478
Pd 9.283979782991823 11.836515671655349 8.06105353622988
Pd 12.370351006689729 11.761782155240372 9.66371021654036
Pd 7.774215806770392 9.082827868366202 14.071072458017197
Pd 10.985004570852169 11.673512347020367 12.213722951035056
Pd 8.015021103001269 9.562002117578931 11.462995522186667
Pd 7.466322305643185 10.142216486645614 8.975284550927697
Pd 11.439709661089527 13.305154043413946 7.5553483168305124
Pd 8.540526749538149 11.444889567956004 13.240094665627213
Pd 10.341157461084634 13.457272062441092 9.891416762853938
Pd 8.172736983699684 12.13944086415851 10.63187325372164
Pd 9.470655611366984 13.771440061389423 12.33478913773053
