20
Energy = -79.85325984 eV
Pd 6.6925749541883555 7.953723541097548 5.780673182967133
Pd 8.627873706684417 9.775527067218208 5.313941268242683
Pd 9.210964084023534 7.658850110086507 6.838789018659939
Pd 7.604313881639358 5.572770493904973 6.463981849771175
Pd 7.410947420878446 9.719361629397072 7.687696568281353
Pd 10.744651716931383 12.443213005613035 8.258214283950217
Pd 9.092842608364053 5.737228889938804 8.643983169102409
Pd 8.498109960982958 11.99248941899705 6.818702362489128
Pd 6.844282994871851 7.26933394756913 8.351099189947538
Pd 10.244790565239859 9.958078452362379 7.4350079309735015
Pd 9.512160697302116 8.290563406451696 9.50872011194152
Pd 8.633043410917928 11.24516439620507 9.369924532828456
Pd 11.352566524040443 10.371428432091074 9.792856888953475
Pd 7.148780973313526 9.116005032265436 10.34733611143876
Pd 10.401365257771772 12.58737608023692 10.895266441022807
Pd 10.130334098868707 6.1002999961338364 11.025306161856237
Pd 11.214329258227838 8.45949337668955 11.596956506183615
Pd 7.498578301733704 6.380689155042598 10.689511746211933
Pd 8.699614959148033 7.927703554141823 12.391863037505235
Pd 9.326486194612743 10.329311584298136 11.678781207414643
