24
Energy = -97.83885263 eV
Pd 12.475762384662747 9.589371507450707 14.605237014823684
Pd 13.948578796273326 9.480048748450342 12.4061723743572
Pd 11.086546308440301 6.704526476873622 10.31662625255975
Pd 10.019462319447733 13.706495842827099 7.241274436336411
Pd 10.625397282188043 12.791269709851804 13.66679945576288
Pd 10.356117224705391 11.092650710321168 7.212448200710551
Pd 9.599722686492957 8.486919134935214 11.422771739385533
Pd 13.380326870771617 11.349316770791399 10.563334905803726
Pd 12.668264435472864 10.27822540014632 8.162561575501178
Pd 10.20515709603239 8.794247735490595 8.711627778265292
Pd 13.174879232477616 11.909828491833576 13.228259991723991
Pd 8.49871202045522 12.341596536358598 8.878260942817615
Pd 12.054918365776766 12.853764369746765 8.729568487066192
Pd 8.02475883493286 9.980120586536504 7.754212667349475
Pd 12.317826531633655 8.973020165158943 10.386398595302534
Pd 9.990822977255368 14.285983592261829 9.84120020562992
Pd 10.53073849136982 11.10350721522206 9.96659480108322
Pd 11.133468290878769 10.467563254258623 12.431217562943996
Pd 11.812801763017228 7.7863116812371915 12.708790490823729
Pd 9.018278858837215 12.520805887290512 11.616479309335094
Pd 7.9603318927321665 10.183651408027258 10.338412702911551
Pd 11.794856945856516 13.301165370819827 11.393083678286853
Pd 10.085981510928361 10.61814792223202 14.950161121551638
Pd 8.481878447340115 10.301802808795998 12.909167666012962
