28
Energy = -115.75021282 eV
Pd 6.782653482639128 9.213092698001626 13.77868827496068
Pd 6.065241110790255 10.844286049160347 11.680332541669015
Pd 9.403105249161367 8.853532860895642 13.552947475281004
Pd 8.259412445733496 11.254661976118703 13.1241607716061
Pd 7.803659392805927 8.578192312806918 11.457703984563349
Pd 7.575874694105303 13.141825651413162 11.342261079844121
Pd 12.069772227243378 8.749469488516612 13.153583909455747
Pd 10.691051282857337 10.809261003787542 12.179599260383492
Pd 9.858989946123334 13.295637537357141 12.789194315830217
Pd 6.393572043361688 9.452161494250747 9.377234575652942
Pd 10.408129154824215 8.102945393318173 11.142103647824788
Pd 8.823362263359888 8.33399867733826 8.985346324995605
Pd 8.443334803872775 10.87237999556698 10.31164420277255
Pd 12.374476876038601 12.851022536065855 11.737053044940412
Pd 13.910512241906474 6.913629380869196 8.549988777107401
Pd 8.139546107001868 10.569991818606253 7.646597787678103
Pd 11.318887885767731 7.463136926510994 8.689322963949033
Pd 13.010884705998706 7.77905164353289 10.865019223841257
Pd 10.874640741938714 10.164217284343692 9.507832913161257
Pd 10.246803168157347 12.902722704381373 10.204720540163706
Pd 13.163534509250594 10.386465596392126 11.29404587106714
Pd 8.093047830002236 13.025453723054364 8.713638320051803
Pd 13.355537683988606 9.495905093929228 8.797368944804878
Pd 10.419986649937838 9.416826080439577 6.998018064637475
Pd 10.379789130247357 12.100050127779284 7.6498081001582925
Pd 12.745735319307506 8.255887809797816 6.528192861073963
Pd 12.682950464661637 12.113671045828948 9.17011605469422
Pd 12.598981509332683 10.961908854361912 6.738072295677569
