29
Energy = -120.60095318 eV
Pd 13.152024953728883 13.051212815732265 12.79524690568897
Pd 12.259569862273686 14.922490285360261 11.097022171151808
Pd 11.424626933022642 11.953810081730849 14.494028009149147
Pd 14.1107635942044 11.584412384327196 10.799662495773207
Pd 10.429713823868395 13.769406892533961 12.745514497040714
Pd 13.021146562076934 13.406555671692198 9.078966762056774
Pd 12.41140706588609 10.400516667954728 12.529290291752162
Pd 9.894440436113204 14.28104487295088 10.156412139398965
Pd 10.789217349823785 9.363467581997076 14.316934136769639
Pd 11.437616511795657 12.200814643021289 10.90756435692574
Pd 13.518679288958163 8.966689809221718 10.492697411293788
Pd 9.470874866127273 11.241051316835561 12.8785268879007
Pd 12.445785819964614 10.85628376927493 8.819761476860029
Pd 11.78830778735532 7.758201541842341 12.403760459451997
Pd 12.37976707851385 8.40008698870383 8.003369190835263
Pd 7.249375656609444 10.388215391162475 11.523810692287096
Pd 10.886654368087648 9.119030114806332 10.307879388261178
Pd 10.525261294312728 12.573460562070746 8.209278036068381
Pd 12.221179913408035 6.626268294045677 10.00375063131608
Pd 7.996957100291256 13.023464540962916 11.570176836784318
Pd 9.273033160596642 11.161585590358646 10.110574926631191
Pd 9.769690940431285 6.468312835135671 11.063548507801332
Pd 7.937957166337774 13.094846217384633 8.825048631492631
Pd 10.041238086154378 9.860700882930448 7.810929178873389
Pd 9.19759369109847 8.697364906550671 12.340556855427902
Pd 10.092743292449418 7.1345477389378615 8.465910947571814
Pd 8.253089469046811 8.424134440614377 9.938895223489267
Pd 7.408840402900994 10.521574458342249 8.437342461833202
Pd 7.997737328471467 8.211274682885435 7.324901220913371
