28
Energy = -115.94068876 eV
Pd 12.964974677562344 9.190150296007886 8.109285057418495
Pd 13.936942208590501 8.051088534170237 10.378024622377678
Pd 11.32319236597369 8.232573055886276 10.07993992883588
Pd 8.575235286510456 9.160548380309212 14.225219403162079
Pd 12.38387037445472 7.860513337377252 12.506390709668235
Pd 14.729328454097033 10.535560418975068 9.626409871059364
Pd 9.698323622833797 7.78582863659506 12.245320772570643
Pd 8.692886029964122 7.810876867735368 9.8019740871419
Pd 11.44929390242447 10.95155221991734 9.268596301944191
Pd 13.732996352612494 11.838721428006542 7.5908318412741735
Pd 10.089541594827004 9.162897774396969 7.914777395025098
Pd 12.894153722158734 10.30136256491838 11.473492978863096
Pd 9.736060764949677 10.211392608331504 11.119426267959962
Pd 10.816550907683302 7.6928788758046585 14.621206741984121
Pd 11.61582731267746 10.820413424202954 6.425606572632576
Pd 7.398717777271507 9.31038875135387 11.760678783334068
Pd 9.215784834070892 11.63356867925118 7.25498644542717
Pd 11.091128101761182 10.078524661507474 13.438425844351947
Pd 7.915729766120872 10.310726036179107 9.201601575233386
Pd 6.96553303033137 13.283780300960261 13.407600812292866
Pd 7.2724139084001935 11.936625539321627 11.21245552530413
Pd 11.237024583886958 12.339323717907773 11.954756341840216
Pd 11.396788461027876 13.180198791837322 7.879697751052075
Pd 8.894445132716413 11.539569727329098 13.28385739924562
Pd 13.191005057831477 12.673416761154064 10.123246995308653
Pd 9.369051641693748 12.595768329739183 9.673170609623547
Pd 11.177981891438094 14.420744034873863 10.282407561227762
Pd 9.047782632248019 13.903570642068496 11.953176199959083
