20
Energy = -79.61523525 eV
Pd 9.826418459928643 11.644445993342515 14.9929366138634
Pd 9.554492183828788 13.588211831518022 13.191336361814892
Pd 13.023618745298897 11.866939484290915 10.86930483830316
Pd 11.72412889032156 8.310005249242206 7.62812363426126
Pd 10.43157955304918 9.799833118009378 11.100836140629582
Pd 11.50483104452079 11.776224564323147 13.002700522661737
Pd 8.605729274953775 11.717388138512375 7.633222546857437
Pd 10.804833022536322 12.80283548337047 8.373879077554024
Pd 10.064586451466127 12.561591907219464 10.749176056564869
Pd 12.851105073316312 13.971765627502519 9.36884655778958
Pd 11.413333924399604 7.457488222418429 12.191983187727564
Pd 8.141529953677491 11.07032578815442 10.105616358963857
Pd 10.372128026411877 7.350777528188498 9.745662956316417
Pd 8.657160048887793 11.10758396906972 12.672105257959931
Pd 12.76827012775963 8.423179258280276 10.06673400806933
Pd 10.563320833770192 9.408988271883828 13.738120333362943
Pd 11.892317129931069 10.600314835311666 9.012581639723802
Pd 12.95372996259957 9.664756960690857 12.343568513691544
Pd 9.547782250546401 9.49403034295455 8.53538534626964
Pd 11.803621778142473 14.136912214985385 11.743746911606703
