26
Energy = -106.61740992 eV
Pd 12.84243780579289 13.295175400133974 7.192225949155971
Pd 12.513095149025816 8.438179894394287 9.002224690550385
Pd 14.026284616823405 11.412153115855382 11.940666139096587
Pd 13.824457899304084 12.49481750374161 9.540415334692888
Pd 13.334188501639582 8.926750535671841 11.46673524453954
Pd 11.391742966342134 13.56363284388947 9.325373116346878
Pd 11.89870720834244 12.973750423061041 11.88853353412731
Pd 12.722048772266241 10.752767673016129 7.768468911039751
Pd 12.447043844396344 6.527485249575532 10.875876132235321
Pd 9.657547010413307 14.159008004232698 11.269934445255855
Pd 11.726597140763927 10.51153150856998 12.949012505711645
Pd 10.420164512498545 12.10270237789425 7.232832773299449
Pd 11.84687123534895 10.860917043334112 10.244693503133309
Pd 9.53243404881891 9.945296619887595 11.065110337248143
Pd 9.418700583883655 11.976127448169773 12.695514022847005
Pd 10.1706562435934 7.469333684810926 9.962589274026469
Pd 9.184298860102365 12.17122200479634 9.656380620766699
Pd 10.254768172625612 9.680663337812124 8.404310754192439
Pd 8.050456440596633 10.849880481893734 7.686395927794511
Pd 9.433205511880251 9.563712388038132 13.899887416923631
Pd 10.936124814555733 7.966009387739148 12.464532898399197
Pd 7.24168971769601 10.398361797333866 12.68254127618392
Pd 7.895446651117937 8.56594658913467 9.26734993182526
Pd 7.044919486169175 10.902063348171604 10.172788729929122
Pd 8.273610718097004 7.8415342366649385 11.948740185196378
Pd 5.932849977272539 8.691572824394147 11.114122679174812
