26
Energy = -106.53789704 eV
Pd 12.942107103780605 14.228019450926766 9.424504650140456
Pd 9.776032071037774 7.9995018197723935 9.674884255173746
Pd 10.413432832143855 10.52957350579437 15.711674796532838
Pd 13.22847897324251 12.918734764847754 7.203239316434325
Pd 9.850283656967195 10.24358764005119 8.098468032873035
Pd 12.2701915691096 9.181956867707363 9.376620585455429
Pd 10.127990208760384 12.889516953894812 11.717536332933909
Pd 12.7893913467689 10.237276747368519 11.713825796977195
Pd 10.345585320959165 14.446743925469022 9.429078527676182
Pd 8.770849462754068 12.319824371056068 9.299585397557818
Pd 7.636050273876989 11.51455094594246 11.546189587486774
Pd 13.944261010019519 11.387546839412597 9.417957033066003
Pd 10.5113645076621 12.758642400421646 7.1783889824661316
Pd 8.467793407302931 8.743881885965209 12.01899609813189
Pd 10.216460455702451 10.33413670360452 11.001556348430157
Pd 12.25356909146052 10.530780825149884 7.09671260909194
Pd 11.10693629501753 8.111818177552603 7.27924209956371
Pd 12.841555304450544 12.857904253136539 11.62990719170058
Pd 11.489269107718812 11.96575746706729 9.469960370343122
Pd 11.069764486303477 9.1915819765158 13.544561624249425
Pd 8.687196756820525 8.747928348618872 14.797371589683047
Pd 11.701022061263766 11.79778617079912 13.709805091139238
Pd 9.124661285800487 11.085622541350318 13.533258834803345
Pd 7.750997915988638 9.791443068252503 9.592416619549304
Pd 11.62143381624858 7.738398489671303 11.494532568810786
Pd 9.797797985542212 6.887147703308883 13.253566941510432
