29
Energy = -120.72634769 eV
Pd 6.834918107402202 8.058518379192972 9.55836262934598
Pd 7.097760754537244 10.078369194576547 11.232345795953965
Pd 6.8427729113797655 10.50068183180775 8.498385432252649
Pd 7.512055042500004 12.865777665015644 7.574830001431591
Pd 9.064341675859213 8.21175716086776 11.120336022339014
Pd 7.545906051809977 12.193429309799228 12.754897451079504
Pd 7.538786567674055 12.608277136692067 10.160419759550487
Pd 8.950122109787559 6.354260688090276 9.189700188987082
Pd 8.633220420357482 8.539799036152397 7.74665136959212
Pd 9.256678637967893 10.493359274627016 9.649702157100707
Pd 9.361113282505094 10.286126649634875 12.730745484995198
Pd 9.244680079662688 11.012988095944204 6.962709628642991
Pd 10.988777137844764 6.388337337480276 10.948039395508825
Pd 9.954212315480408 12.953990547497527 8.728366388766453
Pd 9.860978336811767 12.666489245794205 11.40664554464848
Pd 13.076561546361836 7.972809123898214 10.571494828602143
Pd 10.921751030402927 8.219984576178392 9.035443176652928
Pd 11.322980978746907 8.405082586771595 12.70083027195095
Pd 11.526119448286881 10.318884611231882 10.937594036912587
Pd 11.895365972666895 11.053790942478816 13.37437874943936
Pd 9.851308296211698 12.61236238816462 14.097092175952726
Pd 12.207196734992513 12.752256204277366 10.149496934092992
Pd 11.70158978227078 10.920913258515494 8.23909406048842
Pd 10.926826373556846 9.021441144784868 6.511824130697818
Pd 11.908724610555462 13.647662310097827 12.722692773087157
Pd 13.2689717957873 8.791458529876252 8.007030501553423
Pd 13.874996458837389 9.538910697412328 12.512193783463081
Pd 13.987427417026053 12.141396078576713 12.05441394007455
Pd 13.92496207038881 10.517898564224136 9.925790404028325
