26
Energy = -106.19834105 eV
Pd 11.775093696854727 8.6406803809916 12.762621079420889
Pd 11.444948991911485 6.990409977136794 10.663261434812723
Pd 12.883213676322452 9.169304659482204 10.345584007370471
Pd 13.123796422333301 10.265636213092844 7.948632505436316
Pd 10.19682203022098 9.297749042974809 10.667028840861343
Pd 9.936151111174448 10.542030327344897 12.94002583477227
Pd 13.71702804186459 10.461214994964587 12.536088719038236
Pd 11.991337757370147 10.514741185951413 14.613836812417539
Pd 11.193222023491456 8.338333405325237 8.406674310493504
Pd 10.696330889251092 10.025795924413073 6.546380061926136
Pd 14.817565273467638 10.842434131689467 10.01994646923424
Pd 7.732743665625765 9.873157028498593 11.283817432660221
Pd 8.810416050751753 9.915788104217636 8.573054282557765
Pd 6.491468963157148 12.120914944749616 10.837813702421656
Pd 12.162965644696763 12.703027876063416 16.066889653827463
Pd 13.165704519538247 12.790626823239007 9.362502307116491
Pd 10.969477975890543 11.46957185580298 8.65542403427318
Pd 14.495771297468531 12.85973282941068 11.73035968944116
Pd 7.982979811441425 12.290530757620106 12.963757004231564
Pd 9.069288617126507 11.946387490172812 10.45630496945262
Pd 12.51299001757364 12.871220379520532 13.505708840524813
Pd 11.738746179395541 11.633881840097969 11.23315944899222
Pd 10.656692027790488 13.898722876020953 9.66741081007595
Pd 9.982486431736225 12.546707425732306 14.682047651318436
Pd 12.481414114718845 14.544445491896248 11.430699193229048
Pd 10.15762840820184 13.633237672965683 12.287254543469171
