26
Energy = -106.6581333 eV
Pd 12.336948761159453 11.09449382603201 6.803413691126673
Pd 14.983651011841465 9.672322129691649 11.109715815454368
Pd 13.642783346768033 10.201590248392401 8.899492630661321
Pd 13.28337950874283 11.628253066249632 11.33787879860414
Pd 12.010835411604418 12.379880350017118 9.107164448617604
Pd 11.500397034253481 13.576105584644228 11.467348664820909
Pd 9.970726148421518 12.243900154479663 7.326154331267141
Pd 13.354462401379465 9.750412892319067 13.334433075394909
Pd 9.459200137609315 12.941288047132069 9.830265181361336
Pd 11.564665690994184 11.68547860210828 13.476259128305196
Pd 10.815192243194353 10.034746163891999 8.630397919519977
Pd 12.441687066769713 9.105121638023638 10.993684261387335
Pd 9.192988149064776 12.812078624379039 12.585082059366886
Pd 10.462719152804663 10.946275645808024 11.225280053548575
Pd 8.492949813210348 10.118841191104858 6.937011736260593
Pd 11.881377297482354 7.621414459323624 8.947208981351094
Pd 6.949982714717679 11.78839842689685 13.497865878843868
Pd 9.263647910932482 10.832152201119833 14.430687593643391
Pd 11.736557175061325 6.720132287096543 11.564834673603173
Pd 7.447247106962968 12.29060970365392 8.243848232778248
Pd 9.282501241445086 7.910677274389155 8.204583272030167
Pd 8.239482381619336 9.841646297699361 12.220160404083643
Pd 7.178133259874437 12.024921402708612 10.895871305497716
Pd 8.276904913030375 10.059216110103883 9.549373436764226
Pd 10.752957663727102 8.953518877113734 13.145235412116232
Pd 9.79887878208665 8.24798641928913 10.753881403606034
