25
Energy = -102.24140611 eV
Pd 9.650153744436704 12.135094335221394 12.215191473722918
Pd 11.9138882115548 8.469171815872093 12.73968950501199
Pd 7.833945723702143 13.07581370782071 10.620979434065777
Pd 8.294470809098245 10.28746461102157 10.80504381137404
Pd 9.97156631339548 12.298135260340647 9.26216885099005
Pd 10.27390661991504 6.974090791441734 8.63731245040129
Pd 7.652936170578683 11.390501002384294 8.519914476913797
Pd 12.240256746264896 8.123071414010871 10.056398668534168
Pd 11.959819886243872 8.57324375047889 7.449518647816795
Pd 12.105961204515857 10.930279515158736 8.551705298226906
Pd 12.110289447982716 11.104858791027311 13.346405342646928
Pd 14.345307415568117 11.971407353238304 9.523089455786979
Pd 9.700292258838674 9.579555187506626 8.576882449261793
Pd 10.473575958180895 14.402688503614142 10.835053198157487
Pd 9.99164929952426 11.834720227658764 14.770171336963674
Pd 11.381503619739402 13.785727759112564 13.374150293725263
Pd 11.124523554059895 9.464610059246949 15.168094984182735
Pd 12.406312801846163 12.607663507115825 11.20509583821408
Pd 8.810910491306739 14.479140827757824 12.885591733387736
Pd 9.470115111308155 9.631598734840901 13.11827400351708
Pd 12.207621707681982 13.624922185289364 8.800553384228586
Pd 14.254887760568511 9.378756677798346 8.798719729818488
Pd 9.729113839735705 7.952703675386163 11.029719805889556
Pd 10.99535706644663 10.319176752786895 10.891734285941666
Pd 13.600074931868877 10.104044248231666 11.316982235582806
