26
Energy = -105.54345952 eV
Pd 13.136419660301085 6.840224257956505 12.08107786601128
Pd 13.001316392249434 9.091671202368707 13.286198666562662
Pd 11.826990322794378 10.743280980413289 14.955632095819993
Pd 11.182241275022504 8.348449007013437 11.322364537236197
Pd 13.702009261035293 7.894428261677498 9.826770440666488
Pd 10.331896036809077 8.97260171253944 13.76428982890697
Pd 8.551242832377534 8.533090671426661 11.8260170650816
Pd 13.417193678941818 10.125158443079375 10.950454309326801
Pd 8.539819918230187 10.756116408413273 13.137379632973536
Pd 11.315317741465485 11.08502883343924 12.302426216196663
Pd 13.555873704518417 10.201616969837895 8.333758776878506
Pd 11.490404209111162 8.681726502236025 8.70865618876127
Pd 9.718869291171616 10.06630406901966 9.964914273802185
Pd 11.522003431080078 13.832531350887932 12.761741126738933
Pd 11.767255696240857 11.75514316275975 9.51087132821743
Pd 9.990689190782772 12.472377031631915 14.396695836957438
Pd 13.365244051806446 12.702386322185815 11.31177157895092
Pd 7.4244147027249605 8.659062925730865 9.503369426043847
Pd 9.361778670722845 12.763368618217251 11.68370457506314
Pd 7.4633493783884965 11.106163196808737 10.688298126651231
Pd 10.542127988307994 10.765857096783346 7.416901985290211
Pd 11.081834254489628 14.171590694598205 10.187626448578476
Pd 7.907098864876297 10.681742845146715 7.981524210172634
Pd 11.046301493474823 13.471891993587441 7.607615515434558
Pd 9.020073782406568 12.780378086636357 9.11674839143683
Pd 8.82154211376077 12.581117298695816 6.4564994953314905
