21
Energy = -84.03701533 eV
Pd 12.597095128978903 9.388212731524488 8.49566310933555
Pd 13.701545348436657 13.105772634927318 10.784645571772668
Pd 13.486964132554991 11.886308971441249 8.418889454473955
Pd 9.44350226689759 11.912382720169317 8.707693649871915
Pd 13.550252687462592 11.669240871352082 12.97337097189538
Pd 9.219945941868726 13.687129102236197 10.681519194836001
Pd 7.540871399799966 9.320900120749739 10.828367311995065
Pd 9.493595642325179 7.463236824976931 11.095696184490231
Pd 8.949973360723973 9.151941420565496 13.121928468510351
Pd 11.111635390158767 7.6222787662101155 13.167850810846103
Pd 11.369389764568115 10.254467113265255 12.898250565068553
Pd 11.342004694876506 12.877767724695012 12.114595152377754
Pd 7.581876547557935 10.057945886994906 8.263103237244707
Pd 11.49318376237459 13.513972252603901 9.245334564325239
Pd 7.1653642335854695 11.926735561007192 10.097582385258525
Pd 11.961194616104116 8.559447749119142 10.889125660419987
Pd 9.268067154454757 11.189728866799976 11.516109370150737
Pd 11.574647641263573 11.120305465870022 10.203609013482005
Pd 13.977530408835838 10.341453505057984 10.71398058139211
Pd 7.971134447596959 7.502548911125669 8.938783603883211
Pd 9.92811896997531 9.288501065032758 9.193365316295246
