25
Energy = -101.91025849 eV
Pd 10.655348822859416 8.03843625717564 13.466774554293714
Pd 13.04784958444777 10.047632715943406 9.053499621258824
Pd 11.35896355600095 10.618288968856602 13.29600451986684
Pd 13.041487880968308 12.655651843084785 8.802252343250442
Pd 10.611615168487285 12.294627858351182 7.741430902782335
Pd 9.79788664803483 8.286073569478809 9.588622209051213
Pd 12.028689294897726 8.96344788585506 11.31808513741804
Pd 8.059547453409825 12.55769845780503 7.119828964973394
Pd 11.035377677902382 13.520791551730841 10.2908538141369
Pd 8.470777565909897 7.191382146860056 11.694163457602734
Pd 12.244022759986812 7.520871472693418 9.055017551210076
Pd 11.772742073847262 13.300041244252569 12.900705214183276
Pd 7.296675303455362 9.014491435936895 10.166106266078126
Pd 12.802307266011038 11.554393197487427 11.249427627327226
Pd 9.490288496409093 12.311827373837168 12.184478059451829
Pd 11.042931105758656 6.4933771763379955 11.205235594259895
Pd 8.583021523363032 12.765201938627467 9.677470083836214
Pd 7.168962545417888 11.297606578519886 11.541662333186872
Pd 11.019447793092608 9.464686881203997 7.481079209058234
Pd 10.56706855628816 10.874550082030048 10.005696890817656
Pd 8.671722552750513 10.280101060884556 8.247842051629664
Pd 12.798744696913799 11.228094805681193 6.6100652973197365
Pd 9.783811479443129 5.589133380906373 13.27056464119317
Pd 6.40935816722666 11.382566792086383 9.025430054893963
Pd 9.213687293282607 9.681880706226682 12.001984937773914
