21
Energy = -85.33579627 eV
Pd 7.320742797428058 9.974312693375156 10.259187058890495
Pd 8.832050322242404 9.978970746575742 12.499928573555344
Pd 8.549230904432367 9.96830789646303 7.8559886838772535
Pd 11.524471966404354 9.977140492863647 12.33381134259725
Pd 11.246144042770563 9.963835110749157 7.684755829159674
Pd 12.753468031778425 9.966374155444951 9.925940186212886
Pd 7.6065005796938445 7.720159722823927 8.906598625600974
Pd 7.779208887209018 7.7228596622041 11.577443228218893
Pd 9.863654821031997 7.706697143531918 7.425536121695061
Pd 10.193228243537462 7.71872015118155 12.778451733919018
Pd 12.267863255478378 7.7096589074658874 8.627077729902132
Pd 12.43392286003318 7.7185866789841615 11.282836235754555
Pd 7.6442212366989315 12.227220864417838 8.903690946589885
Pd 7.813455776752382 12.23573185934979 11.544469071261231
Pd 9.882757722214931 12.223253573499427 7.4278813180178105
Pd 10.201452614246783 12.240479151777652 12.755600561063787
Pd 12.277943141690676 12.21778834538496 8.622948635920643
Pd 12.438033794390922 12.226857938994641 11.265123004752654
Pd 10.042012939789446 12.702351679366025 10.087302801543778
Pd 10.035865392538895 10.172997553208342 10.09245793956187
Pd 10.018375920302228 7.640765383061365 10.10400878626747
