23
Energy = -92.49268868 eV
Pd 15.5472374781658 9.691912583502873 9.200277968017394
Pd 8.51960366239191 11.486910393171897 9.269355445829978
Pd 8.710095442199197 12.240598266779733 13.87864938405579
Pd 12.184600945518723 8.506407346013477 12.994260598488433
Pd 11.815082985704889 14.508611956358433 10.542628252572422
Pd 11.296664188272104 9.0355965632486 10.520244564858203
Pd 10.245591995323432 8.205072981260141 14.755958482099407
Pd 8.75906469329569 8.866228811733828 9.791187286664455
Pd 13.54585496468216 13.359069052180024 12.254897147870752
Pd 11.018022182638905 11.981500570214527 9.930777479109047
Pd 13.541364684204007 12.777017862931103 9.665262389399338
Pd 13.91678739490566 8.74481245297861 11.041996869564029
Pd 9.23778054327969 10.677435102435835 11.735793493131307
Pd 9.599348984776842 15.269984189118324 11.755162255485692
Pd 10.738645873649824 10.582300975873121 13.849164714425203
Pd 8.240385169373921 13.07713232752301 11.437360714663308
Pd 10.526608255845122 10.063811360530662 8.163950688941442
Pd 10.835164088592805 13.006619843675944 12.499735788979857
Pd 9.50512105202122 8.17252666989395 12.281306457554503
Pd 9.454415356164212 14.053922981724686 9.34356165958009
Pd 15.042225466735678 11.266781715157087 11.185161242869887
Pd 13.061003939081417 10.295235623033602 8.976578330392762
Pd 12.548756575156167 10.975176270011035 11.943620716010868
