20
Energy = -79.81545364 eV
Pd 12.05338578001889 11.09738326651369 8.150523101013567
Pd 9.584671027766685 11.765790016764686 8.70537839374635
Pd 12.946250444476302 9.023577755685833 9.606954217186063
Pd 9.244367979299275 14.229257570915328 9.824289047082205
Pd 11.659355075896226 13.11681405481235 9.931313415263494
Pd 11.209055375263238 10.670181910269628 10.687053296932987
Pd 7.331520873327127 12.32051096044486 9.874850906800114
Pd 8.600880960017488 10.063428761229181 10.537617948886046
Pd 13.89146091388305 11.59495910087654 9.932428568113778
Pd 12.82842261431572 7.729589556267587 11.901114647630065
Pd 9.299809675618135 12.337006398979414 11.637307199847275
Pd 15.424315302309243 11.851250066603818 12.011641264881382
Pd 13.279226520209184 13.266610098364579 12.0637689783693
Pd 10.538409634200153 8.145934762968185 10.564335964741478
Pd 13.38918010558573 10.291519450336503 12.226492006237136
Pd 11.376680296221977 11.935773057046811 13.242945962714597
Pd 9.003349841488609 10.774495248716184 13.656850982843077
Pd 10.8840457286858 14.381486267850377 12.129656153287689
Pd 8.649864817030801 8.344962864484748 12.513674174872714
Pd 11.031675786626685 9.285397583110147 13.027732521790872
