27
Energy = -111.5358512 eV
Pd 13.274780395965125 13.529677127781012 8.497305392397633
Pd 14.165276096651947 11.078680475645355 8.663386887913145
Pd 11.877031249526762 11.580062852172873 7.329389799835932
Pd 10.699951827087173 13.933464321648609 8.002975494229418
Pd 11.717333003812156 14.442860903438264 10.418166113371003
Pd 13.317030177566878 12.265936827392654 10.933491113734725
Pd 12.200716778969708 9.366400453457606 8.99109921975612
Pd 11.092454700860342 11.576078489117902 9.880205416811597
Pd 9.269921529180685 11.679979740181182 8.038099541116559
Pd 14.007725375571999 9.597624885543704 10.87547709313097
Pd 9.232925370344967 13.43638179144802 10.219190925595724
Pd 10.403186569563756 9.392174457429595 7.107779165891834
Pd 10.982181805697563 12.84144119116245 12.34512285883139
Pd 11.877110356596678 10.33571210217267 12.252433357787023
Pd 12.05216288374734 7.872971290404533 11.260127715550983
Pd 10.358295851066481 7.458051301888379 9.047005550676904
Pd 7.244230734041692 11.622612937258733 9.727840607074885
Pd 8.298353721444624 9.32844040659873 8.71081258850574
Pd 10.084945536287147 11.051221921617312 14.059801320837058
Pd 9.684408723483662 9.23756890879047 10.896217999744742
Pd 8.682993758583578 11.453526762559978 11.892186959514657
Pd 9.955728676762686 6.332103069964929 11.46146255438244
Pd 10.193141621980438 8.414136912206981 13.260793715983265
Pd 7.852788618872177 7.022144327769661 9.970827387214781
Pd 7.032112210200947 9.356088493068796 11.092854796190123
Pd 7.8379241274884475 9.68225157304722 13.643707225119691
Pd 7.7848368853120435 7.291955062899653 12.601787785468645
