26
Energy = -106.61959099 eV
Pd 7.5772449312795045 14.120241157923424 10.643710368316142
Pd 7.4507644281771315 10.874521395194918 13.47604928000196
Pd 6.879716545437928 11.535510516604804 10.95163423185162
Pd 10.201382978367468 13.870933150126012 10.279448898256712
Pd 10.027326292906823 10.617951976583585 13.556947203891204
Pd 7.691250483944894 9.020679465689676 11.642016843242384
Pd 8.333378266542347 12.39693684866643 8.85860366814388
Pd 8.938153054191186 12.780310817765512 12.411051671967286
Pd 12.596650949245449 10.357469091116965 13.441058838380556
Pd 12.83282880010433 13.398024481482775 9.835897071261424
Pd 14.06081078645933 11.54912527868745 11.461782390744458
Pd 9.533522912949952 10.741639757946333 10.74377019625201
Pd 13.50067288436413 10.984143972033033 8.928675979307934
Pd 12.575899354670911 7.815447589894247 12.884274118028195
Pd 11.49399254813773 12.146684582322342 11.800508065938557
Pd 7.81338091490247 9.700877601649408 9.033763767378389
Pd 9.273974043051803 10.75874787591896 7.046254415371031
Pd 10.174852695894263 8.492951510182484 12.168755866651832
Pd 11.017702505284037 11.888869555142058 8.702040018554989
Pd 12.382785682072551 9.607854210097338 10.86150635846001
Pd 10.518825047711147 9.18175384664478 8.79829719309612
Pd 9.018675988089466 7.418738419741247 9.956860915946825
Pd 13.031070830334716 8.368838899068047 8.565301758724557
Pd 11.742681779965125 7.024583256887783 10.54590199320924
Pd 12.000246293245404 10.232684916248157 6.866772553285641
Pd 10.910908852340619 6.693179676052483 8.117816183406855
