22
Energy = -88.99714477 eV
Pd 13.730151371456705 13.854467501043967 10.576076912670148
Pd 11.864209500657312 12.03371895835764 10.354815819883212
Pd 10.955052197242463 7.718410799245794 10.830523260013196
Pd 10.219778546110764 12.239916244373195 8.260920039051355
Pd 10.364644432128225 9.12264472898275 13.21310484662077
Pd 12.305637217408195 10.50384605512428 14.384558989681125
Pd 10.57823797718205 11.745453247247603 12.88224362331619
Pd 8.73126913376056 8.24545080670016 9.309847943849745
Pd 11.242938559286722 14.41100289879758 9.458733404771442
Pd 9.539769195184926 9.84974116962162 7.424364062705623
Pd 12.519963864881387 9.748346665788224 11.818932583083429
Pd 8.459174200678511 7.890161014061332 11.933975569503879
Pd 7.994674517290618 11.082792283509345 9.287070395600415
Pd 10.115869855393504 10.117655085011158 10.467470003871426
Pd 11.457974019176714 14.118216817608424 12.117663947315117
Pd 9.354973501097797 12.879325116347212 10.80625775074323
Pd 14.165239437402388 10.959886302188915 10.139123840430873
Pd 8.247171217778742 10.612277977124798 12.152760101177531
Pd 11.909488682932635 10.090586872104668 8.558169013832252
Pd 6.610940305103146 9.235178174843373 10.559651026859285
Pd 13.350751392744368 8.32731170276456 9.776317892381979
Pd 13.330587545527866 12.20942622999609 12.622321033539617
