21
Energy = -84.02727454 eV
Pd 10.26744622084253 8.398192879990757 6.188978682638042
Pd 9.547826474480368 10.670981718607242 7.52350091037183
Pd 12.055626823346103 10.213959801994008 6.8481506461968396
Pd 6.958282922418609 10.594256920611684 7.8559038025549315
Pd 8.265464730094871 8.318158632402756 7.913589172292816
Pd 11.623103216982447 11.636989674598535 9.041018570936572
Pd 10.147119606033876 6.452128636127002 8.051731676606266
Pd 12.494575208374316 7.651143034341415 7.443260217824597
Pd 10.964642912052552 12.512013348402123 11.488858234848376
Pd 13.341446022963153 9.529733802294562 9.117955442265304
Pd 10.742785406007865 8.801993174802613 9.218772881724021
Pd 6.889624971789266 11.973086147860533 10.077669173660812
Pd 9.27708065610913 10.857319694882753 10.16062377112717
Pd 7.230092661663458 9.302086118157863 10.174861869706364
Pd 8.86063031617219 7.171342018824082 10.24688319042512
Pd 8.461332004594809 12.766941844110672 12.062651903839143
Pd 10.63518892719382 7.995745626034319 11.976399456165016
Pd 9.603576438772558 10.36704892232605 12.6594935628959
Pd 11.9595906955347 10.095575548610432 11.244970103674506
Pd 6.912456398479821 10.684476585364177 12.448927228522093
Pd 7.997578812920692 8.242297296483121 12.491270928551254
