22
Energy = -88.52958006 eV
Pd 13.394686597939147 12.236427372506812 9.602515090166312
Pd 11.8161268988748 12.117375156793626 7.514577003525949
Pd 12.235548995931515 14.46496117458247 10.174553019820838
Pd 12.00330846467213 12.589255120128554 12.103410641167521
Pd 13.216889829602643 10.043084335402893 10.814087364911625
Pd 10.190766884069065 14.143962749313673 8.525332203655328
Pd 12.46636743291677 10.450076717407041 13.44071670350778
Pd 9.895054816909694 14.25564797429035 11.347803120898364
Pd 9.187530767392795 11.67758739535223 7.698363615973221
Pd 10.711391746984464 11.990140214707083 9.971476129072988
Pd 8.084358538093193 12.934709158878196 9.914188464232623
Pd 10.923874979475277 9.791815420189097 8.567397563280517
Pd 10.735313234555905 9.79889411493626 11.467423243044214
Pd 12.515843706336469 7.995447733302445 12.414384887896263
Pd 9.112118343853362 11.862612258757432 12.188634445088343
Pd 9.929639824867843 7.698330247711293 12.938221865978337
Pd 8.480357555924858 10.329639490780076 9.819324675562967
Pd 9.907292998447192 10.15033217573406 14.049440535376041
Pd 9.48164136815405 7.897002523616347 10.184531506565223
Pd 12.179121513784306 7.858115244850867 9.747871283946457
Pd 8.048870460511466 9.423742509360924 12.212002504568304
Pd 11.101146240249198 6.024215745803634 11.285419743524086
