27
Energy = -110.63450957 eV
Pd 12.745076875663806 12.395946601369207 12.631230713830343
Pd 13.246900996968805 10.111770245829446 10.626192181817254
Pd 9.365833412692856 12.769111763525798 10.927839811014485
Pd 11.760725469703203 12.038445235118528 7.651770361281019
Pd 10.181891613536816 14.119953740027855 8.645339224339926
Pd 14.496023189799894 11.440987220558494 14.498556805706574
Pd 11.200147106332539 11.237709293323524 14.560272843741215
Pd 14.977641590189467 13.866666203454407 13.384468850122307
Pd 13.944476960852604 14.152384078660468 10.990993834890947
Pd 13.631459026467688 13.886541532736166 17.529595426049116
Pd 11.966446201808822 11.77317847290275 17.061653011703466
Pd 12.579395743571885 13.458420591165877 15.131890263981314
Pd 11.80360837538501 12.418058472492696 10.226153827507641
Pd 14.18063509641963 15.544206521196788 15.352986275696502
Pd 10.921618565448151 10.036159498341524 9.470502352744461
Pd 12.651605935010169 15.2388257214784 13.16120015730547
Pd 15.657384299626314 13.421222652451101 15.885899813659478
Pd 9.193384530468755 11.704669372752994 8.489333401741401
Pd 10.693991476186776 10.720574670639733 12.037912372031153
Pd 14.173072005171127 12.144204892299774 9.191312776111308
Pd 10.498779409377358 13.56394743904997 13.220441782106294
Pd 11.29363509518796 14.883642817860935 10.965114865931673
Pd 15.0993443589882 11.697665119724064 11.760442331764526
Pd 12.79522828555105 14.420963747361428 8.592949081788184
Pd 12.9994056046941 9.70626534947405 13.156152008565089
Pd 14.557809456858156 11.386256807860349 17.2080239555214
Pd 12.996860907040505 9.678551545126602 15.808459851380045
