20
Energy = -79.17206101 eV
Pd 7.576160834177387 12.630082161051012 12.298058188318839
Pd 14.322760428834949 10.50625968374012 8.539346009014213
Pd 12.340018686092957 11.999941879461462 9.57681705915549
Pd 8.460665890510134 14.525485723812553 10.581160671469132
Pd 14.813563107438357 8.112562771211634 12.191981580141313
Pd 12.288517629007382 7.955843490284098 11.535768159759467
Pd 9.528656109355147 14.152018207888666 13.149545492364203
Pd 11.457104367419998 10.470571905446647 11.643189295796398
Pd 7.790788706423822 12.13488376962069 9.65268862865064
Pd 9.812917755809824 11.490995552652912 13.492869696775816
Pd 13.971949793043112 10.348281409065503 11.144937076328628
Pd 10.02766576346506 10.793109670679296 9.059603204344619
Pd 8.571057849112647 10.328289827807495 11.494655408441048
Pd 9.904586353067737 8.370807283481541 10.353242601956369
Pd 10.23621269030737 12.68426829390857 11.130733293937576
Pd 12.106682224258968 9.286709326180096 9.170991190318814
Pd 10.097774106039065 13.400124807064802 8.64432297919221
Pd 7.743221105911343 9.528455571482347 9.14117356577872
Pd 14.379087188925205 8.048386305605723 9.677357835960116
Pd 10.108875519632488 8.771188468387653 13.059824171129064
