27
Energy = -111.61146139 eV
Pd 15.58051975545508 12.00884203878065 15.062266930785748
Pd 16.556590627577826 12.230204308073246 12.628501381715159
Pd 14.673849595536462 13.816615306135787 11.855696204076805
Pd 13.776227440431077 13.630641041764337 14.261073181079647
Pd 15.30269728511413 11.10297460464211 10.636290547150619
Pd 14.174924489461592 11.054037954474028 12.963082239706607
Pd 13.02466447135642 15.689048961334764 12.824456525626132
Pd 12.6667610692049 12.39107416523032 10.918638347771344
Pd 13.564412954437698 10.376800015830083 15.391473357196498
Pd 11.20599370280607 14.572734342368111 14.663976369896197
Pd 12.291933975067968 12.541063965766966 16.168420703160557
Pd 11.659591902907462 12.148558958577567 13.5822491270421
Pd 13.677354392705585 10.90657462289265 8.587351569727309
Pd 10.996470511205658 14.358527700674616 12.001007329189916
Pd 12.911747225405737 9.768610470083809 10.916387092999086
Pd 9.668740273852134 12.555941334462297 15.767068622556836
Pd 14.774663643598622 13.264224564716173 9.248184344296881
Pd 8.984395803785919 13.484631389840365 13.45390416726248
Pd 10.981233436797565 10.224090186432518 15.795617027335197
Pd 11.961771415568638 9.554528771266352 13.385798208888774
Pd 12.811819500558041 14.950985850254874 10.120905254866418
Pd 9.902044686312868 12.05359994155676 11.431877429917547
Pd 10.28995151793285 9.482268101828467 11.385584658474453
Pd 9.394899157420944 10.757300049047133 13.685382271514131
Pd 11.064433119454733 11.075584783652417 9.260588946943148
Pd 10.389715693151048 13.777341493420638 9.511216907205121
Pd 12.425229077845898 13.17244941346445 8.047258710114376
