24
Energy = -97.45943482 eV
Pd 9.811525081407977 8.324045170654648 12.748337527957398
Pd 8.862648167609676 11.320835274032147 8.577218296342133
Pd 13.32515040101338 10.663700506071917 10.324636154710394
Pd 9.764549720155491 13.336835128264624 12.13888819309505
Pd 8.700723730695412 13.796245134096045 9.638988918647907
Pd 11.37233679004412 12.341960730049292 14.163098903292124
Pd 12.246037463229385 7.909728176510731 13.685204652225613
Pd 12.976955721726876 12.93386456027631 8.975174989965309
Pd 7.8740882092359215 11.723214448391651 11.031846515258227
Pd 13.78006219461595 15.047032843191586 10.370221851133543
Pd 11.697860038971454 10.466004883960212 12.442155819859181
Pd 14.799209303838847 14.258121960574883 12.710522520218436
Pd 10.621361612343305 13.252741551619383 7.85229463370094
Pd 10.642883193765657 9.774502861895863 14.926439921078929
Pd 11.884982150229014 8.43104789194306 10.88301336234595
Pd 14.135519692241388 9.16221246075682 12.317055935040502
Pd 15.04999723965651 12.667337722822671 10.579282856677382
Pd 11.141828697668121 14.67215885700732 10.083585217328276
Pd 10.872836622196926 11.848051316548332 10.205481723724901
Pd 14.25298807928557 11.711776266957179 12.901783341773598
Pd 9.185937212499978 10.931074236969788 13.097393704649638
Pd 13.232751902073911 10.242102347448625 14.756614624189723
Pd 9.535003774659344 9.674645249655978 10.563424276596361
Pd 12.443339250114414 13.297849372717598 11.90116880247113
