24
Energy = -98.26413976 eV
Pd 9.859153690026105 11.54222155649785 11.449692561328233
Pd 11.194314199788556 9.7516004808259 12.87548381320882
Pd 8.855778048039383 9.063879752564803 11.970976363098805
Pd 10.935503608442032 13.135116889756171 9.700619995137398
Pd 7.300024929586001 11.197594009866393 11.71503957135308
Pd 12.405879819477189 11.163569184893477 10.8342936649344
Pd 10.961482531269482 7.138701900014965 11.879832096126
Pd 8.12368826550292 12.943549929535115 9.689580960650462
Pd 8.682386633271232 10.446902131978158 9.31479294912304
Pd 13.255415602688439 8.689468046157652 11.5868952255572
Pd 6.748253428836019 8.831519251655614 10.39338682320512
Pd 9.64513588033435 12.565448146223801 7.460686867577989
Pd 10.807204550127116 9.033402977170764 10.140908544208697
Pd 7.218429481958378 11.785163889645696 7.1877370620583
Pd 13.387241051312033 9.42874259963367 9.000341464991958
Pd 8.320325768107978 6.708014439200947 11.015680210041404
Pd 11.34816185888873 10.877573307871383 8.297494496192908
Pd 12.783792712483141 6.949530647273724 9.647740159758397
Pd 5.938980140783432 11.249973219184627 9.439992806729057
Pd 9.198252834778474 9.850154162922959 6.818932996822439
Pd 8.632996490951086 7.873021699975411 8.612940402144963
Pd 10.3480558569248 6.165891469873525 9.408605408708377
Pd 6.632213252155374 9.279564135533448 7.728401621062835
Pd 11.255034959793491 8.216514383679304 7.6987371032636105
