23
Energy = -93.15651689 eV
Pd 11.938638043710835 13.54537699285616 11.655331687398753
Pd 11.870851617374072 13.371638826127032 8.89318745687677
Pd 9.862750801775215 12.702779525116666 10.39460515165887
Pd 9.907631250663819 12.169439656657252 13.027671827251472
Pd 11.705432469351376 10.899335701190134 11.501166269111764
Pd 13.74613283757341 12.055570512429892 10.239121934765846
Pd 7.589860858331682 12.473254602980544 9.07646144794484
Pd 9.883624120186457 12.005782410634767 7.714155864438321
Pd 7.81675640529334 11.315642235221603 11.541940493291625
Pd 11.439891813823621 10.339730458497389 14.145846575387582
Pd 11.93834234128135 10.696776533152548 8.84068663743911
Pd 13.311828283363704 9.135608225546777 12.829734315660142
Pd 6.421748499909317 10.148087001381015 9.54957248716948
Pd 13.809090402607543 9.386281254839536 10.256070065387505
Pd 9.623235158128802 9.474323992195993 12.551909424547876
Pd 7.762531531825906 10.4794075725762 7.3165484132643535
Pd 10.08381721155771 9.240023563225497 7.419926051009791
Pd 9.31167364319494 10.17710516731858 9.730343148229549
Pd 12.159490099569355 8.046279797000896 8.538645593699979
Pd 11.581853563279841 8.239955126391788 11.133958578664062
Pd 7.7388738877322165 8.452468291349987 10.969966899577981
Pd 9.700595791883984 7.540226169847484 9.427341952021985
Pd 9.52842794724873 6.858607780245928 11.989376660372162
