21
Energy = -83.54362919 eV
Pd 10.914999371259135 13.65346245031993 9.537899926230008
Pd 13.966722508734241 9.923895838254598 11.532329973429524
Pd 10.562288846909297 8.332491680140631 12.295050561419872
Pd 12.16458947911572 13.371335800293528 12.188009764671813
Pd 12.939884352202112 7.45711784686975 11.514803317673723
Pd 9.738016128960517 12.526884851286667 11.575272950867989
Pd 7.29812823281176 13.01276626995561 11.067119675292037
Pd 9.002365855425376 10.83857973800305 6.636771195243279
Pd 7.025853673165219 10.479325379180315 11.0980733943403
Pd 14.622501807645312 12.503060458923928 11.554459628953854
Pd 9.511613034664157 9.906895090760804 10.42371418838112
Pd 12.599926870287867 11.790793650213029 10.127094332624415
Pd 9.969242936524935 8.806878497451432 8.07721229932174
Pd 12.748638432045102 8.884406958275411 13.753264622193097
Pd 8.76071885899272 12.102437728933637 9.043910617849502
Pd 7.500787322505707 9.829776490453327 8.570768607828352
Pd 11.498744898079261 10.763642652862282 12.386993231211804
Pd 11.063003586216107 11.194720376184804 8.211968989295315
Pd 13.5878671812692 11.517536539158268 13.735724116786725
Pd 8.912737007337913 10.399460640933512 12.948298246259123
Pd 11.923278744025406 9.156418966445552 9.823415433587698
