23
Energy = -93.00947149 eV
Pd 12.952784448507964 10.757239457510464 11.923534179164992
Pd 13.803305704387327 10.640040641822408 9.331014119432167
Pd 11.66893123710235 12.09992786064467 9.970044878683922
Pd 7.704762247483996 12.501259382493105 11.998665409408469
Pd 9.598409461925167 13.688823841835262 10.480580775975314
Pd 11.469477748072123 9.468991377530964 10.100701163028278
Pd 10.485213318818435 12.023762963638152 12.364573371039658
Pd 12.031050471500741 11.329967344812728 7.415902807269699
Pd 12.840984212535735 8.052095513456756 12.028769952878886
Pd 9.669263180654879 12.266447033817736 8.24522686327373
Pd 7.303900440855776 12.178182095605006 9.28613182630269
Pd 12.603965047935452 8.764660400937325 7.862792619662179
Pd 7.500766327641 9.582988347173687 8.835437944455947
Pd 7.135848351782573 14.479241516669083 10.452079375391664
Pd 10.6867481127808 9.383431132442603 12.66545385667866
Pd 12.051814816332223 6.935546780087374 9.724686822077906
Pd 9.113632713773201 10.669380704159236 10.578005675170283
Pd 8.530474449653372 10.589318642882873 13.509023857255643
Pd 9.942680987160074 9.737606887637 7.8195517146206415
Pd 10.547215669121178 7.168954602495615 7.53728857631548
Pd 9.326175779373234 7.886102182087425 9.708971312820108
Pd 10.430639839649526 6.8604009857482255 11.819191981268771
Pd 8.175514576713391 8.51417902188252 11.929228925771778
