27
Energy = -111.77551218 eV
Pd 13.38105962919896 9.274238614753179 8.055931500475989
Pd 11.21093532091921 9.791845394452391 6.6052469907845595
Pd 12.610655894314553 7.827589002256371 10.186631044983368
Pd 10.04644388790589 11.771570795603164 7.955228373578896
Pd 11.33308740461007 7.441453415647246 7.885169742083809
Pd 12.70236159603065 11.82467504358068 7.601971786689494
Pd 11.413578339410089 7.608493464034503 12.564612118474468
Pd 9.276710161789664 9.129852452737257 8.27790883183979
Pd 14.948524972444952 9.034868920422344 10.183056479731903
Pd 7.782176549802181 11.059086048758598 9.189671123633957
Pd 11.35179293740005 10.081861879576447 9.60026648792937
Pd 10.043624720912975 7.6272721598221915 10.2554302552782
Pd 9.02525659939269 13.30190503619445 9.911596862720984
Pd 13.63091271315554 11.305236735129235 10.052163339991722
Pd 10.582486941998445 14.194546081648687 11.895901754732472
Pd 6.527135587983087 12.922107434597416 10.632590816602063
Pd 9.884940908300221 11.337552773483123 11.417012164631004
Pd 13.133857428797779 9.608482683285908 12.049809019922762
Pd 7.5068103108999145 8.555528075633449 10.15778207100205
Pd 9.025507229853208 8.825051067244388 12.342963331522885
Pd 11.631247096932901 12.991099185050277 9.75552353513934
Pd 8.254613734161135 13.078658322730021 12.64266916314428
Pd 7.339562290085033 10.692537418940232 11.751151219535924
Pd 12.312413890321226 12.154910822632406 12.224971919056332
Pd 10.432149199763497 12.602545472767146 14.08804796714699
Pd 11.00860116357231 10.079483007630332 13.47617257125689
Pd 8.506032993886743 10.780028195230782 14.142999031953634
