29
Energy = -120.55765519 eV
Pd 12.844569773171074 11.102802890660042 7.70365190899836
Pd 11.018103099563604 10.60586020040938 5.892019846576332
Pd 10.756598311990505 12.757524631475436 7.600451922125076
Pd 14.20405018088508 11.289677079266063 11.084234409768003
Pd 11.500190835818664 8.501317185915754 7.770579154331462
Pd 12.47713036271719 12.764975111806004 9.765724488664654
Pd 12.902204364034024 13.411786932519865 12.313177397304198
Pd 12.432407184074775 9.847910503211452 9.858392686168026
Pd 13.915194442916608 11.100807618523245 13.691254504316113
Pd 9.945699625638667 10.43596849364801 8.50472605713964
Pd 12.903623011355004 8.872315414734787 12.284490221216393
Pd 9.174235371863274 8.786715268192623 6.328997409183164
Pd 8.513614299387113 11.493360248657913 6.497279390855657
Pd 11.08314335298685 7.688153851037267 10.460451013550026
Pd 7.014837510673808 9.573353742941043 7.72659488223471
Pd 11.896118395404182 9.700727706596886 14.659253798792514
Pd 11.714637957151245 12.39523410202658 14.624262412235321
Pd 9.703813667071794 9.867692157731453 10.99890180527044
Pd 8.94889050204717 8.021830359870293 8.840908460897303
Pd 9.942380377910323 12.668930808846763 10.120489531320294
Pd 11.619142456731499 11.124359323257153 12.109709198308593
Pd 10.331591219671967 8.32010769639226 13.04182756891193
Pd 10.20386542121273 13.290588838249668 12.615528221819678
Pd 7.733160594505639 11.747563771079516 9.06746184470287
Pd 8.522335510987547 7.258532327441792 11.352997573731196
Pd 9.633938998265146 10.901435725389884 13.850954676338485
Pd 7.183058685902807 9.471118005701094 10.384073638431634
Pd 7.750195439399858 9.243500264602076 13.004454568841163
Pd 8.068304365662941 11.740225147954007 11.799273373937924
