25
Energy = -101.07653147 eV
Pd 11.912806110476247 12.275145537301006 7.816631120273924
Pd 13.713296541426546 11.917555284634558 9.962375577143852
Pd 12.650705869501385 9.845198655686875 8.678530353249617
Pd 10.046844229067332 10.48977186495235 8.184204092182714
Pd 8.740939049943037 8.57960750010017 9.51414656183799
Pd 9.52575305728215 12.916052808940444 9.000430886107289
Pd 10.846988246078276 8.007390475636479 8.04964173674977
Pd 11.904285379977022 13.841451975658376 10.033037362219385
Pd 7.506840935355139 10.862456675687797 8.634010339014138
Pd 7.271232389444551 10.630864642791522 13.258243178558478
Pd 13.504528115344963 9.714200229075008 11.234764666862407
Pd 13.869913476024728 13.889744020171973 8.314025841757529
Pd 10.958891839872416 11.11123372729437 10.56211721692692
Pd 8.31079737857443 11.64582254848508 11.001418303726533
Pd 11.222514640542117 8.460447282013627 10.63705064551575
Pd 6.734387125411058 9.535229807281606 10.895246164892452
Pd 9.167894588921552 9.234510836394547 12.07956149287645
Pd 14.094085525010751 11.39939402198684 16.092789648747317
Pd 9.962208729879148 13.58835318003714 11.674479993381663
Pd 11.615244904832197 9.633489412187245 13.067251715178381
Pd 12.37876432704829 12.385903600529298 12.342390372736476
Pd 14.040956452490715 10.633660027539507 13.607808634847165
Pd 9.755673455921958 11.526662491347597 13.330548373971416
Pd 13.995929459868755 13.210975992818351 14.259585612987557
Pd 11.82209777307381 11.749372947852498 14.854205654658037
