24
Energy = -97.40174238 eV
Pd 13.595955659712192 7.454203036666715 10.556070542370328
Pd 11.217609121489316 6.203978915401402 9.971952528252338
Pd 13.93326319327116 9.979081376833818 9.123130721296846
Pd 12.602040090237146 9.757389535640577 11.41386259583605
Pd 11.77309058204305 8.53414173481953 8.956233180842734
Pd 11.494029134309422 7.456493777759228 12.24488028303394
Pd 12.723915917525908 12.189640789280178 9.986805754964308
Pd 11.762141915288419 10.896473911725842 7.77129901527744
Pd 9.526337127289521 8.153274606715339 10.628832906519223
Pd 10.276016944638478 9.70391817937586 12.862052223639644
Pd 11.729580132146264 11.99691564377025 12.41136105926659
Pd 10.438108354497027 10.613269731235462 10.154292231409562
Pd 10.345182987060776 13.06823381913633 8.879455093971313
Pd 9.533604903450634 9.191495422559836 7.888201176174049
Pd 10.908464370599841 11.397369758550598 14.817360772662925
Pd 11.310860379603504 14.206405632571046 11.055336440852082
Pd 7.23717515046118 10.123689921108951 6.980100756303801
Pd 9.428045071233537 11.661265134076379 6.826503777310657
Pd 8.5541358133892 11.526634324078953 13.686139776552798
Pd 7.940426451805267 10.221379940026386 11.498767467911872
Pd 7.320350398471884 8.899447971419388 9.350967235245491
Pd 10.127150181171528 13.693140789361355 13.576862041298716
Pd 9.162541711794699 12.628920423942539 11.305424589205428
Pd 8.119219117848129 11.484839129702454 9.112495234327344
