21
Energy = -85.2374432 eV
Pd 13.156435235291482 9.342554330919864 12.490256018423285
Pd 13.296387740547498 10.233692395399633 10.038807121718067
Pd 11.606947624887061 8.215537994021021 10.63729616896185
Pd 13.512019373819234 11.173539845005328 7.606724492375526
Pd 10.630652481871088 8.894704520755221 13.054506591120013
Pd 11.347855179991923 11.113403146515521 11.698885812202146
Pd 11.730158965649451 9.200328499470256 8.112719556472278
Pd 8.982917726964104 7.808218046177876 11.206540373992631
Pd 9.948700856903736 7.315804044833712 8.751320197257836
Pd 11.050828293396842 11.292106085930316 6.6540037063422695
Pd 8.127505087213603 8.425449282240484 13.68359095580134
Pd 11.480955481120285 12.022772673748207 9.15746400890907
Pd 9.216489836229567 9.452188422277063 7.188457819740046
Pd 9.790354866514418 10.006597951533582 9.83348136189099
Pd 8.730158938831384 10.634923782757907 12.252382128874753
Pd 8.987021627256901 12.028364492700074 8.159332741918103
Pd 9.461355666147 12.742013450567246 10.764185944482591
Pd 7.553790276252233 8.623869141236465 9.081825381572553
Pd 6.701675484273246 9.09844143788741 11.556840104042411
Pd 6.862326869785144 10.623821683359676 7.489296057144639
Pd 7.310628564709658 11.195978156738615 10.037322898643248
