21
Energy = -85.08648717 eV
Pd 13.217691308340715 9.327698193021522 11.723212408071962
Pd 12.600572034171908 9.350391019028885 9.161713459544742
Pd 11.58467535129316 9.376593617402582 6.71096833500473
Pd 12.166450745534982 11.539239866226769 10.769262582012521
Pd 11.365406440396514 11.605038767971616 8.139974894111901
Pd 10.867174567780605 13.599961826632066 9.78965998493468
Pd 10.808917531955517 9.958824245740196 12.586652853013781
Pd 11.19899654876201 7.799818415697412 10.99176033581156
Pd 10.452935313451272 7.776713600740908 8.461328664820366
Pd 9.359453668355851 7.870014626404877 6.060908319055231
Pd 10.012186625991319 10.000703045738284 9.973601425723022
Pd 9.127466410691172 7.878415892250813 12.704336747077802
Pd 8.888430205464665 6.712457494210769 10.315386499065918
Pd 7.793114007036126 7.9997214806791925 8.21161387399716
Pd 9.600811281127328 12.155129976040916 11.592308508226516
Pd 9.157915882848766 10.147886094833487 7.379855630197951
Pd 8.259715062457053 10.408049585838754 13.025053422615484
Pd 8.788412831809286 12.199680267046318 9.00124800467206
Pd 6.829146748256456 10.48978815307082 8.612080808049845
Pd 7.765758302240998 9.103472059312 10.702460773399086
Pd 7.045027850823948 11.699442964949531 10.989273134652525
