27
Energy = -111.2697473 eV
Pd 11.104187646064997 7.150377492234499 7.752366143146154
Pd 12.947473793705523 9.086508531472195 8.208697154918497
Pd 9.542831426776594 6.3605574873859965 9.824468976982171
Pd 8.49957469478405 7.8120098724545795 7.776976937164212
Pd 11.446827902813565 8.244921051603207 10.174611137805867
Pd 13.938720452008285 8.758751421492317 10.765112270312992
Pd 10.336798393740173 9.713207451252133 8.021268477161936
Pd 10.020101155498258 7.462173849187536 12.192157224375153
Pd 12.114372295562012 11.62451183321681 7.714165104821819
Pd 14.173348319459665 10.81918861531405 12.505998588441416
Pd 8.733440896841667 8.845810111681832 10.28473924269393
Pd 7.742838617914399 10.28855163392086 8.246338545088761
Pd 13.104373474557457 11.151185268997471 10.105500975704484
Pd 11.800491421604555 9.736756001852534 12.264716802321908
Pd 10.442679124183934 11.111888566831114 10.34411804656057
Pd 9.545754112446897 12.29682230806502 8.056984257398545
Pd 7.03711565957354 12.795912279918316 8.70882501701735
Pd 10.743137793482617 8.68000344799974 14.448527985567242
Pd 12.262728435367007 12.583705583564548 12.193420908821277
Pd 9.150791465331244 9.960739614944139 12.690264585294322
Pd 7.873795206134047 11.347360978010656 10.768743848189246
Pd 11.587931665291254 13.384130809889946 9.617340350376633
Pd 10.998310858659872 11.290285806964278 14.29594715306599
Pd 9.501521760426064 12.588902192224591 12.501806135985458
Pd 8.954055285260386 13.83802134385668 10.207371878423203
Pd 11.115798768793157 13.869671801424285 14.224007457519603
Pd 10.842097746346395 14.79831430479373 11.739056759049658
