24
Energy = -97.62409278 eV
Pd 13.172817999464653 8.777598645680483 13.195144332295373
Pd 12.701620161930867 10.3127626995879 11.132848477003819
Pd 12.849898832575436 10.937897129413871 8.524294751914448
Pd 11.097798278075848 10.303627152388508 13.561328302853449
Pd 12.971812136539336 7.151187444711839 11.17957864685792
Pd 12.037273954711667 8.511549368743914 9.145030687001357
Pd 12.392856153335678 12.401187344684423 12.720182549882702
Pd 10.762618394010225 8.423267523289605 11.746505281888329
Pd 10.265940057910072 10.507627072132786 9.988144190461043
Pd 10.814402391650153 9.761991114704708 7.224823529646004
Pd 11.745092225864912 12.736043896533415 10.184626520793193
Pd 10.601216327893946 6.448900482188427 10.054012583113096
Pd 10.753535629085029 12.412550114701316 7.73386367270127
Pd 8.697285307670676 9.741235625596364 12.667124064767536
Pd 9.791023074672056 12.128783996806195 12.088406589529708
Pd 9.277498979999665 8.37966179310562 8.838835087421758
Pd 8.290191479824722 7.544843865040584 11.112106892781762
Pd 9.321236678469981 11.374564384783163 5.743113681322815
Pd 9.066261491351487 12.99839446195272 9.711317877332895
Pd 7.5840626834212275 11.068233577264817 10.65804105261397
Pd 8.272825050826114 10.744997002737424 8.066605001655184
Pd 6.285114101312706 9.105542728389253 11.898090519670243
Pd 8.263895501438942 13.2479855401992 7.205652450204511
Pd 6.746186301376156 8.890044082486678 9.306074610128197
