20
Energy = -80.18585911 eV
Pd 10.475492118394966 11.012352715402319 11.569151507762752
Pd 9.33345117289026 12.801708934345037 9.977943481436643
Pd 8.46514651195312 12.515776455886236 12.534010597502137
Pd 11.959312878118093 9.281267493844943 10.313375934526828
Pd 11.245393993958375 8.776828216542668 12.8663251848238
Pd 11.816512485502017 11.798135839217062 9.390427723833582
Pd 8.80034388645622 9.953167213213428 13.260351109861556
Pd 9.713972468359357 10.29116821717372 8.983955475780942
Pd 6.786835636865465 12.981794410254738 10.584550927680118
Pd 11.487538237239116 6.805719663274288 10.97221507465971
Pd 7.418652453309007 11.46239559732064 8.525343460004038
Pd 12.024860449655694 9.660374419753268 7.691064733188632
Pd 7.680833528788957 10.476614364853111 10.930142767236115
Pd 10.210775784671744 7.524348175840621 8.776322816419745
Pd 9.314892755336462 8.36226248969834 11.165093971508181
Pd 12.904103562700211 7.30896059521544 8.74217002409907
Pd 7.749571379911729 8.526046157291002 9.090966091173915
Pd 11.593618766408936 7.37165509549288 6.482536168242603
Pd 7.050485219466077 9.587007046702368 6.83151513293649
Pd 9.53028945299673 8.989834587686468 6.719996081575263
