27
Energy = -111.52867121 eV
Pd 13.78823124589482 10.251255039803556 10.712873279876487
Pd 11.988206620940774 9.476207902026696 14.782875572196877
Pd 11.218479481984854 7.88076609088945 12.73663599001751
Pd 12.11613869587848 11.76347869981383 9.096685042415503
Pd 12.973773766709895 7.57268270838876 10.671069134812589
Pd 9.428701068720889 9.127035547179233 14.219582247417621
Pd 12.237132798699811 12.70675236058362 11.53127428406753
Pd 10.621301788438481 11.45787149076044 13.457987120424399
Pd 8.635096819917639 7.436178623240358 12.181349897782129
Pd 7.852477602705728 8.60347336297667 9.892413838196179
Pd 8.698684259290205 10.096457695778644 11.93140078575747
Pd 11.32723885507458 10.075611972637065 11.38647028770879
Pd 13.763233600011146 8.640976067288536 12.922870894014755
Pd 11.031113920607032 14.156570687624505 9.635612857357112
Pd 10.34734625789894 7.887172839523668 10.166934843661602
Pd 7.326189943211235 11.345218236440811 9.93388228664352
Pd 12.195416203547584 9.137261232426583 8.735470516401964
Pd 8.32303272705139 13.82395925810284 9.359249572203646
Pd 9.685768451042927 10.60515567638081 9.195601497972639
Pd 13.348955602706521 11.197716943373463 13.28004668209046
Pd 9.611667621509643 12.454694331370563 11.131748597634887
Pd 9.72132506413878 8.617732142487615 7.583459246918799
Pd 7.192740029845107 9.747731885607326 7.694825716839302
Pd 11.504470936439834 10.629765228850326 6.717064897246072
Pd 7.292399341557143 12.38605853545888 7.396456332651828
Pd 9.96370739645971 12.660448025753611 7.669898735283516
Pd 8.980899366765433 10.754710496321666 6.077642394185649
