26
Energy = -107.01376922 eV
Pd 9.476576959680171 11.648200942042454 15.454734620638652
Pd 10.787941031931576 9.664844902847378 14.214196396377739
Pd 11.247240568445276 12.483265715596518 13.664503264071387
Pd 8.099437389072456 9.997605351081315 13.986535710614705
Pd 8.604172008192673 12.411953937532397 12.994675644482712
Pd 12.876036958025168 10.675995340069944 12.628022106710153
Pd 14.384993303043927 8.787358527512385 11.623888507579265
Pd 11.810195989029236 8.322204770663022 12.08488486460816
Pd 9.133063115179333 8.178922638633308 12.3521953274217
Pd 12.133059899185518 12.804564953982416 11.105581838157434
Pd 10.240346993948188 10.654402369376061 11.90653529638557
Pd 10.13932503840487 14.291610168101895 11.898549126753379
Pd 7.659689105737316 10.398283947088323 11.366070572361538
Pd 9.12084444937624 12.435569445919487 10.274099024123059
Pd 11.36953638257645 10.85542614377184 9.529564058681059
Pd 10.18206816266488 8.469118756814021 9.899098213326955
Pd 12.785865134103153 8.560437816670271 9.53050543821841
Pd 8.578355451368626 10.222342939169344 8.82800357555662
Pd 13.98283185767685 11.027290953790594 10.196572204765005
Pd 10.769733471934659 14.228862547669857 9.28692739507193
Pd 12.746581446760322 12.704485164572532 8.340206751559359
Pd 13.570417721555069 10.249345747298383 7.661146283750154
Pd 7.6075177374789735 8.082418028039191 10.101502643041004
Pd 10.021873481931731 12.16798327929878 7.684328483212465
Pd 10.942602259616677 9.42120609198634 7.450626529445701
Pd 11.961441785632609 11.486361559621173 6.035639349363521
