20
Energy = -80.61272844 eV
Pd 10.267639554770946 11.441220255645382 7.8530690734801825
Pd 9.026952419625227 9.08641807040334 8.090385797193516
Pd 11.674916056876699 9.077392099944293 8.08678654662646
Pd 11.627031406210259 13.694216258941179 8.07359499548113
Pd 12.812580292720128 11.417314154746853 8.786751514295341
Pd 10.38986927294078 10.475122063348199 10.305004083920105
Pd 12.734607970232638 9.364758035724051 10.510094107787845
Pd 8.02326144588575 11.216945895769571 9.49770251977786
Pd 9.317219295399603 13.489764662767746 9.397690310471251
Pd 10.4240111349095 7.863501383478369 10.12443269791435
Pd 7.900677637607237 8.81078205878048 10.52441234422173
Pd 9.179261393339988 12.44454825172343 11.861916117422673
Pd 11.533692783754578 12.875123299279542 10.61814680433659
Pd 13.763714296431033 11.66102107395127 11.334154273239466
Pd 11.347559521662522 8.411155994058369 12.647768609839861
Pd 6.942012151138743 10.977377844993473 11.852034924336236
Pd 9.046050214789261 7.264220534251466 12.329389260931059
Pd 11.512818886180689 11.206514126073927 12.732845404430936
Pd 9.162283684756465 9.895340518074622 12.663325515061546
Pd 13.626641406850993 9.64006424412746 13.023295925315196
