29
Energy = -120.5870644 eV
Pd 10.695658790626778 13.300352841583408 13.374346487457203
Pd 9.157973185487029 11.03784778516727 13.36278020413889
Pd 13.33183428745158 13.074162037154005 13.28981995421571
Pd 10.536740379039783 8.680616502774702 13.29079807462702
Pd 14.81616810038295 10.861386490804003 13.024099998698619
Pd 13.178901888709635 8.763013789073632 13.253820551245017
Pd 12.119372208632376 13.81924652856533 10.975970527428666
Pd 9.977191136709457 12.30845755993959 11.074857854601689
Pd 14.214610844755828 12.276458953974558 10.830092826175644
Pd 9.885028216565889 9.806108345165004 11.02929368297046
Pd 14.12766191828545 9.544073669717909 10.807539861634812
Pd 11.922721774051459 8.154073307066378 10.905501056044152
Pd 10.44489915492518 13.402287695499899 8.754435607104709
Pd 13.058718057164661 13.125931769668483 8.502505230021425
Pd 8.920741710964496 11.13568152724143 8.838867588337385
Pd 14.573849557345675 10.926884129431564 8.55143575059656
Pd 10.299057386002964 8.775735950241346 8.66918464454924
Pd 12.939599168083424 8.80642222868356 8.47235674921716
Pd 11.455702718296955 10.923867477824425 14.691306358483661
Pd 12.131349277721126 10.967597555140829 12.237092560837903
Pd 11.987541760754999 10.986871996493234 9.631323362791445
Pd 11.058251579064576 11.128815725765563 7.265369535415587
Pd 9.747080672906584 14.955248409269066 11.161009018660799
Pd 7.876913642836839 13.456734883245973 9.831022598519011
Pd 8.019942607550329 13.397079430001599 12.588997343277233
Pd 7.463483203994166 11.141194885191878 11.185090637108171
Pd 7.86225235660962 8.793149297647732 12.491221249934357
Pd 7.71748004808408 8.857346250219905 9.736092114176827
Pd 9.476255213380298 7.177732565780293 10.976176673267139
