26
Energy = -106.25906638 eV
Pd 12.456128554085497 5.973016054872635 12.718704896652635
Pd 6.662430517933958 11.59102093339649 9.18083497201075
Pd 10.218155122951728 10.706145639927806 6.749580697265734
Pd 7.148548168517801 8.86821764079973 9.260442766403974
Pd 13.819542483282238 9.184899120943966 9.408950801440886
Pd 8.757647575250497 12.753226016463833 7.8000335927283695
Pd 9.637412548308724 9.436140835399767 12.116677288919613
Pd 12.873776655797469 10.845219067192968 7.477093817024424
Pd 9.101588699729373 8.282689058297874 7.367522198399452
Pd 9.520539393332072 7.683900153622395 9.898220386661214
Pd 7.566003935941096 7.786774088368458 11.71105180022606
Pd 11.505534750922086 10.932604919604413 13.525882954868317
Pd 6.341659060150073 12.634643771185432 6.838011233494565
Pd 7.572516499966407 10.35614371559553 6.9882494125795525
Pd 8.76961617810935 12.710518958096886 10.444110754463548
Pd 11.073387164175497 12.160569014159998 8.879021357496523
Pd 11.857033066750391 10.101708813803725 10.936052839381995
Pd 11.959529299739552 8.455336853420784 13.094597092592533
Pd 11.238395739553079 12.597866149047801 11.488264943646875
Pd 10.005684917421535 6.759945463133097 12.28447910916713
Pd 9.294357781381246 10.348193469324766 9.354599343148445
Pd 12.114231388382013 7.413152967594252 10.574237538717773
Pd 11.425213283143195 8.892270963165473 8.442625365641653
Pd 9.09049007884647 11.937922553498488 12.934994192277983
Pd 7.372164748742786 10.501070511775612 11.44325900983374
Pd 13.453053981073992 11.921444860796056 9.91714322844509
