25
Energy = -101.43339499 eV
Pd 10.094328457173459 11.172639471354142 6.789263700156267
Pd 11.623537023146932 13.189928309773013 7.616469391983288
Pd 12.690849764618664 10.658206408340448 7.399633581510181
Pd 10.806497419217877 8.797852361007214 7.62603994862396
Pd 11.060789843570591 11.40532979185173 9.48461959684413
Pd 8.969261163307234 7.375630235956014 8.86315218598796
Pd 8.699049336420835 10.021658145078502 8.912213410308677
Pd 8.947270983995843 12.688036269848043 8.635024908309648
Pd 10.83617190641001 8.744468011174877 10.251081004986396
Pd 10.826872886198494 14.07117926224642 9.997473449296276
Pd 13.046693588730092 8.223881092000758 8.89537315707692
Pd 13.483843758379713 10.561829915068998 9.897711044849206
Pd 8.324930188346581 8.491943579892908 11.13485597414421
Pd 8.4164088684306 13.576688513009147 11.060093425806324
Pd 13.061084982881606 8.483307778791387 11.714045795957396
Pd 12.959139715434842 12.906946917374574 11.055080249105993
Pd 9.148573048331357 11.045054775502459 11.385746161240373
Pd 14.370481226159564 10.885151418472352 12.310392120345327
Pd 8.35601069132041 7.170066111365523 13.387802757680069
Pd 11.77528811415052 10.758336396179295 12.097996198141658
Pd 10.616857395213936 13.094757114316145 12.489001157150843
Pd 10.482096297495852 8.628417584946455 12.901297758345438
Pd 8.176570013320452 12.428781032206869 13.487568820950015
Pd 8.07482966171541 9.729262634358914 13.51530082442235
Pd 10.278787745021114 11.016870948875539 14.218987455768685
