27
Energy = -111.35472039 eV
Pd 7.857764505259754 6.891007746464381 9.458702344563308
Pd 6.342866129027119 8.823543416224577 8.392002200976906
Pd 6.233800553883418 8.622904188284839 11.060583293181791
Pd 8.785996796301154 8.376681041375866 11.340604074117664
Pd 7.4757446160828165 10.500645589437138 12.54150236331029
Pd 7.58936300464299 10.849810519585482 7.2301960418873215
Pd 10.552480728652071 7.135450752503286 9.625118243120232
Pd 9.060610222217404 8.840516652421044 8.2016945431948
Pd 9.355954242919564 11.920570501110527 13.916436379958729
Pd 7.64865651441485 10.584001585652874 9.892335208081548
Pd 9.591846024125301 9.29224649897438 13.639598386460076
Pd 11.384213594480862 8.298207474559 11.942140187812127
Pd 10.499251408248515 10.115785395288379 10.168234113984976
Pd 13.117129112587207 7.843399222196672 10.062890724474567
Pd 11.764134969175531 9.047683465091703 8.099577463717514
Pd 10.205457023272716 10.556161784869394 6.562172040862316
Pd 9.543857011292824 12.04568759154196 8.652781555158077
Pd 9.204656504558107 12.192530018578424 11.313565887093642
Pd 11.283705038845447 13.486376487724343 12.729592100529164
Pd 13.761369870949837 9.536830659855148 12.305655779643851
Pd 11.458166573626107 10.860213285024336 12.631459481965212
Pd 13.131612444485311 10.470725556505494 9.997164018658934
Pd 12.197029704805736 11.741227862943004 7.864210966121298
Pd 11.535781215170113 12.78616954053244 10.206529204212217
Pd 13.192361120609004 14.624283900215987 11.204457313218402
Pd 14.08359981194228 12.880190434034555 9.405228185609552
Pd 13.672018864277163 12.200341272834198 12.056441459471605
