28
Energy = -116.27997618 eV
Pd 5.951535996507693 10.210729547964576 10.086715560449964
Pd 7.200186514734526 9.243789993781274 7.858849375493276
Pd 7.133936308052783 7.761628526010074 10.183355390188831
Pd 7.520304118368223 11.76491849347218 8.550913686038223
Pd 7.772207116360592 11.80002917949079 11.173358748499886
Pd 7.391535064064313 9.408784913904123 12.226305017221952
Pd 8.63847392630479 6.936064046988754 8.065640360996671
Pd 8.98260996635068 9.541050435294638 9.745297656905702
Pd 9.668555316212483 9.146190397231647 6.941548014394824
Pd 9.296965333127654 11.036423042393809 13.424171188338216
Pd 9.556650301066666 6.794661718610916 10.585948313281575
Pd 9.208626628195631 13.655131811220246 12.422748322664681
Pd 9.388271174652335 13.500090847099656 9.617491345394631
Pd 9.859641497853573 8.763243929692223 12.16954192331285
Pd 11.091479698969525 7.774573341864836 8.681336959951045
Pd 11.524942679907651 12.681616439699587 13.45413315056946
Pd 10.395695263301251 11.619230614317729 11.126946733621335
Pd 10.000764994827946 11.402534804409537 8.08336799366926
Pd 11.970094175972095 10.077324922494494 12.898932277868159
Pd 11.81209585187775 9.885938160796593 10.091074788781672
Pd 11.585949466163276 14.129886563154558 11.184155174554991
Pd 12.098399522855404 7.600798438896873 11.317705922507383
Pd 12.234106069107291 10.06840581582539 7.520280198948948
Pd 12.113924698151989 12.505463708115022 9.08653669268697
Pd 13.206024936035982 11.96007146380343 11.46150237048982
Pd 13.67758864166369 8.233431606593461 9.087633498682498
Pd 14.177761484755766 9.415737796993565 11.491120359935938
Pd 14.276769422865794 10.8724063902087 9.231390190015794
