28
Energy = -114.31881553 eV
Pd 10.352530650286992 12.966910903675181 15.295750373800065
Pd 11.634690376753289 11.428977432883036 7.7137686702388395
Pd 8.586008327141421 13.881143815487057 11.052742836916423
Pd 10.57675336814768 9.022921189738572 7.904513951846874
Pd 10.298781379619456 12.343521722132847 9.774564405679488
Pd 13.396200508043865 9.420775542680639 12.007399999001942
Pd 14.926617289127803 11.365142863745303 10.88030798308335
Pd 9.527132862639252 10.45725695473236 14.961304482965854
Pd 14.330533671574653 11.562473603083928 13.351453362377832
Pd 14.03574826047837 13.850515386711221 11.56109622349853
Pd 13.155744216329143 12.657688766273331 15.769345001282762
Pd 15.65063114897144 13.66978811025863 9.431982225055041
Pd 12.219707783970074 13.719826995414408 13.525734175500512
Pd 13.1896367286732 10.075546736436667 9.297987163768509
Pd 10.839246223034635 9.131587315024582 12.831217671765687
Pd 9.721530978352568 11.926357588516955 12.6180026916033
Pd 8.565327509883275 10.485012601377017 10.62390238948941
Pd 11.36531886042595 14.26572516333178 11.113258361449367
Pd 10.93796550659356 9.559169621295933 10.367446319162177
Pd 8.256999335972756 9.484268313729473 12.946835085042597
Pd 12.14226090279632 11.644194603931108 11.570593878498181
Pd 11.290951243189799 11.105089456041448 16.84198959060269
Pd 9.72556844152167 14.467005127934195 13.318791220021012
Pd 11.996587439460967 10.908914168524507 14.241120950872821
Pd 13.112038022347807 12.96131439218457 9.276465776948118
Pd 14.722071418510673 14.04870713422633 14.0748842264387
Pd 8.922426946286821 11.012520274937842 8.077560550530277
Pd 15.298444601099357 11.355098216924578 8.347434433792102
