26
Energy = -107.11488197 eV
Pd 13.44414319670046 12.37773379165706 9.72136845132911
Pd 13.323366381978476 10.186188152133026 8.12177936951583
Pd 13.164304702978683 9.902534347689885 10.842907297847075
Pd 11.977518012499031 12.408756739592974 7.387363303636427
Pd 11.682172886227008 12.176176928722956 11.758512977079683
Pd 10.934296118176057 13.588068642201684 9.630979684452722
Pd 11.085872336190373 10.919823840130027 9.5531304986627
Pd 11.893610220396287 9.996273883031357 13.20506235808912
Pd 10.706328584305883 9.95392723067371 7.07903863959121
Pd 11.718204992329984 8.386014218440335 9.137942206302645
Pd 9.499079034460392 11.508862017236709 13.059308569517636
Pd 9.381297819522583 12.14479935265543 7.855707166055272
Pd 11.887406415052926 7.658264544127624 11.71332719444507
Pd 9.96613902593692 9.461784230274056 11.511931244902838
Pd 9.920196878840418 7.483666339471083 7.398904795918755
Pd 8.890711817592825 12.100570714441721 10.537149870349133
Pd 9.387927615863216 7.178994582366296 12.688785367119644
Pd 8.840785660984377 9.45463362296738 9.17948683932105
Pd 7.851313956141872 9.399070323759407 13.14925391817173
Pd 9.770782173175263 6.921427341809451 10.03309797970092
Pd 6.983989885516843 11.424162991963149 8.48866730568845
Pd 7.576923155936539 6.9320984492858555 8.432550872900386
Pd 7.880198685310874 9.270978429087766 6.822513567058576
Pd 6.939169830218373 10.49231820777554 10.954938445197
Pd 7.433094860527165 7.8666033950686645 10.961210367467364
Pd 6.03910017162455 8.977089364320474 8.910810254403659
