25
Energy = -101.48274548 eV
Pd 11.470829031219896 10.963690357901992 11.348962313130354
Pd 13.04808597182742 8.564077498764224 10.082979644587637
Pd 10.402966457160714 12.593257622409244 13.52084349589453
Pd 14.701924066368395 10.47336187208055 9.547723922473287
Pd 10.386117494032701 11.041699144966369 6.885258654869129
Pd 10.347928067515005 11.143408586224028 15.683328927000924
Pd 10.962343124669038 13.737657406303432 11.258888854885535
Pd 8.669977964003293 11.000439080826064 8.865871510660506
Pd 13.677350074486695 14.881209901570443 11.416586906031439
Pd 11.898139854997115 14.865340506100335 13.499369528948504
Pd 10.683859979708586 7.321096149988418 10.242212341781034
Pd 12.181609962434003 14.79317017924286 9.204166987586506
Pd 13.372833968765292 12.559432662989417 10.158427846192264
Pd 9.06612591813758 9.304137698602224 10.868575208187877
Pd 11.47616099881234 16.350844753215924 11.330855446687352
Pd 10.997689221695712 9.71486686107031 9.050980603139445
Pd 13.912365872197647 10.205195822591628 12.02053140999787
Pd 9.013329356078646 11.909587496328474 11.34602298880146
Pd 11.766850982234399 8.54928643217144 12.426867022582602
Pd 9.425778481522908 7.465003491531933 12.654972010758765
Pd 13.224790203127464 12.64787325154934 12.803570997513857
Pd 9.666123494292771 10.044278422501035 13.370955639940952
Pd 10.902434064934054 12.445011043721369 9.005903761304053
Pd 12.3435922619303 10.497221842334364 14.109929086696988
Pd 12.396221592086036 12.924280379253961 15.291643354584695
