24
Energy = -97.28166345 eV
Pd 13.713088931582323 11.573933530250613 7.604402619104747
Pd 10.579397048724676 11.282728431275858 11.11515473700794
Pd 14.831427041444263 11.055053310552514 11.364585490621211
Pd 15.577213135439662 12.321986056885839 9.24320507362618
Pd 12.596975156937415 14.954660807032868 11.634084167471007
Pd 12.737276081709814 10.66916640491451 9.774887696327578
Pd 15.091357040537916 13.89153706968666 11.325806368008905
Pd 15.016834329177245 12.5195378931049 15.744384120068172
Pd 8.553461718556377 13.075076744774183 11.612595993476083
Pd 16.087713786839892 12.342109560445545 13.3037135963116
Pd 12.742281348297055 12.374460170006472 12.257320457509524
Pd 10.025055016953997 15.347624155098739 12.300846228370713
Pd 14.021946217023613 10.780619124367199 13.984912436394156
Pd 13.476932558921488 14.698833736353306 16.268978624488646
Pd 8.820797714216095 10.915131530574152 13.235365497444059
Pd 12.799409203922218 9.44031698981426 12.024818946458172
Pd 10.69001816415536 13.717590268904132 10.263663286426668
Pd 11.811951151313938 15.091441227654359 14.27576073256157
Pd 14.15728967843874 14.056054525574046 13.752528044139625
Pd 11.33830264840903 10.493287076875482 13.992375423095814
Pd 12.336321482093837 12.53009054235065 15.297065690321478
Pd 10.229238842217127 8.9295274041226 12.150822082426108
Pd 13.13204545091229 13.25766558410242 9.572611888459553
Pd 10.485318046235761 13.005868763496004 13.445650779529512
