24
Energy = -98.41199508 eV
Pd 13.542919493247185 8.961280933648181 12.098367171182026
Pd 12.091053417322446 10.746258556628723 10.746207781652313
Pd 10.750345153527205 12.609658647235834 9.261771396842677
Pd 13.545161296301382 12.527727572038618 12.10425973430635
Pd 10.743704074666892 8.883673778577744 9.260815707702342
Pd 12.08003760908583 7.133001218548884 10.742610135336045
Pd 13.545190631180857 12.530159793858836 9.396013154742214
Pd 13.544299596164175 8.962671672700393 9.389752776923729
Pd 10.745732221751942 12.608492131963924 12.231014407000735
Pd 10.747460309523296 8.885399186279361 12.230960381989464
Pd 12.130757660416675 10.746613836593882 7.96962464702495
Pd 14.9707791086018 10.744925342522736 10.747562901400814
Pd 9.40603404915443 10.74774176197806 10.746060727958728
Pd 12.129860467975607 10.745336275498158 13.523371511455094
Pd 9.365420408544418 10.748557538005771 13.526436657026121
Pd 7.951141423425831 12.528521528633775 12.097168677214933
Pd 7.948456223452126 8.97009890384847 12.105621238427586
Pd 12.08344581013166 14.359718187549857 10.751963232938575
Pd 9.365437597290962 10.746495401676734 7.9664754658686725
Pd 9.411241750958485 14.359367973206233 10.742573510407144
Pd 7.949928367916118 12.52643382375302 9.388491194787223
Pd 6.517394077734282 10.748525895387802 10.747459442620254
Pd 7.949217790805029 8.966939560231706 9.39654841132848
Pd 9.407617473068047 7.135036485756608 10.75150572774033
