23
Energy = -93.66123018 eV
Pd 10.384782834746186 6.953668635382331 8.523565120136194
Pd 7.853340063837563 6.374444979438155 9.274755383758547
Pd 9.855759271781304 6.0662967459669375 10.963961232575642
Pd 8.407059233040464 8.263385725022701 7.355934462349792
Pd 10.977320520611466 8.573615682911742 6.434300009270797
Pd 12.754114465766275 8.117237874756528 8.310146387773447
Pd 8.807638639858762 8.66740543418285 10.300730309031682
Pd 11.632571231834559 8.013295875431284 10.705989042906106
Pd 6.2636945025779145 8.454405497792825 9.05446591992848
Pd 6.749851899609412 8.148834793804161 11.743725098505774
Pd 9.32335995005643 10.580474880470433 6.223707459742352
Pd 10.462923709523354 9.827232662253229 8.799803331369741
Pd 11.756920580931014 11.398166096382152 7.265692495535205
Pd 7.700431143411913 10.539254547553764 8.306054720431511
Pd 9.81763466484158 8.042931374944397 12.710980104965452
Pd 12.945347437221896 10.220084616352395 9.872624764578484
Pd 6.51577470790833 10.599418974981681 10.687672524777117
Pd 9.44040799450223 12.547560276172842 8.059569748332502
Pd 10.884301981984178 10.357912060708578 11.677390044544358
Pd 8.330017196646542 10.204610235050632 12.654485784414653
Pd 11.42828502785747 12.339455615408735 9.861445035302108
Pd 7.053244743266675 12.863804825432002 9.280471885123582
Pd 8.972974987868126 11.612133087083718 10.51354987726658
