29
Energy = -120.66434215 eV
Pd 13.500549437768244 10.659859311126091 12.78209346820637
Pd 12.59230741573553 12.860300958499945 11.57219118848333
Pd 13.429836322076124 10.670271397902326 9.886185824210752
Pd 13.499188714340516 12.65476405398621 8.164467972448522
Pd 13.13178942531028 8.431551492012893 11.450631559080414
Pd 11.259265358825417 11.801014364354879 13.694130395562555
Pd 11.310193588303978 9.107833105195748 13.379643084470487
Pd 9.775512421330333 12.772782087704766 11.676807661036802
Pd 12.122228135540016 10.551194592272713 7.421185284498431
Pd 11.166422534649946 10.524159001176947 11.165862361608056
Pd 11.720303643454873 8.527963188744707 9.306413899464149
Pd 10.195010027040174 12.660652201146558 7.045991059282283
Pd 11.242780221989266 12.561014003676886 9.397437534524391
Pd 10.75357430309659 7.158225409995585 11.513267996281746
Pd 9.808299533248196 10.41218255381269 8.604569314191405
Pd 9.003392414696679 10.484609906315596 12.853203832910014
Pd 9.40451716476301 7.039256601334576 8.978075360031118
Pd 8.107659917658287 6.560481418625397 11.322322543281055
Pd 10.735159786116467 8.223964338417515 6.949912985689074
Pd 9.128796521930813 8.972987751468716 10.666664193853475
Pd 8.915975801092772 7.903152568763114 13.431797430042034
Pd 8.525385096212748 12.667341308280497 9.313389201294829
Pd 7.230362646547281 11.899389911823464 11.550089919305565
Pd 9.777641359474503 10.355455282226547 5.760213863558677
Pd 6.761498538902309 7.722631703982784 9.387126675759076
Pd 7.724869103466981 11.510933544689715 7.025250151773918
Pd 6.827730891024243 9.08377077761135 11.88622361954453
Pd 8.10476666465272 8.845867532839131 7.351990710279128
Pd 7.194348580094257 10.337509425926065 9.450415314055535
