29
Energy = -120.1638179 eV
Pd 11.031781369007033 11.671790029010198 7.339285337441092
Pd 11.365875263482486 9.191245366646926 8.118658679284952
Pd 8.933215806129382 10.103576111169396 7.452907032736792
Pd 8.981841138778915 12.330195390829278 8.938515070077827
Pd 13.1254651282088 11.030261873734174 9.039005977632078
Pd 11.432205481550836 13.132900207504592 9.471137390226602
Pd 6.886147118758283 8.499416395015036 7.734740251018837
Pd 11.883579797247323 6.575448668703408 8.166000644398249
Pd 9.371327712243902 7.40915783348706 7.849286994472404
Pd 6.739425381459427 10.889387989640486 8.969245381282462
Pd 13.762342068245806 8.405564116940253 8.838955465909901
Pd 6.905183304286519 13.207511228312304 10.348773792486234
Pd 10.599824458075634 10.62853703988372 10.232611655756418
Pd 13.959603410105963 13.442853617535537 9.980450817453027
Pd 8.398305219423165 8.958449187276345 9.813419369225901
Pd 9.35010339906954 14.194050321871384 10.839319158045756
Pd 10.581910876785763 7.532405931526857 10.26073815248873
Pd 8.014879766673813 11.059073506081335 11.375296221733427
Pd 13.020443633258889 6.611654724752091 10.705216931421278
Pd 11.986973474377693 14.354320376818045 11.683403487777571
Pd 12.723666207860026 9.235944013414331 11.082610158110356
Pd 12.882827581390915 11.791010629401734 11.701443832745694
Pd 10.389253255199664 12.346051962292712 12.327790599707967
Pd 9.446038973196814 8.96072439927052 12.174628318718163
Pd 7.946045688045377 13.182872935839638 12.931151910065367
Pd 11.58277810954419 10.190523353240073 13.303525149030518
Pd 11.601833468777835 7.487789226090096 12.771093310762309
Pd 8.898670330910601 10.88871766730255 13.937556205953602
Pd 10.054442166249066 8.56507357988561 14.696121882638643
