23
Energy = -92.8355241 eV
Pd 9.364355525237812 13.930736550517699 9.710312236005151
Pd 8.647555591603135 12.084232449515584 11.428909042567046
Pd 7.615589569567512 10.043209313521372 12.562532718011036
Pd 6.938784717332436 10.667753710934555 7.645651300156511
Pd 9.334236343801237 11.742735689400218 8.330403854856096
Pd 8.06178665456391 9.722349399156325 9.928107874941801
Pd 11.651456391796444 12.89545933046213 8.622201933498541
Pd 9.810952359123245 11.18361903101582 13.517682270209
Pd 13.599410974430471 8.103921159790838 12.62652519692522
Pd 13.32174386556304 11.445631265474821 9.950451040125438
Pd 11.791089402417008 10.191645623890405 8.001276784275422
Pd 14.939318148588178 9.982492704352971 11.443608181207475
Pd 11.509856452190867 13.025922789473505 13.82311538310855
Pd 9.198463014247105 9.353643370086608 7.471790435939533
Pd 9.529607783733224 8.422215699261036 11.90345725368947
Pd 11.331594163105281 12.948660895620673 11.247787390004397
Pd 10.422057625946218 8.157660692448893 9.383791894679558
Pd 10.608007298818384 10.641259243079523 10.325333746072568
Pd 7.032104115863271 12.483755055729674 9.519135822676994
Pd 11.649517168460285 9.76384176269691 12.520183201914268
Pd 13.317609003627824 11.63162965199143 12.645682052157294
Pd 12.850626186663607 8.893728336735888 10.160078046289676
Pd 11.60324065484158 6.890357084130828 11.392519344233952
