26
Energy = -106.27952947 eV
Pd 12.00405475281297 7.776064299658857 13.872335512433873
Pd 12.260311634887652 10.278521069379487 13.446778948972696
Pd 10.027543659606845 11.828618959691003 12.657067645610148
Pd 12.516455126395087 12.835522546359192 13.03948421046704
Pd 10.033631067881561 9.16515300813963 12.583301707766578
Pd 12.377752681136542 8.484565496664926 11.283899646200327
Pd 10.441215825019682 6.5285837153396855 12.187043495809105
Pd 7.833842447613688 10.479851706582767 11.652032585592483
Pd 12.054770151873466 11.202430076369565 10.976262044106837
Pd 9.007240930428134 12.550023181052644 10.321353345102766
Pd 8.263269981623024 7.73597010733391 11.226493305292037
Pd 11.257596066110828 13.735970831597301 10.911168060840929
Pd 10.426161607472917 7.388749603830041 9.744547881917754
Pd 6.232634175787383 8.918841271937302 10.09668437019216
Pd 12.231000283127278 9.715552927538992 8.872492796643908
Pd 9.840194553302428 10.00041184932017 10.017466303284088
Pd 7.291444646238795 11.070606095126482 8.99062841286272
Pd 12.842795635814507 7.202497371134241 8.85308565793607
Pd 10.76528450481859 8.213324739628328 7.238662006071452
Pd 8.678877675782724 13.012933342140201 7.719082863930733
Pd 8.311583627473913 8.383836398677605 8.486612567120158
Pd 11.1005873734403 12.198846693257979 8.646610437485355
Pd 6.118213473907618 9.195269113966202 7.402610279997823
Pd 11.829310710220607 10.679268031080591 6.462614780293557
Pd 9.407604123503233 10.503870238658523 7.318379168016101
Pd 7.154711691249417 11.317966040649418 6.327424367557903
