22
Energy = -87.66281724 eV
Pd 14.23900559524536 11.298201288760264 13.731206744260474
Pd 8.149746592297223 9.481201645163186 12.090074411768256
Pd 6.5949141594065095 11.516135937707883 12.269380261488584
Pd 9.967917071330595 9.385098944152857 14.084473090995058
Pd 11.084836422553943 12.380397425567105 9.813212634494972
Pd 8.879704711147548 11.797954922640123 13.508485518896162
Pd 13.498114179757657 11.031519045205147 9.079736087921153
Pd 9.779971421840957 10.015414103699023 7.105739496385104
Pd 8.649328538631778 9.992964475213954 9.571028611282506
Pd 12.970447708516284 13.677119834403324 13.617199527922036
Pd 12.914073029397402 11.895850701527186 11.59029559065445
Pd 10.638006863164714 10.422618058498843 11.724554137212724
Pd 8.66166218701284 12.281828860059054 10.89397621871904
Pd 13.036461594049472 9.12845645443827 10.936694575672657
Pd 11.448107561949179 11.620496787333714 14.21242845667439
Pd 11.589660819633139 12.001178308699394 7.326669895962985
Pd 10.775645224559689 13.332991639565433 12.244099468361812
Pd 12.525247919617518 9.308402760337959 13.43165454527609
Pd 9.012526231716466 12.342972787515794 8.244916491427293
Pd 11.181795352959297 9.659566138603015 9.250062133499604
Pd 12.537538050174275 9.575310664399975 7.028863023537453
Pd 15.143058626329898 10.639098488422169 11.212639660158583
