22
Energy = -89.0817683 eV
Pd 10.958150955412131 9.277978361996423 12.77920364892216
Pd 9.4313641090694 7.076460884976041 12.395256792078115
Pd 8.221655661573195 9.403390281584876 12.9457682007326
Pd 10.987749721670177 12.053498388826204 12.316795623395851
Pd 10.934586041477484 7.940849018625483 10.406244399592978
Pd 7.877766246492738 8.26724692969078 10.541052352716003
Pd 9.146841061759972 5.994860370958986 9.947981611911198
Pd 6.933548363053365 10.833688715701355 11.058939475327021
Pd 12.1887898973601 10.32729968263126 10.621982290355918
Pd 10.62340369451448 6.902321166076274 7.918313972670599
Pd 9.524344952754916 10.44582380454136 10.902016935763001
Pd 9.50295298644646 9.25338371435711 8.579512032988678
Pd 8.608985799883396 13.015655274360244 11.081058439502092
Pd 12.15757556930643 9.089038007595665 8.230146463216371
Pd 10.786092747468526 12.531761904677762 9.65674353552698
Pd 7.889701529529304 7.310405002735573 7.975074583266671
Pd 12.9120870733659 11.610453975775204 8.426095945974064
Pd 6.620804175247564 9.639983980967491 8.638250300888524
Pd 10.53405297528143 8.87421080599482 6.077139210221664
Pd 8.34914750105255 11.693496648848994 8.772180335522057
Pd 10.598958673573843 11.289899766138287 7.235859406336607
Pd 8.178945507655845 10.201233882439187 6.529363659419477
