27
Energy = -111.65865823 eV
Pd 11.372660714594844 10.634834157546038 6.850168106260206
Pd 11.615154434362672 7.973636894389048 7.301292768712174
Pd 9.171997563860408 9.074789275894913 7.041922803857409
Pd 12.939478161608283 9.822684515550716 8.7994415942741
Pd 6.913265774821269 10.502062172669355 7.240197621915635
Pd 9.21422159766644 11.632073457342951 7.989685042173703
Pd 9.589523300194964 6.985999525337357 8.848521188447865
Pd 10.318324263710217 9.449327628345616 9.418963040152764
Pd 12.067533618428419 7.505833046957301 9.924091243833342
Pd 11.60930665332553 12.247713141249033 8.997681654897146
Pd 7.173992779702474 8.155107216090546 8.508870210097106
Pd 7.445425463131119 10.43867487967577 9.83507744893391
Pd 14.021550340116391 8.848372905536769 11.07799119242187
Pd 7.02404659598948 12.908028740062068 8.525446034219282
Pd 8.394336525164285 8.27686467709304 10.928132703142785
Pd 10.199096462542125 6.354731690369197 11.40767999532577
Pd 12.40569576919775 10.917378139693975 11.184555345782737
Pd 9.332233181044122 13.839946429459797 9.61776895426816
Pd 11.37165244935367 13.426884006787205 11.447298132165221
Pd 12.603043741013451 7.075330074979549 12.480280907054777
Pd 9.75372684085691 11.525298821012097 10.795012285303137
Pd 8.299044880823498 10.458552657008191 12.595839585019707
Pd 7.308048106565803 12.699739907098396 11.127395068775982
Pd 10.655875034881104 8.892897322075568 12.117257190360235
Pd 12.931367935444102 9.600678985947978 13.417043686057694
Pd 10.884343010310449 11.275287668948382 13.35266734041477
Pd 9.086297830446998 13.137498584939689 12.984766631305398
