23
Energy = -92.27441525 eV
Pd 11.393511020651115 13.545195340404623 13.010875420290922
Pd 10.205047961100085 9.309400147649825 10.810393395406209
Pd 14.34256076907474 13.524434620483502 9.492016540669207
Pd 10.228487217508144 10.703250965479226 8.643784301978451
Pd 9.975806966203445 13.339937089064076 9.035918163212976
Pd 14.252496552128818 10.96158122251813 10.40467689186691
Pd 12.70770552048448 11.74993498723962 8.359712401297148
Pd 12.270781574487158 14.305338006397971 7.8774233201873525
Pd 9.737916823792544 9.736670400272109 15.233481159175092
Pd 8.680960510337533 7.395112154346038 11.740716829073309
Pd 8.463257514869658 7.623699325473841 14.346242469094632
Pd 10.714216914010198 11.087781312343882 13.161319648471435
Pd 12.02000025842397 14.253931710453962 10.513725349798321
Pd 9.107737390214659 11.77517873994876 11.116850316210815
Pd 10.768703815004994 8.150120269949179 13.172959288992276
Pd 12.355076460427686 9.650112245533432 14.584964998662707
Pd 11.705799537298713 11.700711038111022 10.783382702710428
Pd 8.391332180765026 9.808666203368064 12.804148570529117
Pd 9.490062380231336 14.339311994823573 11.426303952576982
Pd 10.751705036427953 12.459325320138204 6.717097939405545
Pd 12.457798009435301 9.237722512965963 9.366446687669127
Pd 13.820062018109068 12.919320089908972 12.085413863010253
Pd 12.751468637896789 9.483781504745416 11.985525553323386
