27
Energy = -110.77285393 eV
Pd 10.53954372814737 8.146066548045784 12.87920657786782
Pd 9.03840237982036 10.37903548325834 13.080711571813397
Pd 12.636714596764335 8.41368115964843 11.22229339204487
Pd 11.464150083014399 10.575031283533402 12.136163999111583
Pd 13.633018221522427 11.018512612883606 10.625781637175388
Pd 10.325017342584516 6.602544451300224 10.59453145384495
Pd 7.933559383446979 7.989482959220904 11.902437466215432
Pd 10.267677492180082 12.948509672015858 12.47141401331796
Pd 7.688889193514335 12.67775485913756 12.815201229820246
Pd 14.331957124395284 8.947937369192584 9.184803783659374
Pd 6.498560528481708 10.272914630740312 12.439703440402898
Pd 8.911911574916836 11.386042084592917 10.659338850054242
Pd 12.585724232346989 6.891080210172404 9.125152625617918
Pd 10.429749693351347 7.7213150849299135 7.934874126204172
Pd 12.868235687350841 8.48991518472666 6.976893264096631
Pd 9.746292179845186 9.048082194174016 10.487126197549546
Pd 6.244318201551261 12.274690694921315 10.624835085766817
Pd 8.040426921970006 7.362188113136149 9.16255221926515
Pd 11.701524148932448 9.76275648186726 9.144059150805179
Pd 9.154483804082462 13.826813393388544 10.051557974604698
Pd 12.89980565335937 11.698518963593688 7.988206872681454
Pd 6.952696462080335 9.753754087526026 9.921021367988484
Pd 11.572458145431012 12.545170736839387 10.249266670402875
Pd 10.923337462989075 10.177012637066094 6.577106226998427
Pd 8.732693300754962 9.71306063591248 8.028960419266351
Pd 7.589650357363894 12.106935808926567 8.383174961598856
Pd 10.181684557471458 12.080648858471436 8.173842701777096
