28
Energy = -116.30688498 eV
Pd 14.098039947917572 9.256001348685777 8.479605327326032
Pd 13.466019131444721 7.826840119915438 10.61532293681275
Pd 13.64995247071987 10.66925167215893 10.825617177394447
Pd 11.87853609617078 7.609716747116853 8.48811665559181
Pd 12.121657176448535 9.866684744636993 6.794693718999883
Pd 13.293367602082078 11.802308487445245 8.257422556579163
Pd 11.038748454984434 6.720850816853485 10.956488544099658
Pd 11.563156076187688 9.970362581426496 9.488928890458764
Pd 11.709719074255993 9.144335451286825 12.029405832640226
Pd 9.711981593072615 9.236020331859473 7.728404555484707
Pd 9.30219814845656 6.804419915766906 8.774050191648087
Pd 11.680915154362085 12.499234315313858 10.231260405336771
Pd 9.679560381086924 7.809894838947044 13.119988561028363
Pd 10.623350439515471 11.922378927888511 7.713031787443252
Pd 9.761598054644613 14.022112172293106 9.289588244407321
Pd 11.904075091706574 11.69677593532644 12.712525247506626
Pd 7.078697318329072 8.154316595174427 9.557319848517809
Pd 9.401762811029323 8.805381072984263 10.498549560416755
Pd 8.065784806250951 12.674725422027445 7.776206514037774
Pd 9.621013154731454 12.941298168080733 11.813488846130587
Pd 9.050165460601677 11.239073951340659 9.821155702156712
Pd 8.259015580154506 6.4836766616148696 11.31638272556376
Pd 7.344034451511761 10.170059126983771 7.8671205615231
Pd 9.532419614222952 10.450251136984546 12.64744528606888
Pd 7.3409688468415 13.230910542494007 10.34485253725892
Pd 7.353708583919579 8.972147822986065 12.241814933526609
Pd 6.563785417612146 10.69229268897341 10.325431789145568
Pd 7.240712300352489 11.693605290767438 12.63800144310223
