22
Energy = -89.14639963 eV
Pd 8.80019832497215 10.127809771335276 13.169622577172413
Pd 12.794000867403382 11.56831969386406 11.549861847698615
Pd 9.291168867217072 10.074183394149518 8.780791094612693
Pd 10.780306863092575 7.994766454016018 9.516275373388968
Pd 9.451164147951877 12.04720659677005 14.878605305011078
Pd 10.918109746822415 8.192244536811598 12.531965698342997
Pd 10.32948143933447 12.639465474355404 12.41375490210219
Pd 13.03633382938353 8.785227278706083 10.678142559525911
Pd 13.072031153243852 8.224856646296228 8.088272908366742
Pd 13.386206400313693 9.283738418467602 13.13283136714423
Pd 8.174836096876133 11.287333334580337 10.797709570715721
Pd 10.802195948397424 8.921825852351269 6.966742887432864
Pd 8.575689737639264 13.856164859864926 10.786136146575195
Pd 10.656172221147658 10.25422720310375 11.093892995883019
Pd 8.590188392651683 8.577512352228092 11.008051397237164
Pd 7.710206851269474 12.639905405671964 13.04709850424511
Pd 12.33152684477797 10.6195066173948 8.969739605546499
Pd 12.913163832679366 10.3739324488003 6.407775927399394
Pd 8.53346648550702 12.603965763078493 8.388212887595866
Pd 11.359063891242666 10.63914758184818 13.8113302188021
Pd 10.704947953064424 11.660654733613644 7.176368303768216
Pd 10.777309047345257 12.60150580634917 9.809375246498643
