37
Energy = -156.37792697 eV
Pd 13.562108138381253 6.627897474577753 10.328504277014916
Pd 12.970368984499455 9.966965687469939 6.537539040289891
Pd 12.334251118556312 8.261347544383103 8.461354064390894
Pd 11.376221617655606 7.832700072446085 10.942066903642518
Pd 10.433850906798991 9.850651395402503 7.219380922121421
Pd 13.726115185331683 9.197238060824466 10.653500571461215
Pd 13.10040022515672 7.838004322711087 12.963129343509177
Pd 9.545007247709268 8.34943939096594 9.140283362131704
Pd 13.734789829057265 11.22010784119927 8.73988806903579
Pd 8.994607580760173 6.751730674026557 11.178461832855051
Pd 11.6909329785873 12.209749325738208 7.195385517717648
Pd 7.841649193325768 10.104793433401586 8.10545532537615
Pd 7.725089349370444 7.974466392354498 13.081896497747074
Pd 9.079512388855312 12.070355558914269 6.445287237183991
Pd 7.187950744327143 8.70394256669301 10.437241534452044
Pd 11.484799955078397 10.36730407364528 9.804964249616027
Pd 15.689089715583712 10.914329374108947 10.68679709392787
Pd 9.531566868081974 11.894583100516039 8.984647533298128
Pd 12.13312641327277 13.308798411883767 9.54526962691098
Pd 10.37986408294652 7.841074657491028 13.37797520865762
Pd 14.53259538558902 10.145066358768235 13.067786169651047
Pd 9.407622630268516 9.72679105586439 11.49134532180069
Pd 6.647785082474341 10.333618663841587 12.771975810617116
Pd 11.732540030317036 10.144427116841152 12.896006105718683
Pd 13.365167757904993 11.833930832512456 11.342995579607175
Pd 7.514338670590436 11.370752098282964 10.498903637158607
Pd 10.059723027729719 14.242033089508988 8.0454542926713
Pd 10.74456615227971 15.374581982465287 10.388581703604297
Pd 10.580510928953139 12.294073480731763 11.49481074480311
Pd 9.072859217754178 10.138114431007672 14.044248599166561
Pd 13.185953638248415 12.315648926051951 13.930498667037359
Pd 8.192265149731817 12.45624821746867 12.836184046134775
Pd 8.577249130646829 13.866935729205823 10.52198766082899
Pd 12.450552278172836 14.208796617267346 12.087331464527717
Pd 10.554094852558185 12.24624798196255 14.185313775710464
Pd 9.841073919533189 14.553563187054365 12.830537349288003
Pd 11.841548995002595 14.475559925442568 14.64622357337692
