31
Energy = -129.55344159 eV
Pd 12.148005534565536 8.83076157461347 13.236708338654223
Pd 9.740557059775654 8.453485684693636 12.202735509732861
Pd 12.660323526434023 11.45856091834886 13.146877877391718
Pd 10.459866013255215 13.066337887814718 13.233900156701255
Pd 10.186113612800337 10.497494464131213 13.94281734130066
Pd 7.703003188759927 10.040985656842661 12.905944603041238
Pd 8.209205609422106 12.225281558871519 14.23937411490795
Pd 13.388476530969353 9.753226791585707 11.104898662487544
Pd 12.837973712043663 14.05275385921672 12.603131731391759
Pd 11.86075597845933 7.579946689680139 10.85871405351727
Pd 9.31967845710647 7.066989712275763 9.980734876920303
Pd 7.243926022244943 7.786789201474092 11.525751056025094
Pd 10.451486672243318 15.276726413281459 11.885277642273513
Pd 10.904608880778142 10.730955348607042 11.304625090391589
Pd 8.612318469628027 12.221098108637115 11.561871738389522
Pd 8.951293393175861 14.238662710494935 9.98935717371706
Pd 8.275309811838449 9.902858501054054 10.276644139047976
Pd 7.235817562509429 12.177407383409427 9.213315255171953
Pd 13.88596437863026 12.369795289388582 10.85176440088852
Pd 10.610911084041508 9.263589013362376 9.025545774340513
Pd 11.457737585773787 6.590425479377672 8.430945607994884
Pd 14.894468971053152 10.638969403885831 9.14951706730944
Pd 7.075628943486893 8.03951301954741 8.83030048448345
Pd 13.172614527749033 8.647125058269026 8.661907221775547
Pd 11.431368323727824 13.267507926057666 10.491365378294919
Pd 9.791323462756099 11.916392248544728 8.968029388221014
Pd 8.247303472377645 10.142594428429492 7.591713498233838
Pd 12.369829761513627 11.32719265925249 8.805265408380626
Pd 9.235365995481866 7.7233310337613 7.320666863115473
Pd 10.685603132653297 10.855259948455572 6.750049662481304
Pd 11.601939683847425 8.436566394845675 6.486586949594538
