34
Energy = -141.30688562 eV
Pd 13.387521269503821 15.193871928284103 8.40038033896598
Pd 11.879407320128053 15.147091559817358 10.550576978021805
Pd 8.025485097264085 11.085485111747515 8.415664860416038
Pd 10.12780173990159 13.174244082709262 10.653643467196327
Pd 14.239052302435791 13.678116355584534 10.406295112364052
Pd 14.595915172653543 11.763986870406137 12.23599114449629
Pd 10.818283521012852 12.857833103803957 14.395856072426712
Pd 14.595497344223958 12.933334992463568 7.79479268847191
Pd 9.106139500558596 8.239206972407072 12.62336592206787
Pd 12.148845750603517 12.890803300304544 8.977134910674973
Pd 12.454414648647981 9.048111530015927 9.381059443030464
Pd 12.87248422388924 10.825157691796102 7.376679593769471
Pd 7.631126840786057 8.564833671724505 8.543032845826435
Pd 15.430127595247816 10.514107348823513 7.390557165769161
Pd 8.636398254204687 12.84118051148291 12.864951908608324
Pd 10.170480512172334 10.647807120327373 13.09203019930342
Pd 12.77585046666191 10.240565702410823 13.613698601001254
Pd 10.361852292288235 14.891001840249364 12.74470519654471
Pd 11.110823686576651 8.215970397933104 14.388272561892702
Pd 11.634086048846521 8.499120069382469 11.838369789418653
Pd 12.512243181349142 13.376145436521728 12.429529339879716
Pd 10.552434019178527 10.764039789704615 8.577985682057895
Pd 9.789392958018253 8.644238995348408 9.964386740697117
Pd 14.128354080256132 9.197133909428006 11.528687492662325
Pd 11.964147676277646 11.13589257016655 11.028632677384314
Pd 14.345732353391728 11.045502617750083 9.691208945281279
Pd 7.448095594000009 10.463523689070568 13.20707519448484
Pd 9.610418202579579 13.151389964558849 8.111456316384803
Pd 12.14449214439629 12.677771614228716 16.67443581391776
Pd 7.165837920250414 9.002595408775981 11.02052550436961
Pd 8.820831946923388 9.333233806342923 15.130314766244622
Pd 11.117697802972481 10.559046822240068 15.672211176007467
Pd 13.643377991773068 12.437869170939488 14.616411104212743
Pd 8.822788222644013 10.982738518230672 10.854338464207732
