32
Energy = -133.97808455 eV
Pd 11.8160801986863 13.261605563100415 13.014987559369732
Pd 13.294964733899292 12.237061617356858 14.9880322811412
Pd 10.620444825214218 13.496612782796307 10.67765380509457
Pd 10.96959300079653 11.110091021840768 14.532763014065617
Pd 9.571598874790288 11.866510739749895 12.377556215225969
Pd 8.69424430094779 9.808361468511126 13.716872708573462
Pd 13.217755477894961 13.791799219666443 10.688661826459397
Pd 13.391016075871562 9.710382484941762 14.18305987147811
Pd 6.959224409988445 11.553725824411053 12.425779243499177
Pd 6.115257072615745 11.057532414560226 9.779567812368573
Pd 8.231331263955914 12.506489698045696 10.187647914519879
Pd 9.49379331321606 13.939441525751054 8.306592179461292
Pd 10.969429519840157 8.473382581197411 14.519492789912245
Pd 14.133857567364295 12.009987083378398 12.491629866894362
Pd 11.670714377826512 15.291230521057443 9.03555413584703
Pd 11.91964604551723 10.594087205806082 12.12995314523541
Pd 8.149999469038224 9.713857041797004 10.978971595661434
Pd 10.447611332429096 10.86864740545911 9.853974577597647
Pd 14.541493193192363 9.479980543860869 11.78257770499132
Pd 12.726286336525698 7.6577171775438195 12.62698553828352
Pd 13.45159900274088 11.210125506789122 10.00428954608109
Pd 10.270458651421242 8.538167408459014 11.985066575400666
Pd 12.052582287771761 12.772518313174109 8.381843071894787
Pd 7.363621534765233 12.448898972785624 7.673079644113283
Pd 12.122852113380219 10.128817635834343 7.9332920981972395
Pd 7.983970794122768 9.916266509346263 8.341533437304783
Pd 12.527377603659268 8.734003554013805 10.166628052483894
Pd 9.774451760445798 8.30944188839021 9.390299298632677
Pd 9.857284875427784 11.539179796937907 7.3532178970662
Pd 11.346933162529133 6.4532013639391606 10.613867620076627
Pd 11.811839494536958 7.387258083471751 7.995809506573396
Pd 9.97457302332688 8.964863367898309 6.8196786195044306
