34
Energy = -142.65681538 eV
Pd 14.664401433837485 10.215443308177784 9.868997440197758
Pd 15.022514184002786 9.078887938178697 12.191801486246915
Pd 14.111762849400947 11.237519347537441 7.513626120647957
Pd 13.285475753119835 12.55354164195133 9.687393598104657
Pd 13.722309738866196 11.517748076459053 12.121185655257248
Pd 13.313364539023258 7.758754037830513 10.548418440980372
Pd 12.895327394044518 8.92146855311703 8.159916537916532
Pd 12.745509740715905 13.576816018419864 7.243626118727432
Pd 14.144571749539976 10.312810562177699 14.389777742546945
Pd 10.729742613268305 7.781576027806473 11.173361458571831
Pd 12.075409729163903 10.132191440632003 10.375364877678212
Pd 12.46986579880276 8.880654617611091 12.853973794280977
Pd 11.482534606584442 11.237784263599965 7.791322554603654
Pd 12.052972050801655 13.63453844981933 11.826091378947966
Pd 11.46044796483822 14.594735736054734 9.317663579550278
Pd 11.142123068574247 11.29971784622049 12.66998551209979
Pd 11.632465703061063 10.277160633959257 15.022057655947041
Pd 10.516092817809529 12.2730047018392 10.09140135560651
Pd 10.078396658686188 13.520512486627892 7.3488752427708235
Pd 9.845966344321864 8.998262597988171 13.478159065117863
Pd 9.27809387611425 11.465468811903722 14.54283333138864
Pd 9.317297778385845 10.060590978950556 10.890788607250137
Pd 10.243183115720727 9.003632281206388 8.600507033178573
Pd 8.88511861666696 6.898936828527665 9.497522470837518
Pd 8.88881125543385 12.789544669277403 12.132265100363336
Pd 8.046433179954189 7.910717377031514 11.833986954351845
Pd 7.593973717081001 10.46435243025299 12.850741860199763
Pd 9.874412375614819 15.119683024665953 11.344461929519493
Pd 8.460771284466686 13.766654645941431 9.50852204537037
Pd 7.185981379914104 11.595660627048897 10.350364736096633
Pd 8.844450904176291 11.333705554493015 8.210839904037943
Pd 5.9125359820182455 9.414725268427693 11.143258339758574
Pd 7.56934051325757 9.175369983077445 9.054780043437745
Pd 6.310838870220263 7.0178858089697105 10.004739679623446
