33
Energy = -138.4088453 eV
Pd 11.888204292358317 12.881092308320664 13.255097855467078
Pd 12.124861040851656 14.025208055265852 10.801062029422145
Pd 10.986304176879752 8.413422448345841 14.055359701168298
Pd 7.109915332166312 13.817172101509708 11.70051384827688
Pd 8.13516980118252 12.455188822262167 9.569034906537473
Pd 12.075882167513361 6.963601180092526 12.102656698830767
Pd 7.464453060007308 6.857082212500391 11.413084201489356
Pd 14.05650819595407 10.011544521001177 9.231058647074274
Pd 10.498924115315248 13.33577969092634 8.739912810094914
Pd 9.648239107133922 6.369180274519282 12.970515415320097
Pd 9.504282371201024 14.579457858401884 10.836298203076112
Pd 12.323924515413301 7.8769974488545245 9.660303608612455
Pd 11.18598092164098 9.47267997240833 11.530868633672869
Pd 10.172258850155337 8.492968003042938 8.040626364316067
Pd 13.744682173328956 10.969989378134265 6.736153360090772
Pd 10.986247620314376 9.906974107827603 5.878914049952918
Pd 13.057447181498747 11.503247142770764 11.254430834639928
Pd 12.756428833386586 10.369682317004164 13.685165707269666
Pd 13.845260438546058 8.927364543555624 11.667932742786473
Pd 12.786758241433738 8.598540518938556 7.233351417029282
Pd 13.18914363552782 12.602003190866213 8.795029397608719
Pd 11.508007976508308 10.58234801603736 8.91142765467964
Pd 9.8181842345041 7.3946621719333665 10.436753478240295
Pd 11.528431783752938 12.34035102721742 6.614021878715161
Pd 8.790347419310123 9.848902802924345 9.959958487633498
Pd 9.285057566958407 11.103268651452439 7.608245701407132
Pd 10.11450488741155 10.913933934784437 13.692125656556483
Pd 8.752543509949367 8.85460455022709 12.647204145103313
Pd 10.324843035336622 12.007569330127234 11.104713082205144
Pd 9.271186621567137 13.411424463537202 13.22830478463647
Pd 6.574842835081511 9.287126952761586 11.197919186424834
Pd 7.9042731639715464 11.343775801168412 12.227187863613068
Pd 5.853932473512792 11.693905773687659 10.524194064271994
