32
Energy = -134.54883495 eV
Pd 8.956896552255452 8.001777580483862 14.028139785079558
Pd 8.906934949504684 6.835016603605364 11.67497055600425
Pd 12.755625906930758 9.021476086953871 10.78969222198137
Pd 11.307362519422064 7.601543028096326 12.609417465242373
Pd 11.426295180663075 6.818326306026116 9.933924306245933
Pd 12.944788122693678 9.604018100249988 13.3373385571405
Pd 9.835780378347161 8.06332363377487 7.976259841321311
Pd 10.336771282034759 10.035891065328814 13.188498443133135
Pd 13.972152966815885 10.651114963588507 8.899576707708023
Pd 8.06669468315012 10.853804212160938 14.216642445350383
Pd 7.803922307240263 9.36561156464868 12.094663853130228
Pd 14.460677980128876 11.012723174499106 11.455093841955035
Pd 12.428687611320157 8.568760218409999 8.140085893737535
Pd 10.054382128709285 8.94470893750939 10.543259090796653
Pd 11.922522723378632 11.599522443789501 11.838156762238166
Pd 9.012522516213526 5.91749705654652 9.241266689853603
Pd 9.83751441131838 12.687036952259833 13.289370005754936
Pd 7.623670802492651 8.202375808084833 9.609239205436694
Pd 13.248350605692229 12.970413491378551 9.982073722680843
Pd 11.324134195038082 10.864148774299654 9.213995947725067
Pd 9.337787235081606 11.46661817572237 10.983488397867973
Pd 11.564743670272998 14.203205202530752 11.833407473404582
Pd 10.740550248443524 10.241195205468559 6.733333798204081
Pd 7.2202510654561465 12.333629146608542 12.178838617438249
Pd 8.675798080913427 10.443128923716998 8.43613717220089
Pd 13.350983261488572 10.374845839922369 6.3898596806526795
Pd 6.657744342483337 10.63984799917086 10.147649528531623
Pd 12.284437654323714 12.581271283164163 7.458909129025727
Pd 10.657430497811653 13.453061719354265 9.477257964839351
Pd 8.934083125376457 14.301130299311318 11.342111780283727
Pd 9.6119090842994 12.617263121009003 7.215269123617996
Pd 7.910398262864625 12.88357499108873 9.304164590481662
