35
Energy = -146.05072842 eV
Pd 13.302902456444603 15.405654386610317 13.133896514771774
Pd 9.276773720930057 13.32713108527995 13.823026717192572
Pd 13.06317565478112 14.874491562456841 15.846284347971395
Pd 10.872479155800551 15.558629553555528 14.27495243933233
Pd 12.193038063109487 13.020363131856858 14.215773860515627
Pd 10.508280763614579 11.30957501200138 17.34709011210338
Pd 14.794194430264874 13.083930673441973 9.667320050072886
Pd 17.125571221035617 12.875209027301922 13.34609696674299
Pd 9.487747244858266 10.521423257681455 8.0665582321263
Pd 13.460699873684062 12.743737164134142 12.006830668574498
Pd 13.136469089421208 13.500389685625148 7.710477130090103
Pd 10.318018355188773 10.970860042016378 14.765038654224096
Pd 12.818796382880128 11.188390826916956 15.934228572837123
Pd 12.551159000487097 8.385529421555693 11.518244529540343
Pd 9.267712542374822 12.204534313125881 9.975555273915333
Pd 14.822104468654835 9.334815901375052 12.511249731961415
Pd 14.761751715346145 12.851286137698805 16.583615165238875
Pd 10.475155558249952 13.612541552327649 16.08505779732069
Pd 13.21737464473057 15.095523589119885 10.419568462066186
Pd 14.85571022774142 11.535415151925514 14.10832924756986
Pd 10.699057146734157 11.782063382467571 12.157778416580257
Pd 10.95279975750008 9.971725792900747 10.211603198859779
Pd 12.578495001750255 10.284703771158233 13.425370804742833
Pd 11.052157189684763 14.312193148127276 11.867140042640838
Pd 14.539071752268832 11.202237005320265 7.918740351541847
Pd 11.980625456090818 11.01986448008267 8.015625300069004
Pd 11.569300663924873 16.833254292796177 11.867474409368453
Pd 11.759032926096578 12.821626815539872 9.817977407403934
Pd 13.607916986435109 10.584014765306753 10.37310742200749
Pd 8.5236859045823 14.099047886536953 11.48391219058042
Pd 12.414858329731347 13.09438987136772 17.802059593196557
Pd 15.816335072732082 11.562040401692935 11.542379092592972
Pd 10.23512936865587 9.238713109626277 12.648620935109253
Pd 15.533996533696284 14.487941580591404 11.806824294567281
Pd 15.137290273342277 14.129400132810193 14.391695819592481
