39
Energy = -165.75767494 eV
Pd 11.998951769811221 9.212315709060016 15.434381621445263
Pd 9.906611216140735 9.232393546064383 13.530432289950566
Pd 8.34191485525467 9.835316542420932 11.343813562775885
Pd 11.821963842284323 10.908774958268825 17.50156561005552
Pd 10.105380971450257 11.102589539314934 15.51287804649211
Pd 12.357283889073003 8.268282755441591 13.002612556774528
Pd 8.518190305666254 11.58282180864736 13.489280763060277
Pd 10.920816049877157 9.231800105783368 10.982600033702589
Pd 14.289824668839799 9.863616216492428 14.214073490086436
Pd 13.509603459736704 8.421297595834602 10.594342953638101
Pd 14.936176207610517 7.810821501870799 12.71767794447008
Pd 7.143758236630286 10.877753828003911 9.218981597939312
Pd 13.137942274099318 11.827162348788573 15.452136048002489
Pd 11.900185043669131 10.955668070351162 13.210540929142269
Pd 10.093021311698982 11.820270199842229 11.403111625848243
Pd 9.724163205510875 10.479642515905924 8.913266602526486
Pd 6.965524973164409 12.228861989808602 11.454889228750892
Pd 11.324282735968515 13.357915471827699 16.487698526605175
Pd 10.536622691747532 13.237026962733045 13.999083300985076
Pd 12.209234539491213 9.537189419610375 8.645469667853021
Pd 11.466588936729835 11.272256533328227 6.866347727374378
Pd 12.878192768497131 11.138866928262148 10.719378656962189
Pd 15.261541140014398 10.246187646265144 11.747292942446824
Pd 13.8519057015168 10.035451216438114 6.696993285488951
Pd 8.838461985826337 14.052700683396626 12.12009468604937
Pd 8.675926931932134 13.060371756561555 9.526846969753253
Pd 14.275251753666398 12.336569060849355 13.070028186043492
Pd 11.253563325883276 12.661718628252023 9.066008929561667
Pd 12.962827623710126 14.275006667004009 14.409699234087762
Pd 12.141092765536674 13.505184724063772 11.786270412394733
Pd 13.697530588742678 12.239427921008364 8.131600040366544
Pd 14.980586627042104 10.11159121068623 9.129757230463815
Pd 10.93050934497909 15.602812457409897 12.890611338364774
Pd 10.521293770380879 14.931213395224852 10.233983793933312
Pd 15.081027081268271 12.596248854285694 10.467710622434721
Pd 13.22546891134784 14.381604966491743 9.564401024781754
Pd 14.443689602413919 14.790294865183506 12.023244390833126
Pd 13.297298442708955 16.706835344174568 13.477955374261985
Pd 12.579856058635995 16.530431957001255 10.966279766144714
