30
Energy = -125.30830847 eV
Pd 6.438959645496584 10.706515383372214 9.807194411080731
Pd 10.665032796396286 10.806696234297437 14.795267840750984
Pd 12.313534558239834 14.474718243257415 9.486366071659175
Pd 12.422104850815426 7.167777596749733 9.50933988697291
Pd 8.14264357960975 10.750954276160577 13.819694075771135
Pd 14.015949484878089 13.4884387357323 11.472279323385743
Pd 14.097590161271393 8.218526604946266 11.478178151987548
Pd 7.957547329932997 12.622537244257293 8.795253700760362
Pd 8.03608681937714 8.85733218048215 8.801826455273693
Pd 9.322850995022295 10.767134095906483 7.103636098764341
Pd 11.757570601184938 7.0989536724928985 12.17551378511473
Pd 11.629668385631854 14.525447113988033 12.148745831278044
Pd 13.946445326240621 12.223582555612596 9.02257765368713
Pd 13.986951020264495 9.477901790586742 9.022685826725969
Pd 9.668410741916487 13.069385604579452 13.302807536791814
Pd 9.753476855642546 8.504564979534683 13.314202926045477
Pd 10.52072380483949 13.025266471606754 8.063804866319721
Pd 10.610288530993042 8.570712825097326 8.073113232669641
Pd 9.830181409664071 7.797932206606606 10.539346679931997
Pd 9.713783508113895 13.756598652018104 10.527307948709552
Pd 7.866591063402176 12.11902588530732 11.51181460567743
Pd 7.925243455348533 9.366865045764632 11.514591135943535
Pd 11.934165324351852 10.825673469861144 8.032828801291593
Pd 12.379944529109482 12.18215799568994 13.210569217828175
Pd 12.422209252100187 9.475614292925343 13.215449742649032
Pd 14.020812579181008 10.851552706417282 11.436409248713089
Pd 10.251023519079155 10.79592878616329 12.182747452494302
Pd 11.779625964495192 12.156931958082714 10.509039540565485
Pd 11.82448052403189 9.47823942202719 10.515633889448749
Pd 9.549774136928507 10.77593956574069 9.671913564028374
