35
Energy = -147.16105833 eV
Pd 13.209566073968015 12.273107268842939 8.987708291783086
Pd 12.923145695397453 9.783146004254379 8.184773444178909
Pd 12.54169274220814 7.265627849669871 7.492688621191941
Pd 14.18922360354744 12.90684188691553 11.490097397542002
Pd 13.921263094603166 10.322500774127025 10.752178810297897
Pd 13.445115848269618 7.781412747145468 9.947009799460409
Pd 11.043434843037922 13.920080469267292 9.072116404091862
Pd 10.739183097641094 11.374244275419418 8.335290249076065
Pd 11.996751930946095 6.173529808195823 11.562392741515085
Pd 10.385570605808642 8.872275762979681 7.462746363191272
Pd 13.451358251105432 14.835274501427705 9.753873514610065
Pd 11.602701784471073 12.325965870073448 11.111885450666657
Pd 11.347443305666086 9.735522912345976 10.360859087643203
Pd 8.637431772635653 13.050324473013111 8.42547792958773
Pd 8.309572887401329 10.521765609064357 7.628105736731442
Pd 10.838968002371425 7.197100698266725 9.47036241194573
Pd 13.980601308622493 15.432489837246575 12.283310277283844
Pd 11.454554436159727 14.999657488306692 11.569461686929914
Pd 12.667228325704718 8.574211003490836 12.402380347125165
Pd 12.976994638149876 11.107036539519287 13.103657665326162
Pd 12.57367934986 13.694852312046882 13.607558753190267
Pd 9.912559908317784 7.798795993504042 11.903312901884147
Pd 6.205246453927421 12.096083829254884 7.935059107686211
Pd 6.735456944610906 13.073900649690227 10.34404554215235
Pd 8.882411746576828 8.944990189785111 9.695727033352757
Pd 9.007176374484851 11.584610640924693 10.698141247099162
Pd 9.020388220945222 14.299543605876949 10.79999540142614
Pd 10.313137173755274 10.462724172729226 12.83212628877517
Pd 9.910872859601541 13.133790032309637 12.955584347878576
Pd 6.700630534557816 10.438338625385214 9.920911471960444
Pd 11.29929309548472 6.908836750638529 14.06320844196048
Pd 11.751026782639295 9.382753565428285 14.820445553179432
Pd 11.202303128053531 11.949125935258584 14.969763216680809
Pd 9.19940965348964 8.600068228071851 14.326388958632693
Pd 7.910384236430691 9.533053311918305 12.114932127082772
