38
Energy = -161.60261122 eV
Pd 10.253474272450628 12.656584482645949 13.941290621210715
Pd 12.852673902817166 11.948549952345594 14.633330646364323
Pd 10.000112501466033 13.964300892025536 11.545275597942249
Pd 10.816497112737895 10.473144282601634 15.536008376516712
Pd 12.271659212821268 13.002617741959257 12.349841014154297
Pd 7.6677966690257975 14.64134999366423 10.62933212068694
Pd 9.850474224800262 15.249180605107034 9.123586077160931
Pd 7.8270236275999 12.807858210003848 12.691856886683453
Pd 8.729478750560517 10.457147624593865 13.882571969188248
Pd 14.524276169714232 13.247139290627494 11.184206029979642
Pd 13.960328688558251 10.74775059718131 12.314086878745309
Pd 12.200614119709776 14.210655970212374 9.963698946689954
Pd 13.06575311860088 9.305268953814949 14.564885893927237
Pd 9.431296783510673 11.21235263736855 11.216022124209049
Pd 11.323860280574232 10.427114568664935 12.757948811069223
Pd 10.54236409842053 8.205858533585895 14.013365822990389
Pd 9.790573765456308 12.681414939090471 9.131756120133149
Pd 7.654200275848836 13.79600583104699 8.063391451525037
Pd 12.270989866586033 11.481100287728397 10.133250599324901
Pd 14.25806096075131 13.12718782152712 8.567562232542791
Pd 12.630128177072143 8.159844924652552 12.27656101105443
Pd 7.18774117565268 12.117781348262056 10.039608153123478
Pd 8.767135378616336 8.587999186499093 12.057633192708716
Pd 15.251530821126057 11.07816546089823 9.88841680420785
Pd 6.774970412250606 10.407858652441197 12.083114797228564
Pd 11.857309571529058 12.971178430138522 7.562242808765424
Pd 8.219019470603703 11.092123561952521 7.66324680126786
Pd 13.461217676415618 10.653417533597924 7.809651920897271
Pd 10.731724235221296 8.93484202941064 10.197701135886923
Pd 13.5992267706317 9.14003713157454 10.062187766761182
Pd 7.834480046874977 9.564966651873135 9.7681150741067
Pd 10.506467717393388 6.6441875430817 11.633699922607835
Pd 10.814078892983362 10.575412991719258 7.920054868345885
Pd 8.310427953722662 6.989025908860999 10.02237216115827
Pd 12.812754856233088 6.660349747070988 10.134468153793748
Pd 12.13134701554154 8.262337728688294 7.994364779112106
Pd 9.295320063906416 8.461094675992422 7.886135027353666
Pd 10.553214632930048 6.270709655929647 8.883761214435255
