38
Energy = -161.18255928 eV
Pd 7.455646709501241 12.934416035348207 11.801135307947872
Pd 10.51238732131829 10.994541226660827 15.66475846156823
Pd 8.885495734811407 11.93896939879834 13.847374622231744
Pd 10.016329481234514 13.543857348861527 12.161169277942873
Pd 11.977331057409067 15.163299014303252 12.886522615847873
Pd 11.8930632367625 12.610265388345903 14.059279976655278
Pd 14.267415675065482 13.800253659275365 13.339629394611187
Pd 8.845598700825246 14.265072072061669 9.88725462709693
Pd 11.378998532504188 14.873789393190753 10.198001613119974
Pd 11.019778024813673 8.386894012206344 15.731212613540652
Pd 13.899617258575182 15.216521565394718 10.949463274794535
Pd 12.538579862360638 9.945595508012236 14.225928837141225
Pd 14.124013896134564 11.215926464179288 12.599337644522699
Pd 7.639044608751741 10.246251533222674 12.07014569712609
Pd 9.147122346980433 9.247667218397352 14.092974948241773
Pd 6.378966844758497 11.374902200293477 9.921221841978198
Pd 9.179961643283677 11.507777846787933 10.323226685859114
Pd 10.70728663242324 10.649049948416199 12.397309736864344
Pd 12.51841590383202 12.873772208158984 11.491559795190884
Pd 11.749729376608892 11.057177677437634 9.9433242080324
Pd 15.298123129056483 12.95786913736961 10.926413889137342
Pd 9.338349250645905 8.302531139070513 11.634235900310744
Pd 12.882825744039375 9.172658066171286 11.546168267100798
Pd 7.969308070592438 12.493752182441677 8.130028291335634
Pd 10.710711791192715 12.956789567308075 8.426164348783411
Pd 13.365237434060342 13.258290499553638 9.00890977838856
Pd 14.348772564306687 10.740283246865006 9.845195196477846
Pd 7.860739654507386 9.228600955731654 9.466000167941807
Pd 10.467962382051995 8.954286380605021 9.351716151566988
Pd 11.365899811165011 7.727560236515498 13.20296190412672
Pd 8.986099721444653 6.674281046018935 9.578249315728527
Pd 9.699218871963039 10.650980055347521 7.5420048284045444
Pd 12.659272644497403 11.091023366002396 7.5528937826660245
Pd 13.02560528360182 8.622335921088455 8.862895013212492
Pd 11.584160763096795 6.99634691834982 10.684452046056746
Pd 11.443561760007993 8.919621112630272 6.652007623884219
Pd 8.960531839048844 8.052925118229462 7.24938507995812
Pd 11.236393124118035 6.649892973549193 8.033587175791487
