38
Energy = -161.53480308 eV
Pd 16.189586915365577 11.075670120485334 9.153499695127232
Pd 15.399624963892451 13.62169004728635 9.033779050720504
Pd 16.626886562635747 12.719209620110567 11.217916808187553
Pd 15.78805742645284 10.17977949132596 11.653228392023577
Pd 13.78605409654054 11.677173781730641 8.20992883439148
Pd 14.159571817190583 9.42848907392974 9.612132344521827
Pd 14.463238589291755 14.44554595780789 11.46022965318663
Pd 13.851750222598847 11.896334108479564 10.922014510140732
Pd 12.850299221789566 13.994704064590186 9.316470695293624
Pd 12.128792274709436 9.57851660621604 7.846871994151839
Pd 14.189673464137712 7.945140741321198 11.737914622211987
Pd 13.79303455829784 9.968443340071287 13.350453353751409
Pd 11.75066604493262 10.39057179601604 10.419161840273938
Pd 11.181772872249354 12.066150295993848 8.22684453068364
Pd 15.070524105075735 12.347143366462427 13.289242370683453
Pd 11.917820483160947 7.882211674104035 10.111530171002093
Pd 11.66806036012748 15.279842493629882 11.45044045358769
Pd 11.807567461012594 8.248576096464491 12.813205028315888
Pd 10.330859592126272 14.583288163884815 8.926270097129654
Pd 11.414222521051272 11.062872240742283 12.96205579857714
Pd 12.675296203037512 13.472854052881695 13.166144285848352
Pd 13.25307939065784 11.833372926953029 15.131975102370609
Pd 8.902225068521053 12.346223445683622 9.449534731913618
Pd 11.126186301258558 12.813017749446619 10.95556720648538
Pd 12.08154730285353 9.415115213568765 15.306921062357473
Pd 9.665282316635095 9.810426476751061 8.924559658793177
Pd 8.980375405698151 14.522071847960193 11.220130724019542
Pd 9.649409716931444 9.100584596127382 11.484958107894043
Pd 10.105402359007225 13.614508823283199 13.515128386971854
Pd 9.761988914334903 9.335215559857271 14.155466711202038
Pd 8.907988530124014 11.6776800661233 12.095078985429705
Pd 10.613470010162473 11.784655873328342 15.344930571247223
Pd 6.762461905770536 13.076571279374114 10.761652484658281
Pd 7.420607386620524 10.316754333724855 10.432752669563998
Pd 7.475681478482031 13.734047450155938 13.28351047432729
Pd 8.114575928455064 11.415667147848422 14.562236439933983
Pd 7.461301478929318 9.212224626270842 12.992376790266293
Pd 6.131385491967149 11.443430933772339 12.72106716508352
