37
Energy = -157.773185 eV
Pd 14.400049505797709 11.806118948307073 11.072819764398066
Pd 13.068074883201323 9.529071407245683 12.303395770979769
Pd 14.020371516785167 8.79405418123458 9.9944658646731
Pd 12.285778153034832 11.983641139246066 12.831275044600527
Pd 11.819861821102558 10.064063990573084 14.591930287087191
Pd 12.96984756599336 6.926849589387014 11.66557018917566
Pd 14.397086775872458 10.752488135769706 8.28430497985954
Pd 11.065367324027596 7.754664932931404 13.32605557807866
Pd 13.579005114298207 13.203726419042669 8.735752488516127
Pd 12.421771013950986 13.870625727997016 10.99824297970751
Pd 12.373898271800797 6.623391007934415 9.02847236121357
Pd 12.277628573660749 11.065566109070508 9.974042472682608
Pd 10.722064389580426 14.168704244129211 13.109908703887157
Pd 10.312071993568093 10.007124774151173 12.176415221528488
Pd 9.812413134736035 11.83864186859091 14.081384230803806
Pd 10.290912676910786 6.342311549712399 11.099845710480936
Pd 11.254598583041963 8.558427567749739 10.319476485569647
Pd 9.253961846696908 9.275507814537692 14.679782089005235
Pd 10.162409620837106 10.36167860631296 8.74447516833713
Pd 12.433435293233494 9.039289505247188 7.806332566896722
Pd 12.05670619332025 11.635203275384988 7.1368865557635095
Pd 9.842602678923912 14.920413420570899 10.673814435041075
Pd 8.551474293418961 8.045163363908008 12.363052600898238
Pd 10.218037612765404 7.59916233848556 7.774022217700438
Pd 10.889660715078564 13.36329115270025 8.74150403820882
Pd 8.23158360720884 13.310273276622713 12.380803068178235
Pd 8.238805150628888 10.53952188267226 10.373800999758862
Pd 10.19458556302085 12.291690460144881 11.10949522317311
Pd 7.653632933221089 10.618781744902083 12.948493390275372
Pd 8.5253492625213 7.973756885048104 9.730483356470339
Pd 10.488934331102508 9.747232774466239 6.067935270877082
Pd 9.195679122213647 12.027958384996914 7.072864156229142
Pd 8.290871744683697 13.143496592775058 9.439976534093807
Pd 6.381171103455233 8.98055974830008 11.131941570151431
Pd 6.272369052055052 12.043534643368137 11.063151730048974
Pd 8.194612494073242 9.316429713155213 7.453981390989602
Pd 6.75326918452357 11.312513407996246 8.389377525339656
