32
Energy = -133.30902625 eV
Pd 8.913281332431255 14.202250937994815 10.816992370354866
Pd 10.118339961467113 10.934917608528592 15.017662576978353
Pd 13.787695586453896 7.904700154871715 12.96876673146562
Pd 9.279563647582025 7.512818321263056 12.51131712569725
Pd 12.92546937360062 14.576671937408818 8.835031793916194
Pd 13.550288514505485 10.332196638537338 14.275944851177583
Pd 13.753707240810597 7.913154132513279 10.238193483701796
Pd 11.352028537911078 9.601155000768792 11.036211509692084
Pd 7.332995886546701 10.31799885522046 8.582032829052263
Pd 13.056464980944138 10.119506634597787 9.050353546205303
Pd 11.720065014183717 7.0380824650719545 11.608118211060495
Pd 9.999302901856716 10.418162823335699 8.271714107789704
Pd 9.137094754014239 12.699415399710684 13.03240677033392
Pd 11.584616663558474 11.47473143445366 12.951222772137083
Pd 10.437808203306364 12.019610187008613 10.366344876376038
Pd 11.98527571592739 12.199004272253367 8.021418109927174
Pd 8.84192524057096 9.009206142400314 10.281873478344785
Pd 7.863814274626999 11.584580950300758 10.915409120180705
Pd 13.866179410085595 12.729721818352115 12.944863772063423
Pd 13.853501916797939 10.230507504368306 11.672176113471007
Pd 11.311647192744175 13.913337943349605 12.081385187803905
Pd 11.300224126149093 8.127453578260944 8.90277938129013
Pd 13.579595854855521 14.914238288725203 11.373671497041707
Pd 9.01922231293808 8.532121715647337 14.892069749285058
Pd 11.101985411233855 15.83439755339853 10.345494351305318
Pd 9.143738608631022 10.119102826441706 12.676622045332758
Pd 10.368878283132778 14.253445870305995 8.413494695698096
Pd 9.836367866985329 12.454949965634084 6.5027458455888
Pd 9.611368166243489 6.495107716951641 10.109229088876821
Pd 13.096130061215629 12.424121772702648 10.406463260349188
Pd 11.404778397392638 8.79874894194611 13.732764835990244
Pd 8.346149350174702 12.678920214277491 8.58314716509884
