36
Energy = -151.33472129 eV
Pd 11.273750043909015 12.500039578747453 9.927751363439464
Pd 7.047928917111782 12.70706305791618 8.581584197675681
Pd 14.93254999586895 8.224828542995452 10.57956550732497
Pd 10.818459829163851 10.815338545528975 16.70515373936249
Pd 8.84364194297303 11.786559809012601 14.975049200536738
Pd 7.450062625486274 10.692355602441246 10.26344577445601
Pd 12.464176315046222 10.761226727838789 11.598168331026914
Pd 12.39336063862582 8.553655572376883 10.120483853274969
Pd 13.508676440598274 8.681094890424289 12.847261886338012
Pd 10.114398290198121 9.577844424588406 14.494134594440668
Pd 8.455449790281705 9.46531568368326 12.419190748363974
Pd 13.137661325141362 14.93421711602189 10.534066128442428
Pd 11.743685442378345 15.040453793802158 8.29675788330996
Pd 15.298208058187308 10.392014310168666 11.994647882241978
Pd 13.12066047928912 14.208952527920113 14.989620834476135
Pd 9.357177347589808 13.966736498355838 8.382581254325919
Pd 11.727526039343553 10.366288420799622 8.393259413862673
Pd 13.38599594448628 11.967217781220278 16.36304320855983
Pd 14.40659772226273 12.625410642744281 11.108078624723717
Pd 10.8926350572385 8.478380796402204 12.286240752142792
Pd 10.44922418756612 14.870588479242844 10.740594844087823
Pd 13.86691476115899 11.851099393046205 13.696173751235145
Pd 12.71423754484245 9.778609200930061 15.090139556704806
Pd 13.644120861037603 11.285357668854958 6.857352494830265
Pd 11.784935256875105 7.4649016678272275 14.47530224148647
Pd 14.244247342556854 10.566032998664054 9.429406611754446
Pd 8.67327631413818 12.914474091333721 10.699197503672298
Pd 13.508724353343366 13.112865869763453 8.650080552110696
Pd 14.463420864239694 14.570343526252557 12.784987324579825
Pd 10.11115945664189 11.569129679040527 12.459860854724491
Pd 7.450335585001577 11.869725608444266 12.745699067593074
Pd 11.302944617059053 12.62213434980645 7.085815846242017
Pd 11.960277807249833 13.538937096647768 12.487571241675726
Pd 10.031228074032292 9.856605736820748 10.254682290208342
Pd 11.35982936460979 12.284564207479098 14.648285124807876
Pd 9.223062116784769 11.260176855175452 8.195306268279314
