32
Energy = -133.25799306 eV
Pd 15.4424492975472 12.08603065019913 17.30045850946714
Pd 11.229604980152619 12.004051490151035 15.624748982715522
Pd 13.61052687695857 14.102802099233124 12.554823268046663
Pd 13.083386230551715 13.75390091794708 16.81907363497066
Pd 13.944440885911808 11.04262707898805 10.845354575795229
Pd 13.93347102580968 12.488403100511544 14.77817595479091
Pd 12.639973503391593 9.75782816150875 14.878124450544501
Pd 15.09846921606192 9.932885834429232 15.814865835953118
Pd 9.053880833409242 10.906090076633944 9.193092021423881
Pd 9.734728775771952 12.762855253270981 13.432820809453153
Pd 10.532832960234323 15.144268086699839 9.436176232099635
Pd 11.686613450815871 14.322456667947314 14.51372960394555
Pd 12.825044350431384 14.333302538022409 8.254115825959806
Pd 14.601811685333058 13.551699370778094 10.13344488947112
Pd 15.949085053660003 12.323685225334724 12.063906462524047
Pd 11.631064649213629 10.534357534170946 9.745683675025779
Pd 10.784224376972569 12.649080393728388 8.285369979262349
Pd 14.597704720645023 10.439763143715341 13.263487654361992
Pd 10.90800104627919 14.85129903072252 12.102444465223696
Pd 16.056144611610595 14.454296567634524 13.48937771145564
Pd 16.322359291855403 16.52424053943711 15.023308588072387
Pd 12.068627368957225 13.009824124363899 10.574175847047462
Pd 12.938082080338491 15.719826398964884 10.532515690356743
Pd 13.88833870115622 15.558140879829578 14.808666544499742
Pd 10.16219610138566 10.092768471116532 14.099338493878658
Pd 9.469605475219762 13.057037647404776 10.710363522422497
Pd 9.767598619748407 10.61022642998381 11.649383745479927
Pd 13.065038082171757 10.973284365832866 17.210992058401416
Pd 15.783801818116892 14.300906427932416 16.15943148162585
Pd 12.189601715366186 9.362443771142049 12.181561299410134
Pd 16.500107831222948 12.030992723539141 14.737424559920305
Pd 12.10968202096054 11.841463876639839 12.928998019280792
