39
Energy = -166.40844638 eV
Pd 9.828602586368731 13.882195200214753 13.645859680387183
Pd 8.716175926450019 11.386243626954228 14.212941301379342
Pd 8.753655640257461 14.914838753049283 11.31136643439533
Pd 7.452903138946288 12.891138435147912 12.39852867412288
Pd 11.439399521624868 14.892254753353807 11.561293528056321
Pd 11.038360442789482 11.959280912554243 15.235338095915369
Pd 6.301691389570646 10.673320971652936 13.267284791945283
Pd 10.189525658104035 14.195692155128144 9.195686258369111
Pd 8.66938471669127 10.44821689038002 11.758048067369174
Pd 12.29368382425311 12.767343169237405 13.141981965603069
Pd 8.126831620532624 12.647430698117603 9.81238254439702
Pd 7.9410713001941 8.780600595934056 13.992066355064058
Pd 10.192459412451509 12.501373202042565 11.484690640299808
Pd 6.187387789499157 11.002986772843922 10.685613960224178
Pd 12.84136826820481 14.983410150141005 9.137327540506295
Pd 13.906559242447853 13.888093330439904 11.35449643865341
Pd 13.034843691603895 10.263705333860736 14.423879891670934
Pd 11.517233418794039 10.264068816502501 12.339523200215057
Pd 10.440931151722626 9.429393291736519 14.619902252291062
Pd 12.087060720232973 7.659766068606061 13.622202619516399
Pd 10.598236438405019 10.35112976706094 9.79690531013639
Pd 7.346083542884047 8.331208690386958 11.103484945325818
Pd 8.079032178720357 10.035435636027222 9.090380557443375
Pd 9.77133825778026 8.068933185123576 12.272004263111983
Pd 12.231139394324007 12.546693136025802 9.817896623896823
Pd 14.406342785310184 11.425779410388154 12.36786990627716
Pd 12.022034885291319 7.816606508096842 10.971689295670032
Pd 11.581283482511077 13.54700249100934 7.0798917551587355
Pd 14.0282034271204 12.87554746417493 7.813673126863589
Pd 14.133422655183612 8.737732175937348 12.417524202625087
Pd 9.65319288699229 11.832829333775424 7.8133793677593735
Pd 13.239510405593006 10.205581027823001 10.30729439503624
Pd 9.697491888839822 7.895727365160013 9.59813322626445
Pd 15.229618267951215 12.136711030111806 9.944638936965594
Pd 12.157388706630778 8.485111412830058 8.428112395113486
Pd 12.164736398364946 10.971789183520325 7.593074407511332
Pd 15.972187168470938 9.767932168664704 10.808932773169674
Pd 14.446212761562993 7.8353431751778775 9.774637928964665
Pd 14.676723458184037 10.129229097916284 8.152035400825374
