30
Energy = -124.57208798 eV
Pd 8.582795428877251 7.863305250909837 6.256730509061615
Pd 11.112870285607817 8.655386868508625 5.793830367775498
Pd 9.092784916678998 10.57553099744785 6.3000687974154905
Pd 8.76537394002896 13.091662501803459 7.025202886133081
Pd 10.584053993639621 6.495224004422279 7.514684070323177
Pd 4.995107485237378 10.1491358784229 8.891688811507747
Pd 6.705326577798736 12.022663929170612 8.217122357961276
Pd 11.09199706259318 13.190999703146888 8.252774655145583
Pd 11.565301872874555 10.920219450127625 7.114213731096851
Pd 12.563372491654622 6.293067050583919 9.316912218588758
Pd 8.058443957095786 6.945050025042122 8.717595339790469
Pd 10.115522706952177 8.902414278830731 8.32427124783253
Pd 12.679727441640216 8.62714953081751 8.03535500856112
Pd 7.448005119669913 9.483637504218898 8.105629013742217
Pd 9.242637669957118 11.369357996966084 9.037434425914796
Pd 10.104185227046326 6.434685947101708 10.259574781152129
Pd 11.71034482441157 10.897317586334665 9.784624961914982
Pd 7.9966240775511555 13.289556630080641 10.261855397230562
Pd 9.073911604102792 8.920594345037594 10.600505273842508
Pd 6.292440732773519 8.329257834775978 10.292903821472413
Pd 12.085929907169998 6.2916460329735875 11.996310605173239
Pd 6.922504841302039 10.837800837289342 10.630462203180912
Pd 11.903859148713202 8.495403699688453 10.658194113490715
Pd 7.6731706971858715 6.445085929347782 11.367557396025363
Pd 9.168438308945554 11.343206088180368 11.863716582680306
Pd 10.600907977679249 13.281087492333695 10.804579278818517
Pd 11.909718470877657 11.54161518700561 12.297752089889316
Pd 9.713460525524027 7.023623441860887 12.902416963265955
Pd 10.657751487103617 9.364756738046506 12.754255310543217
Pd 7.664068082430112 9.000194102646704 12.702414643592546
