34
Energy = -143.30147054 eV
Pd 14.71607535526563 11.399850609461884 12.343027512749972
Pd 14.117025049051756 12.786438281144333 10.187856234198952
Pd 13.965227759135603 8.882955251471225 12.529784150807494
Pd 12.616056123397804 10.855654968476875 13.857234281654021
Pd 13.61052196960098 14.197679390165218 8.037397655319031
Pd 13.08545058787504 6.414273010394045 12.63981224807437
Pd 13.696246233656064 10.183630276399606 10.17434241202102
Pd 13.344093963768657 11.551622245909979 7.90786931186355
Pd 13.06277620039898 7.565353081924447 10.292834041443898
Pd 11.711965366273615 8.278723384921 13.996124622464317
Pd 12.906526341581902 8.907224854300942 8.005772579435126
Pd 12.65695906015561 13.100430022194548 12.46907885804249
Pd 12.280347262719214 14.71148757255013 10.348978081077789
Pd 10.912017547798014 13.153759239274917 14.629424314935887
Pd 11.55687589347869 9.6038541980122 11.558983598272366
Pd 11.376378746824566 12.11201622736687 10.18845139004268
Pd 10.717268465494444 6.983214480961524 11.696119672134943
Pd 11.189119328070067 13.221015034165443 7.780196102444304
Pd 10.854672654558916 10.589094423148609 8.042621837622018
Pd 10.657748876987252 8.322533072223056 9.341484809663772
Pd 10.28421082016129 11.68042506001669 12.64854093111685
Pd 8.428660028668116 7.777092251345008 10.627146747305966
Pd 9.26316127112876 8.88416492096793 12.91323237868179
Pd 10.276280473965098 10.283713971399951 14.908700433100291
Pd 11.45070427374286 15.844524134255497 8.126592686508133
Pd 10.428707691251736 14.452433622027794 12.170155185752755
Pd 8.399238935536296 13.719625197808199 13.642713271014937
Pd 8.44567843152062 9.476848037300817 8.271968532370638
Pd 9.66446201822631 14.560155903365612 9.591054870382933
Pd 8.547979031250396 12.064044393769722 15.61843933804635
Pd 8.839578108764805 12.168434128008258 8.628110102353796
Pd 8.408332396303875 12.889518630014742 11.121190359983412
Pd 9.053875146568213 10.344601040551936 10.652878319781834
Pd 7.829950295184566 11.091427517566029 13.18584451471489
