35
Energy = -147.39436326 eV
Pd 11.609610074468971 15.63380254196449 11.238121762458166
Pd 13.841948156918061 10.0976026082279 8.609258368049288
Pd 9.615973184479651 7.5485277797467045 10.465225301807257
Pd 9.767103313493049 14.382959057667454 12.795723032910793
Pd 12.206487724394814 11.41994982043279 10.148329042397203
Pd 12.052219778459568 8.303099465348218 9.491150279467305
Pd 8.486094533787334 13.846872337934478 8.322553944977452
Pd 11.77723819008188 7.323377801031151 11.985949854631317
Pd 10.018515958620391 9.854094769294743 9.450546083842607
Pd 15.255928746739583 12.29662287694501 9.083707347278553
Pd 7.7160520805020125 12.634156818847742 13.200771839261568
Pd 15.308815951500454 10.026256795853842 13.195515829916319
Pd 11.051061183003366 14.197472634942919 9.090226570892934
Pd 15.894092332834418 10.077241347146977 10.467444083332245
Pd 10.873089142184861 9.551195063414433 14.627629220480097
Pd 7.93136762905424 11.316713400097633 8.97623736469571
Pd 10.348288123072212 11.925607389543268 7.969761400182841
Pd 7.2578574150417685 15.117220435191395 12.4166866223765
Pd 10.952302684117196 9.883422893328863 11.954835019733883
Pd 7.345672397021842 13.200255670194831 10.658123845789152
Pd 9.209046508089186 8.16010454241722 12.973137162231659
Pd 8.315542962795352 10.294271847995468 14.273036344551079
Pd 12.910559899988364 12.541963579478743 7.835706722542413
Pd 9.058720770596375 15.325634418192067 10.4436038418819
Pd 14.642026577803767 7.791730763206917 9.60516714849415
Pd 14.399186329760234 12.019180443774527 11.592592642773527
Pd 13.22784493633103 8.435119423378685 14.008901913612263
Pd 10.289811237874794 11.915979997813109 13.600657353089005
Pd 8.331008417255731 10.474230189610218 11.59316173723709
Pd 13.555564628938077 9.27177744278645 11.46043931732146
Pd 9.889595917676058 12.516506684167089 10.766511575519967
Pd 12.112141348779648 13.265436037634359 12.283382755860881
Pd 11.08462150767143 6.941790149085822 14.466251927983434
Pd 13.48417312719394 14.009729611802252 10.100527540217534
Pd 12.85652274045066 11.076178872482705 13.525210713182927
