36
Energy = -151.47015628 eV
Pd 9.982061019378605 9.456112764933676 7.822918189736975
Pd 10.586754314346516 8.39010444573439 13.869582100289197
Pd 15.521901028786672 13.060566061534535 9.818026209612471
Pd 14.065500571778001 13.682281450360042 14.810658735616277
Pd 7.710788346315716 13.864049705248574 11.846877245750163
Pd 11.296434785509296 10.715308328836475 9.803394856670147
Pd 10.673464927202161 14.869649860244483 11.037259997193793
Pd 8.410133024176114 8.750161412374636 12.468399901101739
Pd 10.515445992578806 10.397844318074176 15.580386690228773
Pd 13.252520395816614 8.760025873170772 10.293391632769728
Pd 14.492730867513282 11.338203178667001 13.79186890934531
Pd 14.53719336793441 11.041755758528167 11.16651908956001
Pd 8.739206301196528 7.568543766367535 9.79715214882209
Pd 9.170601863655625 11.958239391995079 8.059996958507703
Pd 8.688441934892277 14.346707215909383 9.247015136832722
Pd 12.37352020570971 14.66703990448062 13.049280917934631
Pd 12.237997534959703 10.122576047008678 12.462679035120825
Pd 9.6034540108218 12.373869004507542 10.882809218550515
Pd 11.344156781869138 7.51107917770948 8.8768718286553
Pd 8.628369251952044 10.120795773671022 9.975611086866111
Pd 12.87708588742558 9.487285973413323 14.860014546547173
Pd 11.927560656801633 12.206575527905322 14.273435190818372
Pd 12.247909508057012 12.550494604985227 11.492537511163196
Pd 14.553237780771209 8.911817672087244 12.743084049448493
Pd 13.24262200744644 14.521150922335693 10.131401693229419
Pd 10.758183548160412 8.410300443453117 11.22207972944742
Pd 11.18242714689817 13.4054675702999 8.809589750858544
Pd 7.031246742186545 12.255032675430712 9.710550536452866
Pd 6.450069217008479 9.025487535947576 10.782100279197088
Pd 15.07211162793983 10.073281061713642 8.824488298940793
Pd 9.788232454954858 10.961811775381216 13.10846566341968
Pd 7.308880131752541 11.217277662841816 12.114927493889425
Pd 9.906439070974193 13.616156905230532 13.302595432191225
Pd 14.732617300914914 13.556283470361915 12.276548121960017
Pd 13.358429575567724 12.050950676330551 8.78956939735343
Pd 12.647740085033101 9.665445859626262 7.7813248366919
