35
Energy = -147.80651635 eV
Pd 11.2382125582253 8.297665875224252 6.42099027041268
Pd 12.543489401452947 10.576790095936962 6.312529374620855
Pd 13.3073660683455 8.77359937135785 8.185449070006866
Pd 9.87693334559838 10.527928396796131 6.240646139207469
Pd 13.569887091001064 11.637763412697137 8.45197795603587
Pd 11.16055690428155 12.455170922150362 7.663197186866847
Pd 11.168064267456241 6.943915908107675 8.594651192039986
Pd 9.029068893701751 8.570058891662548 8.063523866900592
Pd 11.121706163389451 9.938550305196317 8.89074133225369
Pd 12.844068058428432 7.5562769366261815 10.518769159910484
Pd 8.850329613325417 11.294606158030604 8.486586669515624
Pd 12.002712489988431 11.734946420320343 10.60480515885403
Pd 14.652088105117095 12.582840289393461 10.690393342768358
Pd 12.510687004327643 14.04187019520269 9.55603415557888
Pd 10.068139750596876 8.060612446560373 10.656271539171678
Pd 14.091976398842409 9.940398911031817 10.476247939742061
Pd 9.911001969544587 13.296004476002421 9.832020653178008
Pd 11.93546684207963 9.466224639227946 11.997565692419656
Pd 10.833097557208209 15.101051930304719 11.492982935813862
Pd 7.513064895342133 9.585928151468556 10.09005143406082
Pd 13.844059679176473 11.143787522311557 12.827815033403661
Pd 12.828397704230198 13.668237898915923 12.371717057899485
Pd 11.044134805132177 11.812567620410752 13.064595742302554
Pd 7.4040759655082615 12.400797605167764 10.340329287200554
Pd 9.54405302031837 10.72191310554995 11.200441005691468
Pd 8.24502551605534 8.558328489752634 12.484768386334418
Pd 10.606472137961273 7.928916224722356 13.533367280973268
Pd 8.988744248376756 13.344285988417893 12.284671767946945
Pd 12.191132679607392 9.980975923111991 14.683641676628195
Pd 10.732816305343485 14.15607673933682 14.14571261608653
Pd 7.378944827682567 11.111892213325527 12.66014889037398
Pd 13.01610591097055 12.600173674234249 14.865806826463444
Pd 8.363319685356936 12.572803475292488 14.69540055587376
Pd 9.417392142192506 10.168979316145977 14.21986175984617
Pd 10.65272355069507 11.917670861831578 15.815508686766691
