33
Energy = -137.46707832 eV
Pd 7.251002673745811 12.998343755538764 11.725435375043098
Pd 12.895835882662334 11.087481504636298 15.542014172223666
Pd 11.769115303090416 12.380216916456124 6.812645580317133
Pd 12.00344749352247 8.870153812530708 9.777739826170198
Pd 9.833695815807172 13.745103459098035 11.461599313253947
Pd 12.03778098523717 12.673878719548133 12.566036515609419
Pd 9.137632677772151 11.300175145885552 12.742500794677188
Pd 9.864840531995437 8.85001501028558 11.712446268638484
Pd 11.260452941732753 13.501418067942419 9.2260070267131
Pd 12.79611041908779 13.820844320172434 15.324284516322889
Pd 13.737173291936335 14.81767892849627 12.92834506713441
Pd 11.09818838203754 14.943160390389064 13.626467822178366
Pd 13.572293161597132 13.202048846031289 10.5216220089755
Pd 11.942082043069524 15.314888861418556 11.066378869795619
Pd 11.453589684135986 10.160460667651325 13.405116615320512
Pd 9.751318499636303 11.516350328520765 8.193173267595714
Pd 16.902270012341777 12.501592296240451 14.139460578996957
Pd 7.513305697846353 8.554110464341763 10.729624773334027
Pd 13.991166753346127 9.305228619265701 13.729485979255585
Pd 14.270915978286682 12.28857418289011 13.76405596110281
Pd 10.869666258483962 11.156752931256714 10.621550267018256
Pd 12.894074992074366 11.25138270622916 8.88182808273368
Pd 12.35088852296953 8.028617831776486 12.173731505921966
Pd 8.115108931101894 11.008569727348949 10.266320545762465
Pd 11.382400106730914 9.681104402986147 7.343126618140683
Pd 8.707341142025296 13.739672010681375 13.852775616891723
Pd 9.399123553819768 8.965434933015397 9.005611522673806
Pd 15.932977656660928 10.644541844109806 12.509454669464686
Pd 13.493388086005623 10.570836445419168 11.409611519149133
Pd 8.422021115424352 13.46857723410474 9.301489112824642
Pd 15.717935799364295 13.301174157455357 11.923068999667812
Pd 10.672014320156539 12.27924439417003 14.7881491210525
Pd 15.526297725713555 10.55156400243241 15.404782086721202
