31
Energy = -129.95095929 eV
Pd 13.513832517257553 11.5719441233609 9.338881560452267
Pd 13.592905597867622 9.173607895454646 8.006746098259603
Pd 13.563341184191621 11.253790327455873 12.06699675448771
Pd 12.324728302938198 6.7540363125408165 11.201916071608363
Pd 11.22202924029961 9.051334560101138 6.617681448659952
Pd 12.86252024418379 11.302546899270606 6.71933399435819
Pd 11.494853076278229 12.426929165892087 10.870768720057471
Pd 11.497028513488157 7.858164611501269 8.970913342933146
Pd 12.470177228579308 8.7215379101782 13.107406101643193
Pd 11.438951670609201 13.048721526210016 8.192451678112418
Pd 10.311564909686995 11.609267402318796 6.160280724161905
Pd 13.012157738452888 9.242561941134326 10.567824046732861
Pd 11.039584485207293 10.522822072089161 8.904327330039479
Pd 11.127943067344585 11.012879917726503 13.04617124634778
Pd 10.515318565534185 6.723257301219164 13.061305080571273
Pd 9.654812437387603 14.076760207543142 10.012086032107588
Pd 10.429861500611462 9.106931062135043 11.340108943787515
Pd 9.674269825998861 6.633896876327144 10.488827864791498
Pd 8.78249126622805 12.45092354954491 8.087102840567347
Pd 9.487625610830056 13.115874856241074 12.489666605997364
Pd 10.017149998803339 8.96380096354395 14.331844570791976
Pd 8.855593305305105 9.859723651538909 7.5391750831633075
Pd 8.260243503253566 8.04352942708457 12.44617339128594
Pd 8.934480209762583 11.320856432574555 10.52755275227637
Pd 9.25206514666407 7.2758076294956675 7.8572387283320015
Pd 8.152079162006332 8.729816739009014 9.789616678484743
Pd 8.506277837892956 10.672804293557153 13.107887175699911
Pd 7.078662961865439 13.407677668150802 9.794117581534142
Pd 6.54763312532447 9.944836332257992 11.44711144278645
Pd 6.768806398440678 10.871194288655117 8.959491529442102
Pd 6.893622981441223 12.48378722417576 12.188868457461783
