39
Energy = -167.35439199 eV
Pd 14.301912227769117 9.479848686485044 10.446235677911156
Pd 13.824421709687455 12.005818219191454 9.694824929676535
Pd 13.223705894804711 7.654872914907814 12.085244612869477
Pd 13.58443357080655 11.269567745557795 12.264207283805094
Pd 12.92580110607849 9.804182171716073 8.127267884640995
Pd 12.801331361444717 7.547029476738814 9.397523863462954
Pd 12.457883408393775 9.511758988791383 13.851492467066818
Pd 12.80043600837445 12.256350364384655 7.138714859967499
Pd 12.00540713186644 13.206682730864678 11.396543026872628
Pd 12.277797885973904 14.154661913011074 8.944692018366329
Pd 11.29140286911731 11.522580332451449 9.343583295477005
Pd 10.80555418435476 7.0722939967157075 11.20810542598257
Pd 11.710246430364426 9.715763714519817 11.243265943464733
Pd 11.067935635920927 7.244171277973807 13.780784291703796
Pd 11.402535647348527 7.935062205154344 6.831331356338258
Pd 9.743722912718585 11.529006311488725 11.459993967312204
Pd 10.710437637014222 10.621096592884033 6.805059900078954
Pd 10.250958103549658 13.257619888711098 7.450539102886654
Pd 10.816870383921055 5.966091913848637 8.809353668321608
Pd 11.30135334772734 11.930795505409261 13.637612780877564
Pd 8.908502033447718 9.132013970786723 11.06568780116152
Pd 9.801359900929075 13.854861335784253 9.985079580416885
Pd 10.293279182439065 8.733792076373815 8.959828073981848
Pd 8.306515119233515 11.88568634052844 6.3090007410943745
Pd 8.513404969354093 9.284763568066742 6.611357769712559
Pd 9.850375324610525 9.590092895497058 13.540417379556366
Pd 8.465562331235827 6.494358747244226 10.107932838565835
Pd 8.796422349116632 11.025337081323906 8.910595242879108
Pd 8.799109356137775 6.858964097254467 7.4438700531909126
Pd 8.543438156739933 7.183389218005435 12.79019394324029
Pd 9.764812680507708 14.010755897643595 12.66152360285561
Pd 8.446546497132298 11.91096033227344 13.691465516512173
Pd 7.568388435189181 12.980839910351168 11.262907642638757
Pd 7.354066838192382 8.59653280696783 8.866878175996538
Pd 7.624773726622282 13.267220733757828 8.571680836137217
Pd 7.226095964485115 9.708205630933778 13.038091587489351
Pd 6.356201796281923 10.88189336694403 7.949393685519108
Pd 6.415468696326766 7.9079797596421875 11.245067883036947
Pd 6.669081688273228 10.614467151165034 10.600571186958314
