31
Energy = -127.68018108 eV
Pd 14.98027922860964 10.841532481869054 15.496753112820645
Pd 15.42170979291415 13.39725142309097 15.226622506898043
Pd 13.92039499873894 14.271105918983372 13.286113683201977
Pd 14.978470615499972 11.901364242338227 13.008321203279928
Pd 14.703678052751076 15.269116324789273 11.046227262683505
Pd 15.273758415016953 9.27567937491005 13.333168208547406
Pd 14.24265426396495 12.78128187217841 10.547083210106514
Pd 13.90578697284379 10.258604873080767 11.216686301983126
Pd 12.917037842445872 12.574095188245956 15.11630888458472
Pd 12.151010827230849 14.944646680974067 11.407970266540092
Pd 13.139425496312246 7.990774320423028 12.370646990529423
Pd 13.076426750929391 11.023906924988244 8.810115827776743
Pd 12.889097960179992 10.13788319086899 14.029302594225694
Pd 12.294259312977566 12.23750118031235 12.263661297698208
Pd 11.41211649162304 9.439103519017978 7.490854099578192
Pd 10.573524288082838 11.62207536621115 14.10595384230225
Pd 12.140018736481805 8.696371234743662 9.899680976711132
Pd 11.23683849858572 14.255483643530367 13.943833810510627
Pd 11.100587321079793 9.6963761987033 12.236737127316532
Pd 10.276057971728356 10.506947192685638 9.589459372855124
Pd 11.637151601129924 12.963141622385546 9.799897632162132
Pd 9.862403283036612 13.652684312807567 11.818697253446537
Pd 9.034399401163913 11.22130935247076 11.932392856423919
Pd 10.857858439727625 12.062774841822812 7.477178125994657
Pd 10.852354263882468 7.043160082337757 11.494295449106486
Pd 8.941091868026403 8.736448038182798 10.990090264340084
Pd 9.076393534932016 12.900369148250457 9.306731612514405
Pd 7.613172505081185 10.603655545836189 9.719480985988532
Pd 7.314630307672274 13.080531104428253 11.326673721372503
Pd 6.511281013690144 12.850027488681404 8.76906066350167
Pd 5.37883981752051 11.477507184712966 10.652710728860335
