30
Energy = -124.58872756 eV
Pd 13.716922387304878 10.267062854432154 11.422279103954748
Pd 15.24327664417571 11.562984549966949 13.143093296551376
Pd 12.55326941696201 10.401596687317769 8.832715948869968
Pd 14.638206268152349 12.646110211476842 10.790478848455122
Pd 13.811132380126931 12.632937923282526 8.327911401752512
Pd 12.777847777669763 8.102057384420526 10.207492741846504
Pd 13.162651184773683 10.315232021730152 14.107745541019876
Pd 12.2314109195687 8.17767902395675 12.822496263914188
Pd 10.696934688759834 11.372779478448727 13.718506292575965
Pd 11.126987267525259 10.101014076678096 11.390214356351859
Pd 12.887455097440082 12.700149087586942 12.839097057967514
Pd 11.212065399179602 12.881245458739556 7.8116987004403144
Pd 11.994600914530222 12.674872956203723 10.36970218097553
Pd 12.806420677540306 11.340516220048078 6.297134948135317
Pd 10.4497571710895 7.147198834644802 11.053689960289825
Pd 11.044383305379272 9.137317438088443 15.049011424797614
Pd 10.527305381251532 8.58888261986817 8.822384633011428
Pd 10.512114146297238 13.68940726332664 12.298779814036774
Pd 9.929133835897959 11.11309675529764 9.37611758423895
Pd 10.443892679646959 10.394617284033455 6.8151755785511
Pd 9.369890367352868 13.58393263999307 9.818693212146794
Pd 8.589338141471057 12.39212165226708 7.413163767058529
Pd 8.678794706520303 13.055446123720225 14.105085665581742
Pd 9.530052420865214 8.6860013937515 12.968505578985033
Pd 8.546869695330656 9.089319771516422 10.60558981301748
Pd 8.743218853512092 11.767382786557425 11.78137595578884
Pd 8.136538806983747 9.612839107730286 7.9679682928258595
Pd 7.246508901700551 11.557814109888065 9.570450392988384
Pd 8.054507459994264 10.451615139746302 13.991885101762948
Pd 6.589974070892776 10.267805389149283 11.788165279112524
