31
Energy = -128.97288818 eV
Pd 9.123221793446 13.633414387334678 11.316594080004995
Pd 8.910533857141994 9.359520378166728 9.67804048130115
Pd 11.638713696210063 14.152918580200955 10.921424713705333
Pd 10.765555946180918 8.835315044759275 7.8409124561388746
Pd 14.242908213557365 13.809389031207902 11.196890255029535
Pd 8.69646434547853 12.715643788275154 13.86805203307085
Pd 12.969671920969896 12.866497697517065 9.047310017476397
Pd 12.467316252860938 10.514087693558801 14.104926240217955
Pd 6.8155480991699005 12.592643807582965 11.98438069006993
Pd 11.029436186089704 12.492932584927491 15.183091391005
Pd 10.928787809584257 11.970562208412213 12.373106574488812
Pd 13.616085358423621 8.88566967062618 12.260393857181462
Pd 13.385564582519214 11.323014315747923 11.353889215956498
Pd 10.076485900065643 7.004524028173113 9.659467533795272
Pd 11.708007192904251 11.295439073165545 7.319136961118466
Pd 10.982856174368127 9.314649445745806 12.178470319148804
Pd 7.921854665855442 11.86562855406807 9.706237382727702
Pd 13.127891137615773 9.11127300582844 6.867084885907325
Pd 9.058504260638667 10.959778215993648 7.566181340770419
Pd 11.091224814029223 10.869925875310344 9.907297456588575
Pd 13.816505895236196 10.359468592821038 8.991772442496325
Pd 10.252567432511821 13.05397528446656 8.887510242060065
Pd 14.918782869450032 11.066056773163849 13.410592837908977
Pd 11.549374687300517 6.819438203505352 11.88386875699096
Pd 8.576346592920363 10.653035850085283 11.991171614668348
Pd 9.793958254772418 10.255430029218525 14.329735239498762
Pd 10.666340068853792 14.480449560399952 13.41551143364742
Pd 13.107104302005839 13.08993871738327 13.5199704821221
Pd 8.876047462679756 7.86784835711112 11.875449237168217
Pd 12.313352323667871 8.497644622672318 9.93820844598904
Pd 12.92607572662251 15.59265605959635 12.757388018493845
