30
Energy = -125.14564063 eV
Pd 10.294798782036352 8.802966301400609 6.729080252145205
Pd 11.118104902840612 11.323331074744644 6.476325743869483
Pd 6.638253207711562 10.62843648788675 9.414980852988862
Pd 12.176542140837425 7.007167927724037 7.937974065586489
Pd 9.522927478789248 6.333148893637816 7.818260014023108
Pd 10.066086182222632 13.564401569497804 7.628728484289442
Pd 6.898499830927203 6.181198969918057 8.346764421986347
Pd 12.372085692604532 9.732287626843199 8.267664542705557
Pd 7.906398512260944 8.585302906653279 8.083474560283106
Pd 9.261301547410202 10.918672682803752 8.33112391052278
Pd 7.745451985265726 13.00716484030876 8.953024836185843
Pd 10.37122964537107 8.368885025235446 9.307798985844768
Pd 12.145019467896754 12.28068660121824 8.70990268914589
Pd 11.150713824432348 5.8899613972740745 10.173447019860337
Pd 11.870076094874834 14.838258053084461 9.218537133211234
Pd 10.809524542485269 10.737122016663331 10.55690359345107
Pd 12.662233404282608 8.197919218526623 10.5563262161354
Pd 8.508743310463922 9.303034478651742 10.680381472919498
Pd 9.993560438818127 13.350096488407303 10.287250056285849
Pd 6.2467154909747125 7.971213418706591 10.235441012339306
Pd 8.557197109659553 6.551059857346072 10.346205682468575
Pd 8.17528910210278 11.826795088686463 11.346914448922576
Pd 13.466582726959555 10.751721425459413 10.567694259208352
Pd 12.496035978599135 13.16098242507701 11.213131092808199
Pd 10.361995138336 7.764704284578161 11.977036474050598
Pd 6.413837721258872 9.889854321220806 12.18471168305089
Pd 10.509772837442652 12.224690035656499 12.736978370817283
Pd 7.744097480934533 7.593813583022524 12.681274060747967
Pd 9.168564192429969 9.943332724892468 13.127827090815419
Pd 11.927741007087695 9.851170052191046 12.684216750648893
