37
Energy = -157.40038782 eV
Pd 10.195817983673948 8.762551763520834 14.87747945421241
Pd 10.071052671685463 6.897218418584277 12.951678806741272
Pd 11.815164846275916 8.97797775704423 12.804195742718173
Pd 7.885415642873697 7.857928836987905 13.990791493807633
Pd 12.514785370101967 6.476469599608133 12.098832766476422
Pd 10.959978846217032 11.185337948634864 14.196958758216828
Pd 10.581206071179965 7.1506772456127 10.373412202094219
Pd 8.323243102168963 10.622979615214339 14.024006740109005
Pd 7.96330208028348 7.385079762972286 11.192999257644177
Pd 9.343962333344287 9.446712675701447 11.935697661485543
Pd 12.993266292431985 6.549744561603752 9.44742333938803
Pd 13.534365578868798 10.919655518800385 12.336489998837576
Pd 11.484601405846668 9.57792692859343 9.930834362476721
Pd 13.694677913522222 8.617216887540645 10.942721748847662
Pd 11.054504893480686 11.593892154678114 11.667770483391939
Pd 6.377123268349286 9.291306095322826 12.491600290940953
Pd 9.257084673628865 12.99962152501111 12.920457018016966
Pd 11.454910353450533 8.074083774761153 7.823183471260012
Pd 13.767476917411662 10.925329366638042 9.620849299277157
Pd 14.064084999706777 8.644549113649706 8.246302327519844
Pd 6.736515085547089 9.425955739511426 9.912116631613744
Pd 8.907015362106085 8.327857281674808 8.752673602678456
Pd 13.274796881054732 13.149395618005096 10.878564259907945
Pd 9.083307144006517 10.808683610589163 9.647065559933942
Pd 7.4594035740616915 11.492180115254579 11.661652212814076
Pd 8.66209812057288 13.34975242139563 10.23482192189271
Pd 12.607901278275477 10.551479194732446 7.216430173569646
Pd 11.249890864431642 12.288117213217575 9.142164097680187
Pd 13.48325006507378 13.007832277038963 7.9408412591285815
Pd 7.354257166796698 10.171851519416194 7.441165317735621
Pd 10.889107742471799 14.295714957776287 11.186502554321118
Pd 6.558418099687003 12.026171939820896 9.206652718869401
Pd 10.023913312494997 10.273734187080827 7.231538311456058
Pd 12.530370424026428 15.09253256276972 9.241803858814071
Pd 8.611182743922257 12.550486264051354 7.546808068553324
Pd 10.13147564440244 14.548898888593893 8.36528566192535
Pd 11.11276363509061 12.712432665056474 6.5577985229905424
