37
Energy = -158.25552549 eV
Pd 11.453040766280035 6.677011931354161 9.908085833592471
Pd 9.966146756037402 10.080011655108233 8.755751998844271
Pd 11.447331596141819 14.277197733731187 9.114337700443784
Pd 6.992355540015015 7.758924232912731 11.026666063940226
Pd 10.145730071108261 10.166306870332143 5.966202896828212
Pd 12.37186606566352 10.267371604130988 7.458379899438268
Pd 13.29968040803871 8.257554077900245 8.892989771424135
Pd 7.256091933478705 9.717473620212917 9.254891340125392
Pd 14.011880224448017 13.471595828258472 9.990209083377477
Pd 8.273588960347503 8.682954235292708 7.019526851087244
Pd 8.084342348503336 11.453999828073243 7.393791434940544
Pd 10.360244395639361 8.911877166348043 13.467719060614415
Pd 10.989306609233811 7.938179825566735 7.5051890211215735
Pd 6.691039730186254 12.216842719040017 9.744713057084901
Pd 11.611313301476534 9.201782536914429 10.72162890364305
Pd 10.027607894343499 13.32809166940196 13.664483880712305
Pd 10.864515561696859 11.021180785461011 15.042574447282508
Pd 12.710326301639574 12.504243674110796 13.961229315426609
Pd 6.571015919656979 10.428614337324019 11.88209847040101
Pd 9.605123932943476 14.693980237296747 11.230518181774064
Pd 13.671514447516728 11.496140712911206 11.707935928043836
Pd 14.179266031216002 8.890070657401525 11.303812429593684
Pd 11.891725750742348 11.684257100975628 9.730697903340364
Pd 12.255116960292867 7.301614838268595 12.419489254129031
Pd 8.530817285515344 10.885188904778026 13.832953552786622
Pd 11.958390115784118 13.660818734925112 11.678991460265195
Pd 8.122241133756571 12.624250493873761 11.913381648258571
Pd 9.005030793673376 9.693761896536483 11.251049789864581
Pd 12.85620390878707 9.761842617508732 13.511786942332739
Pd 10.8536656159529 11.3085332811596 12.214366339608706
Pd 13.259752361855366 12.782043377325877 7.568913627680475
Pd 10.632194425991775 12.402503883739566 7.3274067574869335
Pd 9.037574979071245 7.624080776445718 9.32388190622217
Pd 9.564494286091715 7.001329044354629 11.845088213896007
Pd 9.325853102242101 12.57533982632357 9.640272405375034
Pd 7.742385494292606 8.39286761343938 13.438178203080017
Pd 14.361816318615434 10.736697119932728 9.245900380747013
