39
Energy = -166.63231639 eV
Pd 11.544829771626793 7.791735579521013 13.96721858980396
Pd 10.627460360829893 7.632115420865797 11.267270132638519
Pd 13.261329609734831 7.359424399272678 12.044073554264678
Pd 8.22474397517149 8.991045226332979 10.801147920977332
Pd 10.421865893631098 9.54069673928063 9.35267588710042
Pd 12.876355604638237 8.722290718685535 9.768434877351543
Pd 14.876651963847774 9.332957717526964 11.458781592844732
Pd 13.57836812968346 9.546455402080383 13.783748222828645
Pd 8.355741575087858 11.204485808449036 9.227525702209984
Pd 13.482673584179315 11.578656860102146 10.746065098252648
Pd 9.315676529718349 8.901948323464897 13.282601874520347
Pd 6.355281706566808 11.045707574832313 10.871919919191726
Pd 9.082080686230343 11.229681603622588 11.948374913507141
Pd 12.540017216669641 10.920489518614016 8.290400168997573
Pd 11.736271927809408 9.90447194063447 11.876451127923454
Pd 15.003189236099033 10.320299265332697 8.950072753518803
Pd 6.87968064059775 9.793863251435473 13.141835791815643
Pd 16.717251046413534 11.10777703575936 10.961724982124267
Pd 10.176524432805724 11.536157446242575 7.39329574837651
Pd 6.787636580123062 12.513652378649537 13.097643522365612
Pd 10.80469287088675 12.100376230438004 10.156830476598143
Pd 11.148726348617505 10.398048644578848 14.50779944112073
Pd 16.61731407989924 12.415216054188598 8.686323870028785
Pd 8.655903622044951 11.288087006945739 14.57616391292534
Pd 15.013996056110757 11.643784801338196 12.898356810340974
Pd 14.106714642455689 13.098412881851827 8.541730937284346
Pd 11.758948728291331 12.45540985273342 12.66784699280946
Pd 8.91416565681596 13.683781281017534 8.405605009018814
Pd 11.594812165484361 13.723727242561854 8.280286665583269
Pd 7.770890261429698 13.356206007886557 10.773012571484681
Pd 10.660731830224906 12.947993464281524 15.076635446234537
Pd 15.45698807449273 13.496777376235588 10.882741300195098
Pd 10.162252257609856 14.585643400158062 10.63103006609671
Pd 9.20474174728918 13.682107537598243 12.997976646713996
Pd 13.273230122718239 12.04412717125968 14.810234785353222
Pd 12.81567019204093 14.246479018227856 10.622407083131048
Pd 11.468401216265871 15.062840250702267 12.906029146269093
Pd 13.986662862624673 14.085686040701352 13.012409138530927
Pd 12.666443757985144 14.613584855723577 15.246136421212153
