35
Energy = -147.68241727 eV
Pd 14.905345812931062 11.716314663452666 11.424142398935736
Pd 15.518557346816227 9.215547911017424 10.837692417258603
Pd 13.70370289970127 9.742236500670781 12.9296835728837
Pd 14.778606311805754 10.876576296796452 8.847093237964103
Pd 13.073171479891714 12.763097353335143 9.808876102301662
Pd 12.439481451017038 12.058533193749845 12.278444769326061
Pd 11.20555745695846 10.442429683551877 13.850325152533136
Pd 13.624287983408413 7.399293506792784 11.272078339059297
Pd 12.775499560397973 9.99724341190422 10.503278705241586
Pd 14.056742819659728 8.21106944935115 8.785232365551096
Pd 10.419861018940509 13.055242204715462 13.745646805199783
Pd 8.76514336903765 14.631562876048028 12.170995560965784
Pd 13.217801900954791 12.417244693429424 7.209773363718981
Pd 11.468724998507517 8.39614559145354 12.265547081405055
Pd 11.026556688428606 13.73220495905463 8.302868012145291
Pd 10.737827141161972 11.47959710380339 9.509462616904193
Pd 8.839752152181815 10.886887194066928 14.778084824748353
Pd 12.38433062867293 9.991962590449674 7.874511894626075
Pd 11.028035434868224 13.889992368591525 11.086339994569672
Pd 9.297271824006154 11.66860003848417 11.894110279343856
Pd 10.73082523797859 11.57898259977433 6.629411177040839
Pd 7.656279466900392 13.044182609314804 13.960494031118209
Pd 11.508811412367224 7.661265555134727 9.566755114689624
Pd 8.740007085024923 13.42410459007085 9.77112949944562
Pd 9.586407463846191 9.356660839844036 10.392764180836288
Pd 9.53818248002764 6.805776913306814 11.531225504296138
Pd 9.009719995080417 8.981188739643073 12.977374679669115
Pd 6.736209024416417 13.04741394647538 11.489672426133533
Pd 6.930009870001105 10.644843528491041 12.836754109864312
Pd 8.53159733811709 11.474483867784919 8.028168255381722
Pd 9.92888823893785 9.152867395827675 7.766451184156889
Pd 7.3116717613721285 10.873366576515691 10.23784910547589
Pd 8.903042838755638 7.009091498334076 8.999567577085474
Pd 7.234605975806808 8.246743004755086 11.02918938034924
Pd 7.336837961379973 9.05714764491477 8.414100073449124
