37
Energy = -157.15617193 eV
Pd 7.447443108461631 13.198037652426638 13.854681207066097
Pd 6.708048555355557 10.852722777509063 12.73194234613583
Pd 7.661256533022305 12.86548207898943 11.150972615473664
Pd 9.625801427055354 14.240269167767476 12.690745334521532
Pd 9.438009570032314 14.490998515750865 10.079991147451027
Pd 8.020237321220147 10.837316794736001 15.033394310074062
Pd 8.091186912813248 10.155845822012083 10.674559321782656
Pd 9.817684854302811 12.851832505881156 14.991989984384846
Pd 11.820794811451021 15.02034343065012 11.51228101952811
Pd 9.177869613864562 12.000062301677445 9.108467863236909
Pd 9.447101531912592 11.615727184035809 12.629588175238727
Pd 11.347897055811988 16.046605641330657 9.123748378981643
Pd 8.980978843357729 9.100666177564797 13.104898746569852
Pd 11.038942888104824 13.68390457719824 8.063978464510877
Pd 9.43676629819294 9.395714734834977 8.593436223606531
Pd 12.071091196391729 13.68487206149299 13.762935283851753
Pd 11.248184997788083 12.509933951745726 10.641557765708319
Pd 10.526140892709854 10.168047293719928 15.058563236518154
Pd 11.968205484232465 11.148054221700884 13.085426334826273
Pd 13.380071423795737 14.406176539921962 9.415693154687546
Pd 10.824970660368013 11.203334658628687 7.198448942721957
Pd 10.664353804112187 9.607387520714278 10.990083790564974
Pd 11.67700900351557 8.533022290887343 13.215144728936766
Pd 13.014459736581314 11.952003495159845 8.442972351056401
Pd 13.894943482775165 13.35741161476718 11.865557914364611
Pd 13.058823424067382 9.641236338722019 15.411254863768178
Pd 13.391449402372059 10.890108136663256 10.963197944161049
Pd 12.169905297914728 12.111133602083292 15.926197153726509
Pd 12.083426640438493 9.468306107615943 8.750979068011166
Pd 14.204708822474608 11.929849773923292 14.175740063414326
Pd 14.251242252096594 9.37926444921787 13.132749214654517
Pd 13.05947160316908 8.31022204920361 10.913777932285935
Pd 15.248507429848111 12.615304713728008 9.67211353532379
Pd 14.662437673521788 9.882202910834959 8.93292223599508
Pd 15.765065598474779 11.378174769305005 12.100557352448948
Pd 15.724228798082276 8.750423539594438 11.104587143952205
Pd 17.009273571998335 10.675991119691282 9.852855372145706
