30
Energy = -124.70932602 eV
Pd 13.686759530356095 7.734443117743041 8.77368120770907
Pd 10.733780596396656 11.078061896962245 9.765511883051122
Pd 9.967468524792887 11.059943281957372 6.972079636677912
Pd 10.019323626239878 8.571377152968251 6.093908706376311
Pd 11.007335554972975 13.82644027773324 10.47574628174185
Pd 11.605033131359118 9.704622866835948 12.109096214735706
Pd 10.508678237884395 12.041756944786277 12.496541800650222
Pd 9.962510424268498 5.67003230629134 9.045872897781889
Pd 9.484360806911553 5.990654001010561 6.3969846815430715
Pd 9.60320593410551 8.731268757748774 8.731306801443589
Pd 9.31452990813534 14.351325292451103 12.579552539823043
Pd 7.665071113379338 9.384414197088454 6.950124793411289
Pd 11.60896307492793 6.9538481963627286 7.533057564580795
Pd 8.037667996744496 11.12223401917373 8.84929330831675
Pd 12.023687364061875 9.61320278194242 7.737428911821322
Pd 9.523112472754303 13.295922639055181 8.296228361702534
Pd 7.733477358202325 6.950486376388734 8.050467298795825
Pd 8.981540956543629 9.962561393543709 11.225443234289475
Pd 12.115154319503091 12.501473631361439 8.195910225601953
Pd 13.223822273798982 9.91699841395576 10.023429620325759
Pd 8.534341375190573 7.110349607348907 10.6202721616493
Pd 11.445377470759919 7.6691567223626205 10.286361764841937
Pd 6.824350514062713 8.89078539880041 9.66115972238213
Pd 6.503105297137552 11.005168505979514 11.164619372208561
Pd 12.854251113976456 12.105195672081052 11.277398552739701
Pd 8.502814645169257 12.795000458252662 10.690871235919253
Pd 9.501137677241871 9.970254793518244 13.88149459661568
Pd 9.99436831546229 7.685555232767903 12.65286419126324
Pd 7.337337297449656 8.528919632855857 12.550766416800432
Pd 7.946387234568594 12.02750057703107 13.161480161557678
