33
Energy = -138.60289798 eV
Pd 13.070321519912778 9.189519633171743 7.150857582427458
Pd 11.579205818053426 8.423728337984198 9.24406706985969
Pd 10.519904740848386 10.001350764986118 7.243004761353488
Pd 13.725248775511565 10.165316797041175 9.554952404846203
Pd 9.993385515758773 7.799645860561777 11.239309463480511
Pd 11.815679949852285 6.896980547387386 12.80478655323678
Pd 9.014029175460644 9.330312562851983 9.33189863954273
Pd 12.077044079353199 10.781748654051906 5.2572337706278525
Pd 12.762628788136297 11.815315810180001 7.571980599897669
Pd 12.353759212401227 9.28593102111013 11.729014531709261
Pd 10.760854050253753 8.95616333898764 13.94496973706624
Pd 11.171055317053074 11.039667912525736 9.683886413737802
Pd 8.824941896022185 7.217054541964281 13.506287983353742
Pd 7.548298615679083 8.712980426814227 11.64231876816167
Pd 10.437313357653933 12.540447984392689 6.397025300192344
Pd 14.310788628807813 11.194877208018514 11.906651245053338
Pd 8.87823712976062 11.878602750764424 8.444158344534527
Pd 9.69330464230949 10.371221695871515 11.91676740616684
Pd 8.194584983155679 9.775268080312193 14.050515794668236
Pd 7.477604309620435 11.173824982535413 10.5895407571693
Pd 12.817014281840102 10.543883046955862 14.160413565395379
Pd 11.051411948307813 13.618862996627769 8.73007596912271
Pd 13.297604757318098 12.80137674788348 9.965243977619656
Pd 11.7884240805854 12.096352696473499 12.204634933401785
Pd 14.822135946330022 12.283101409527127 14.292652969248161
Pd 10.247542142032824 11.50855735287816 14.496490673029248
Pd 9.465839447326744 12.983246721057142 10.83842555149785
Pd 8.077476737506036 12.24847531373282 13.045495585647382
Pd 12.34645113739727 13.176505085403287 14.604265716970144
Pd 11.609687321566648 14.623011817985784 11.081706865703367
Pd 13.841784186322268 13.836980214374435 12.405575891182632
Pd 10.080046388690036 13.965436058505215 13.284674183418666
Pd 12.155127828939579 15.5689512167032 13.504112970554544
