30
Energy = -124.05501132 eV
Pd 12.331858400610566 11.516331681411204 9.764962154336802
Pd 8.500703069685413 8.613123235390129 12.357690728495157
Pd 6.99089856469651 7.99017655632982 7.806956619925498
Pd 6.611781314669648 5.21338371653082 10.727956005088123
Pd 12.214394275817288 7.948729723273905 6.755637288658049
Pd 6.349182398402989 7.076873347350777 12.788535614303214
Pd 8.66814560599919 6.3394284156179115 9.392190679403816
Pd 8.81302363542982 8.877354784742693 9.779199410843356
Pd 6.105890441709421 9.739451875283 12.03387381952227
Pd 6.406482062538768 7.766542096349531 10.31969332894113
Pd 6.692152029359831 10.314234232513456 9.436141795700907
Pd 8.686475392135593 5.987681922477578 12.051427816565372
Pd 10.696441774718124 9.940556491115004 11.559820606547524
Pd 8.273899474465457 11.182411050830815 11.52474703545171
Pd 10.676465727147214 12.586825665744538 11.581864592663544
Pd 7.524697778090973 12.53763145192085 8.235174123483997
Pd 8.523689142528333 13.563071694895463 10.37950035904161
Pd 11.349219665477015 8.768848263438127 9.067129009847763
Pd 9.591953851755031 7.863443708648939 7.289864471309867
Pd 8.285702266721739 10.226692072661086 7.165472129805928
Pd 13.082886660105912 8.844645644861389 10.982899658115613
Pd 13.574422926916718 9.870165270475942 8.14368903034931
Pd 12.450040769185586 12.373111571303928 7.316182254713685
Pd 10.759953798206997 7.326107550520321 11.182988364035705
Pd 9.766371633914465 12.582485706381995 6.81307305633104
Pd 10.995642535667526 10.246389030989356 6.888792930929959
Pd 14.780642219787344 10.765530014242218 10.347579552010245
Pd 9.7426477409853 11.245879398944627 9.209475026799499
Pd 10.791165349132239 13.662130538098614 9.013089182103458
Pd 12.956728417478265 11.224322210995851 12.277952278015137
