34
Energy = -141.55381029 eV
Pd 14.567462664825655 13.254882610283616 9.739614209001806
Pd 8.315284285685635 11.08635007904338 13.59692920056186
Pd 11.140028685366323 10.780815356004718 8.096622088570227
Pd 12.27089603639317 15.84964312670305 12.556387004066615
Pd 15.004791816007685 10.902528286051197 12.184226812908767
Pd 11.4047916266457 13.225138097104002 12.300464963842126
Pd 14.137266558227616 13.373219725568259 12.32205089177786
Pd 14.657380506614192 15.452583079247235 13.829019134087257
Pd 13.131228190712092 6.933158006522958 10.903203690011004
Pd 13.83255415185269 10.81769801177556 8.475697295470873
Pd 12.382063101441757 13.063848467846682 8.14453185510977
Pd 8.840330703678346 13.403546327431023 12.285804157168693
Pd 10.549953407946987 12.113887241784768 14.483077684308448
Pd 8.404174615410831 13.431870860145889 15.005786467458549
Pd 10.746693169259311 7.835848690097421 11.631654295691224
Pd 14.496765296607576 15.659692004566827 11.086782009474955
Pd 10.631715915361255 10.58249630056637 12.127580844078828
Pd 8.12130357219602 11.302025496546488 10.961839727560626
Pd 8.41891291197846 8.882781984490311 12.182223521069382
Pd 16.138124384842357 11.18082173722334 9.81818591682077
Pd 12.879807840293394 11.232615635511564 13.707181177925271
Pd 14.749894564621629 8.986533571071826 10.272942162138891
Pd 12.487328472632656 14.112154810371157 14.596307100377327
Pd 12.16719988076531 9.044388680227954 9.70615014009297
Pd 10.141726562509929 15.070604978386095 13.906614692095033
Pd 9.568247331400096 9.37686672606271 9.804285687395453
Pd 8.588253146585174 11.381278289461923 8.364603964409696
Pd 12.798016724217213 11.504050013898802 10.765982847211033
Pd 12.239866302966504 14.566071862094443 10.233573748478248
Pd 12.993187759674313 9.056544033439074 12.397265819707634
Pd 12.580427077305732 12.165941170587566 16.253513939572997
Pd 10.048233690810479 12.4958801219122 16.941266930821453
Pd 14.775998211984737 12.74813606638447 14.804161265995072
Pd 10.344191542317933 12.560030925414088 9.975841048675317
