37
Energy = -156.99860605 eV
Pd 9.144719594418648 9.439267791828465 4.858431929102344
Pd 8.853792918011505 6.76682808298092 4.992424687799204
Pd 6.67371534207974 8.478086378127767 5.36375002917834
Pd 11.050754569663825 7.974129820897068 6.20106044341048
Pd 7.557796138703906 10.701781940165233 6.659080452985736
Pd 10.203972888504977 10.324599993105567 7.1893803038575665
Pd 8.576655960111946 8.255646937025736 7.285347006662706
Pd 4.949801645508784 10.137770546332545 6.857393691514188
Pd 6.992846669499219 6.130828121022822 6.821006709295751
Pd 4.567444453981893 7.381451858443911 6.550285038239406
Pd 9.750436131523973 5.889798053705267 7.443227931414327
Pd 11.871978059264698 12.134688010800929 8.1566906526144
Pd 12.554761023966854 9.447259944287204 7.988545310352439
Pd 6.145921559895418 8.389034274453756 8.334518943908389
Pd 8.965959189004105 12.432315551096437 8.146318955732712
Pd 12.253406401551395 6.7084703550545655 8.191837317904918
Pd 10.346617178850801 8.28915077849637 9.311080681580048
Pd 8.043105056413626 9.98780390989143 9.334224162941027
Pd 10.443140664646757 5.695350129192709 10.042170811255483
Pd 10.46678214858086 10.874783851471667 9.962980843506013
Pd 12.830960841873216 8.2550157818451 10.356145085106261
Pd 6.284252476869807 11.817421606787262 8.736912420534473
Pd 5.406246806268647 5.99065418370175 8.93963575148407
Pd 13.012980389043667 5.658830850201705 10.548521728676063
Pd 13.041510346096999 10.860701307922291 10.284764880204094
Pd 9.072347156630508 7.517182172357963 11.534133630449265
Pd 4.578381590767176 9.983120331524109 9.616872745609914
Pd 10.53301064718045 13.563714337402784 10.062315545939839
Pd 6.151885368123937 11.029256103382112 11.424903636960913
Pd 6.642813128689647 8.413473975068555 10.948640916304837
Pd 7.970400379094592 6.570897892669121 9.378591524863904
Pd 8.198693818666738 12.450438196775382 10.697039290616862
Pd 8.610029052191063 10.065023892983216 12.013563350514712
Pd 11.375237487614749 9.666922033291158 12.113446508611291
Pd 11.527819651619291 6.9695739152130685 12.304192721388471
Pd 10.335249521223647 12.0943707647386 12.345625315230674
Pd 9.847444788457695 8.487227370350896 13.83781008884531
