34
Energy = -141.64004352 eV
Pd 14.621161709384472 9.38127659379292 14.457118525169719
Pd 10.875361315179633 13.718068672686599 8.201579030145835
Pd 8.980009792093604 8.196375824263967 12.89194804561103
Pd 15.53368997711572 10.816991036821008 9.60056110442098
Pd 10.40087666510669 11.216424442507545 11.68501361736955
Pd 12.895379317612536 10.751886497678404 13.087317242310776
Pd 8.714902845536152 9.565420958528252 8.273308966581872
Pd 14.328724809091153 12.446196732529033 11.496376696409026
Pd 12.122637731128453 12.10565951870696 9.847940098106001
Pd 10.75900211056695 11.152332886741002 7.327115465880687
Pd 6.803680519112647 8.201845524599026 9.713241215916675
Pd 9.884394157194155 8.112484508355136 15.326055306216196
Pd 10.201450357257752 13.990543350690526 10.959239495152513
Pd 9.598453022265412 13.017832710241715 13.5767892143676
Pd 9.254428609736378 12.005145559006062 9.305680086848527
Pd 7.93761904229022 12.722089915294944 11.504574029627376
Pd 14.387787703319606 12.992004200112307 8.798804745553303
Pd 11.058085710473994 16.007740171971797 9.461083762771523
Pd 7.9395961988357096 10.880128269551838 13.38521098038786
Pd 15.478445765850632 10.187642086693248 12.179004266507496
Pd 11.34386881380111 8.627118639915205 11.915837874227268
Pd 13.324049807081463 10.472302450784404 8.050078833885701
Pd 12.945837480666286 14.536373365864938 10.55945117288396
Pd 13.390640415382839 9.73109794525044 10.659652788042049
Pd 10.420809984008999 10.398300354564066 14.145841750813078
Pd 11.083204169554639 9.619676675071705 9.48723932084146
Pd 7.3619212396302975 8.850826890375062 14.84892818251187
Pd 12.07174206217924 13.195920445962875 12.667788426960723
Pd 8.147171796205056 10.158826611465033 10.81424837432967
Pd 13.10525111135323 15.115218790017233 7.959559167065328
Pd 12.237355723203528 8.47777669043164 14.370644393582731
Pd 6.526215260860109 8.688435470782165 12.31321940477626
Pd 9.312330535566755 7.818813628025292 10.345280817366774
Pd 12.830247644005846 12.696091822030192 6.663440513474269
