35
Energy = -148.18936224 eV
Pd 13.342951615817888 12.905369560149357 11.309431795515676
Pd 12.770489986721719 10.467855590999317 12.36352131885803
Pd 14.008479193328764 10.65806966874869 10.031421520017563
Pd 11.136842220260567 12.596556684692123 12.677777516987463
Pd 13.090507233807216 12.868624188079925 8.69197880217671
Pd 10.90097512767345 13.697958767090725 10.18376340865314
Pd 10.909531723617805 10.342818197587082 14.211415773403793
Pd 13.12060184712383 8.196443843408767 11.002471233968643
Pd 9.162474079543744 12.310020975997142 14.392250289120444
Pd 11.289751769393837 11.085230551827355 10.174990523880329
Pd 10.671523920914145 8.878027272635853 12.035327915515445
Pd 12.578595153875604 10.406946872135626 7.799654832572913
Pd 14.247976576445772 8.491900199710702 8.548380386345045
Pd 8.696631068452925 13.649840883039378 11.884948012115851
Pd 10.684819775987725 12.288364449331269 7.79874332444195
Pd 9.167362099278732 11.087682488436577 11.814968348509105
Pd 6.842830872461436 12.087808335772944 13.245584363699226
Pd 12.839532625619825 6.3294661607106395 9.13975977081902
Pd 8.295011243348691 9.6837522279636 13.781671842710429
Pd 11.243713320038843 8.59685992675827 9.246087141453945
Pd 12.19947103867046 7.980829193009423 6.790765479775383
Pd 10.542032118778652 6.540746783313734 10.674448238664116
Pd 8.642552142860609 12.376133575052329 9.478429651714334
Pd 10.816691877938338 10.382259933470952 5.876245840176609
Pd 6.368428303881475 12.72985043478136 10.725654686840228
Pd 8.795520170249137 9.56419530533703 9.5821200744317
Pd 8.293578101534306 7.947371038680233 11.652853669098421
Pd 6.727839523682479 10.166622186071544 11.520913400804577
Pd 10.534556859129367 6.034751900445852 7.931575747571068
Pd 8.57715977539274 10.839630515515552 7.233884571150201
Pd 9.647200399174643 8.388788489844362 7.139292701244693
Pd 6.45977707188168 10.795126142154464 8.880717703212845
Pd 8.393608729439135 6.9581100571155705 9.111165721097533
Pd 6.1939852527629595 8.218687163318975 9.889471393018523
Pd 7.052045671800373 8.607987400146232 7.410670053586454
