38
Energy = -160.48235583 eV
Pd 9.293419293914024 8.529812027590024 4.2442297625420355
Pd 10.37369436553223 6.592218599499965 5.789148755928375
Pd 11.509070293757873 9.188348883253406 5.881747597530031
Pd 7.643807499347469 6.696775804481349 5.711438685806914
Pd 9.402586299603076 10.990082229734519 5.571474002593896
Pd 6.961960012638909 9.3728365843174 5.368491038215882
Pd 9.045832385754121 8.654694796246218 6.883808291241986
Pd 11.998964077931346 11.761104846129951 6.6919969135588655
Pd 6.918960676346091 11.98407023094238 5.657328051948278
Pd 5.102209035752218 7.431497622452489 6.2444682274267995
Pd 11.229179273028377 7.652902671451911 8.139579728362262
Pd 8.91019258481304 6.396095134411049 8.19017192848034
Pd 12.971945831572365 9.745033144469083 8.303206437737106
Pd 10.337530024122094 10.389387734390453 8.13419234732257
Pd 6.753139806595027 8.327087147480805 7.9406626613092
Pd 7.664009173136956 10.941021722284553 7.889837932143129
Pd 6.3801750436531055 5.58274467968344 8.014087587859333
Pd 9.644997210072775 12.856183364625755 7.641359893596746
Pd 5.174756480204236 10.2868082600863 7.196769599999952
Pd 8.549584587250681 9.050975853425024 9.825866390529987
Pd 4.6039266414628965 8.6497971849869 9.301056853348163
Pd 11.724750217345427 12.066818560081703 9.539410927520436
Pd 6.351632034350058 10.414389805473437 10.211494012780388
Pd 8.97630861362599 11.783275585453339 10.055536003690168
Pd 6.915199456512764 7.044028105861813 10.127544210541062
Pd 13.106266163706833 7.605190860081011 10.041419051965363
Pd 11.058728608203628 9.262829087511372 10.310938079924547
Pd 8.392256513859513 4.631759541896991 10.008705572518059
Pd 10.310855202793197 6.6749802720117515 10.531134064142602
Pd 13.2832971092365 10.329539746942755 11.007559019658435
Pd 4.67025998674312 7.1957992875650625 11.499120839391676
Pd 9.406304341855758 8.535759689107216 12.37327760971287
Pd 8.104384548727399 10.858543209073597 12.308845651788863
Pd 6.737945586749663 8.624581460182227 12.198418447475378
Pd 10.763971319018848 11.13912563111169 12.007564151403574
Pd 12.044476002425698 8.194136098206863 12.442676336368585
Pd 8.182297063105942 6.159306919139902 12.191204207768795
Pd 5.934450869515819 4.833781852621061 10.957553360131907
