38
Energy = -161.44455971 eV
Pd 11.69361732123181 14.884327444739418 10.89633355551745
Pd 9.225960193260812 15.901940685959405 11.239501008046831
Pd 10.16745003158052 14.348014488681308 13.312712561251304
Pd 12.792449422207657 13.738612300063512 13.007200009879273
Pd 10.091883879184897 15.220967607260443 8.794008666798964
Pd 7.45591328426264 14.11946714737483 12.200598990529684
Pd 13.475036477601208 11.526373589510156 14.464867367294085
Pd 12.00763612783102 13.429523209108337 8.57164965346526
Pd 9.760773588170549 13.161210077419558 11.01905111643454
Pd 7.671815394146305 14.377330878406527 9.563375446716947
Pd 11.053492047437521 11.787262972166099 13.39358792633515
Pd 15.234785926696055 12.659949781509873 12.846630750572668
Pd 13.943394200755748 13.512566036547549 10.499024764317092
Pd 13.147750427970898 11.315272734056055 11.715146931409631
Pd 11.260188997185313 11.38846925118282 10.027208059432807
Pd 13.697266701692671 11.419744855622545 8.851500709053566
Pd 14.853457381607145 9.647338618468526 12.86138619698589
Pd 8.53838824743762 12.174340900229668 13.4725787053084
Pd 15.699252710316589 11.358093988138053 10.609137771734765
Pd 6.872339331034587 10.381299299118572 12.804809654101588
Pd 9.391567800044868 12.66298248779891 8.389755156180572
Pd 7.506338225971628 11.874746002288566 10.591590711243612
Pd 12.221548754111186 9.414805579989599 13.513010553964607
Pd 9.535752876359737 9.68526001464289 14.150484647158702
Pd 9.439310034183125 10.198459773127272 11.617090612054017
Pd 14.311637084280868 9.17073016901985 10.285752499128987
Pd 11.364704742025681 10.866249153621908 7.471246351970996
Pd 11.729961764567097 8.995006518484843 10.831418403938065
Pd 7.038152592434323 9.227715850985982 10.383170428645082
Pd 9.103478251657004 10.116002919363526 8.904385536903277
Pd 13.260109335238077 7.313063524622038 12.12262436828929
Pd 13.472504275942924 9.126206963851706 7.676182932488436
Pd 7.9738553822050475 7.9777425820234775 12.620731536712132
Pd 10.56215336958221 7.534711543903138 12.826204819513842
Pd 9.216182210772487 7.781329865906021 10.286705477493308
Pd 13.303132501409744 7.006380383957428 9.297285650328822
Pd 11.076297873338616 8.300685761963575 8.454064523505506
Pd 11.225072044399923 6.175331267437914 10.65831493754359
