32
Energy = -134.26155429 eV
Pd 9.793746639561816 8.841171991108629 12.793652835627235
Pd 11.163892550192335 11.12426802292332 8.093322636180202
Pd 11.164160672875393 9.818648885044864 10.494840345365258
Pd 9.805139186519387 7.577342637574795 10.441234775301515
Pd 6.802708950410167 11.174020248352676 9.773123185214649
Pd 8.95069991423933 12.540431283505452 8.916827816165961
Pd 6.717164737300902 11.163647358492453 12.563003986005343
Pd 9.002798052582655 11.168330441595593 11.310191138874664
Pd 11.163941736438375 13.854115679470723 8.156233555920636
Pd 7.626604851249068 13.404499252580207 11.217841929506362
Pd 7.625975846541349 8.934759086425313 11.21417787485606
Pd 9.806916657994094 14.761492674747457 10.4628359688329
Pd 9.78680916496222 13.502928756047503 12.815274241026847
Pd 8.874310305252132 11.16177621283701 14.106144060507907
Pd 8.933742472504704 9.763922214616645 8.913940922597334
Pd 13.325907390251361 11.16835384521962 11.310256055826196
Pd 14.702219478982157 8.934685217607782 11.214214938464057
Pd 15.525418067309978 11.17390787671958 9.773064009379125
Pd 12.522649259845746 7.577090286987174 10.441122314595674
Pd 14.701689126080554 13.404493197730332 11.217757218908961
Pd 13.377616848411904 12.540446543910477 8.916475391720581
Pd 11.163850790406437 8.424005392721273 8.15136211582822
Pd 13.394409391282318 9.763758539506986 8.913799538278028
Pd 11.164255556112629 12.54535838639087 10.504311409965178
Pd 12.520957528707216 14.761618928680795 10.462741906752939
Pd 11.164228478181531 11.17629482721473 12.78370979948375
Pd 11.163938058637994 12.547543847072074 15.007392955377632
Pd 12.541107507264176 13.503430152354088 12.8156242181125
Pd 15.610984386600078 11.163545510986332 12.563330143527494
Pd 12.534192234791345 8.840773554827125 12.794021756429432
Pd 11.163924286165141 9.771309655862753 15.00117058452183
Pd 13.453623969988696 11.16161344206383 14.106584322024286
