32
Energy = -134.18758767 eV
Pd 14.01984063500263 12.423954064131479 9.671252061100393
Pd 12.0236659236905 13.210819475989323 8.023240308632898
Pd 15.698149620762482 11.576682005899167 11.518007260828847
Pd 14.662374106546629 9.791811120637021 9.900733514232307
Pd 13.611013719335581 13.000293883302842 12.363698598284264
Pd 11.646517165839132 13.354637786886643 10.617100758007687
Pd 12.704889429800607 10.59320470868194 8.194906722733931
Pd 10.705205223489148 11.41161453601286 6.667485594969599
Pd 14.027560082024754 10.439823856074284 13.154705464517278
Pd 13.788822815197944 8.175327944738788 11.852685894517299
Pd 12.352020158900624 8.427569084290727 9.68901509706305
Pd 12.381371055202806 10.740642365651686 11.098885969580383
Pd 9.553221735431942 13.722325275972738 9.050450929967278
Pd 11.676162753521643 11.66539017221259 13.679501511271678
Pd 10.616405327910718 8.863728724589715 7.761184246419373
Pd 8.753835316942368 9.785205032262969 6.088994137028303
Pd 10.322919614123164 11.148455336192223 9.320669376929285
Pd 11.704640916846833 9.057959048989938 13.167355879046625
Pd 11.362231461102024 14.251580791374352 13.111178613132273
Pd 11.364584702469882 6.889956765434659 11.678670046825305
Pd 8.257542527082995 12.02836140756465 7.463443309859114
Pd 9.808001133689006 8.50436483963552 10.272808784595659
Pd 9.741382288794771 10.707267277020463 11.946464885008664
Pd 7.805461995297294 11.882828496366752 10.05524325222395
Pd 8.067039426043596 9.60612154771701 8.649588431998241
Pd 9.279777481787118 13.3440576142383 11.712898517661495
Pd 7.454679726242219 9.458398884285584 11.237653187642485
Pd 9.63611892635367 10.130656007453686 14.550662153662271
Pd 9.228568734112539 8.062488641805748 12.822557804339016
Pd 7.348131839416058 11.754221229909268 12.7288312647067
Pd 9.33725344741936 12.723340054882371 14.226654359145307
Pd 7.205930024188166 9.414343920076897 13.900007546860778
