32
Energy = -133.58966283 eV
Pd 7.67687536156345 9.375969869071353 13.431685911848788
Pd 10.598062869529196 7.045499958561395 11.632121828479468
Pd 7.156519487131027 11.928457123297598 13.623055953308373
Pd 7.543127382860121 10.860699324578269 11.19681423839974
Pd 9.578001993170389 11.127597209048506 14.42780928036862
Pd 8.216779448539372 8.268963006538561 11.126885920401492
Pd 6.83365561179986 13.400563489464261 11.365950625641538
Pd 10.044493492731736 8.28569333932897 13.915454584483449
Pd 10.068720829222258 10.069980680045123 12.058688499097427
Pd 7.258000935880143 12.293170780833414 8.936626638189452
Pd 10.4001599316691 8.932709653957867 9.703795578110222
Pd 7.998784903680593 9.707353822808809 8.759224855295605
Pd 9.318045024109058 12.784115310210565 12.303132923650388
Pd 8.928968625251734 14.17554926395593 10.023717949865677
Pd 12.11406936695493 9.91490832176014 14.541985127061695
Pd 9.71873170221733 11.6345205589979 9.740736399571999
Pd 12.472237868399581 8.744223662058562 12.235118828226605
Pd 11.747633325684989 12.027204677616549 12.96682882302985
Pd 12.498478063408621 7.507667794504615 9.874586175386597
Pd 10.268058138122955 10.315694852791236 7.449727200468589
Pd 11.404355190207118 13.582044546866177 10.8338944054864
Pd 11.074695183726181 7.801173588700827 7.456067639071479
Pd 12.256198917322997 10.916949736027247 10.581872140768683
Pd 10.956600492771482 14.740748969717599 8.48841990302404
Pd 11.869141202110836 12.275836471857318 8.259747022669016
Pd 14.153827840672836 10.61205975501168 12.899560514991895
Pd 12.806179196742818 9.675680502973966 8.203795108491377
Pd 14.420462062642894 9.31179929100761 10.38580079377106
Pd 13.88619668247359 12.808652130776538 11.419794696005331
Pd 13.46447472301026 14.151512421374784 9.185621320087527
Pd 14.432575988737314 11.648268531576567 9.051148737721237
Pd 16.029126319563296 11.265039360066256 11.120227495999238
