32
Energy = -134.17668271 eV
Pd 7.74053210841646 7.381250038287748 14.513023107112115
Pd 11.088677629188092 8.400765602411187 8.610393468583355
Pd 11.787467407194374 10.562027835066674 7.223717809482245
Pd 10.410971528482117 7.040944145380484 10.799483531856705
Pd 9.227929468825847 9.783035627757647 7.190268113363881
Pd 10.306941267236619 14.786668410881989 8.03318621520774
Pd 7.990310427123764 7.752962849208897 11.900722845986792
Pd 9.541252158463324 11.400544090579404 9.793314657187569
Pd 10.179486239574858 9.58308118485691 11.644934537144609
Pd 12.84625044553762 8.116321524025624 10.66158684594323
Pd 12.291702807910747 13.153950998624 6.732755942157157
Pd 13.099512453485055 10.384572971837551 12.339227888796463
Pd 8.96488036752918 12.056657597303616 12.454665812803915
Pd 7.296481552509731 10.246036400045313 11.294652175200994
Pd 12.052959627024798 10.568351548062655 9.884146192563913
Pd 13.972548494028205 11.650704848916455 8.287952820687938
Pd 13.66369131740689 8.914253571037696 8.187773275012855
Pd 7.862944284759426 13.670578430454565 8.330208570995007
Pd 10.926054840594723 10.765999972321017 13.865284285637337
Pd 7.085913954415139 12.797025441274101 10.674639825999737
Pd 11.853462616723604 8.204025906042352 13.110771231120722
Pd 9.828448004102299 12.300933892694633 7.374718725829177
Pd 7.269215403292644 11.018594414163285 8.639834929924238
Pd 11.471521615572899 12.47839296177518 11.85273754790774
Pd 13.959388855178098 12.4778907553873 10.876876620145731
Pd 9.56780432451627 13.89586579861289 10.49052932776364
Pd 10.144910672563954 8.496161262694008 15.126348962866361
Pd 9.90620639658273 6.502464799911873 13.344752705459346
Pd 11.912414833554038 13.179551909719745 9.315839785843082
Pd 8.668643651552397 8.756293017240484 9.54392265182324
Pd 14.816783886143908 10.001474363703302 10.337602416091546
Pd 8.366372441806883 9.774298911016698 13.665808254796667
