35
Energy = -147.0559793 eV
Pd 10.677614583055323 10.757893124249675 8.908788428807489
Pd 7.934025256785646 10.179431963099466 12.39993241603165
Pd 10.67554695290164 10.700570051345666 12.954194957182079
Pd 12.635574301608612 8.611031930248982 12.399991570502653
Pd 10.744224564914708 6.844189078967375 11.441752836040587
Pd 7.389794784132334 8.592502091191477 10.051970940392764
Pd 10.177487835127753 8.206193166763589 13.633981993323241
Pd 11.560896553657146 12.112104369331924 6.826049732054823
Pd 9.375088137304305 13.062039601307294 8.270661871278678
Pd 12.2883525995775 12.97475636685895 9.530863464813525
Pd 13.378519587603956 10.883448562852246 8.379333460756387
Pd 11.510099200720706 9.370265532317024 6.8268508483320245
Pd 9.11899149753134 10.805708946025652 6.780802261089957
Pd 7.970596019342819 11.090705070234828 9.427512024321647
Pd 9.795557239901031 12.23166513855292 10.91613936354788
Pd 12.282867972498074 10.74445701118796 10.938522774038027
Pd 11.822692868520937 8.250520544750936 9.412207302990746
Pd 9.385585156687261 8.455936161240633 8.270646796082387
Pd 9.870741365504623 9.239291099023648 10.896039264552602
Pd 13.232253734468724 11.406059415669448 13.525477359080833
Pd 11.677552054140637 13.327965695376223 12.375089296736977
Pd 14.273367759951965 9.113676105593491 10.132523169711051
Pd 14.322234478498938 12.245902411306254 11.217535046609447
Pd 7.310825011732412 12.709935426849222 11.516665190673018
Pd 10.43489214587169 14.744096719148567 10.04922575434695
Pd 8.871798482792418 12.480492725993722 13.665023806691426
Pd 9.198577810392331 10.230605202832988 15.055536723220493
Pd 11.181494750535595 12.297607387952619 14.982374671466273
Pd 11.97715063387062 9.588722827625853 15.007590157319552
Pd 9.182150479935123 14.636130549294508 12.29020650762196
Pd 8.137095977085703 7.442323609600013 12.249002792579223
Pd 15.031157223165893 9.920333521952305 12.453353260576655
Pd 11.447869153588103 14.619070497310185 7.637732643717486
Pd 7.001909327668901 9.439445521117554 7.597535668650009
Pd 13.804698373925753 8.36420644782738 7.658169519859763
