39
Energy = -166.46255607 eV
Pd 15.439728918134984 11.942094085328652 12.632569831449974
Pd 15.853363169900824 10.358898776577972 10.461252767647588
Pd 14.052235567124976 9.738805801335925 12.32915168534393
Pd 15.314381743584445 13.01122376128358 10.082233872653061
Pd 12.760212153380161 7.479805416168836 11.962229058381267
Pd 13.096581919199991 12.56378782403924 13.7943372941596
Pd 13.931866132337525 8.630342550436701 9.804905544328484
Pd 14.359954892363982 14.393763844518732 12.22850289559354
Pd 10.946287035933436 8.034006633275464 13.790376762233178
Pd 13.076730607680568 11.94818336588672 11.209206332173343
Pd 13.896958469473523 11.120038188072446 8.84143205578404
Pd 11.886233524496646 7.018738889280689 9.468449545005903
Pd 10.110799768863632 6.880937765562529 11.558525148773027
Pd 8.392632781870285 7.469475681437969 13.58985849441963
Pd 11.657269480269461 9.6206469793917 10.737982318225678
Pd 10.401756649260602 12.597292415284178 14.002823491064238
Pd 11.724234353935085 10.404564320707747 13.354879811204015
Pd 9.253441246275965 10.090104675232645 14.516994938772037
Pd 11.700282018534054 14.26787436160372 12.291900265210339
Pd 9.36629369360653 9.556438115875343 11.921014816589478
Pd 11.874305442698795 9.464682053013666 8.111569188226534
Pd 10.403894019351094 12.039416209113124 11.336701259599321
Pd 9.552282815320623 8.12204460212199 9.366758995126814
Pd 6.881306994344461 9.573226639966254 13.176332932491787
Pd 11.598957177409083 12.289651249222823 8.822216923097827
Pd 7.4685792413679675 7.874662860380826 11.042854053285764
Pd 8.07914354553787 11.941382272859872 12.874475311317475
Pd 12.951750533219812 14.262727079489235 9.917850757655971
Pd 9.072393425160882 14.413431709622834 12.45905032033839
Pd 10.280664211243622 14.374985787279035 9.969248897064274
Pd 9.388828089094988 10.748107375246004 9.143592126354752
Pd 10.637417041818493 11.294115770333395 6.611306255658058
Pd 9.564637105622907 8.869523392246201 6.895800783666375
Pd 7.130320749352095 10.55851691564578 10.759056399992113
Pd 7.975011004995206 13.096816664536018 10.443876815982678
Pd 7.289176015238371 9.166865017108261 8.473392876467196
Pd 9.038965154454226 13.059624143847415 7.982152057597904
Pd 7.999684336394115 10.979339513714203 6.53444888260645
Pd 6.628320996846994 11.855765595313663 8.559898429859789
