34
Energy = -142.73145729 eV
Pd 14.043987723106232 9.452800988032873 10.633301352613415
Pd 9.359247335919894 13.210638542202474 10.91640650131979
Pd 12.316396240344535 11.947103367381718 17.085029377849104
Pd 10.281604627743981 15.58801895118541 11.556781484783924
Pd 10.233894978652355 11.897716482792157 8.723824206233532
Pd 11.87254902751434 11.735867191679986 10.745688588752188
Pd 10.354288014945748 11.807126833520497 12.929948631474122
Pd 11.289914774826508 9.087626613851478 10.714473946993726
Pd 9.972735661229464 9.239085199460673 13.078818473054678
Pd 13.37814906236629 11.20928498234139 8.713134152352646
Pd 13.277537744148082 13.916704219328722 15.56909899209698
Pd 8.857154267393842 11.042363008036412 14.957992070640763
Pd 9.068513335988467 10.541225420155778 10.794939185819688
Pd 13.888068439292203 13.801507751685184 9.202923676970752
Pd 11.446599005758726 10.360622515481282 15.116526138745202
Pd 15.146876990391318 10.322997892516774 13.046962682816119
Pd 12.721092291207894 14.362134152755049 11.517569766009087
Pd 11.205080495700734 14.320158266671566 9.389653877412675
Pd 9.875463114826218 9.289471844952727 8.534303899501097
Pd 11.555978711799526 15.004192415835972 13.782337055187952
Pd 14.543676957993512 12.031978570573884 11.101892795853171
Pd 14.170148430398076 15.339027144908407 13.5279692857346
Pd 14.18479247031249 11.377796452353286 15.335053904427738
Pd 12.850549356161402 12.495162859733048 13.381723165015808
Pd 12.54870711782627 8.713564615069602 8.471858483017888
Pd 7.7070378383438864 11.900667415576498 12.605007509504043
Pd 13.660770660550398 8.875664965985687 14.972382499138382
Pd 12.595674327853873 9.873847509297219 12.797841958047776
Pd 15.418010869752644 12.994382960539758 13.53645725541208
Pd 10.685173689704355 12.979185148378718 15.334301208823542
Pd 15.41271206236788 14.521302835045157 11.291913763683914
Pd 12.202710577165716 13.099133036988869 7.286576796217627
Pd 9.086269098040418 14.086131308927149 13.510990346215584
Pd 11.540914156385357 10.555737772958464 6.83271687130214
