38
Energy = -161.89778025 eV
Pd 11.850773387858448 7.034059643139641 12.580157878304973
Pd 11.908168057750812 9.76290302366478 6.616704253523501
Pd 7.647150633104017 11.648790085607253 5.936718290978744
Pd 10.622735169243855 13.018144750806346 9.553417892480317
Pd 9.252991420481097 6.343018375574902 7.541406751568533
Pd 14.2604473682027 8.000397540242236 12.341672884086321
Pd 13.89176806843056 8.985622148062376 8.186174434931596
Pd 6.756032002998671 7.507026707985107 8.046307885630792
Pd 5.5530914612855105 11.879990846709871 7.738409077668048
Pd 9.819724349973766 8.770984689362791 8.116308389313145
Pd 9.37712475412496 10.780141040239783 9.98470848960151
Pd 7.649978647771456 8.85910899639115 10.282543921092769
Pd 9.363266634483578 6.252072348913489 12.327826121714667
Pd 7.63035429796825 10.169492932374508 8.032841719797764
Pd 6.553008922444733 11.47039965270746 10.21824826467901
Pd 12.780097757200162 12.031645334639316 10.808550321250138
Pd 12.334358932755247 9.693709761593638 12.080839381360425
Pd 7.959602293126735 10.669527683440931 12.378196552804498
Pd 10.1963119510567 8.233588984346776 10.724069364005006
Pd 11.889552686063562 7.196346694294522 7.7837819553653596
Pd 12.889550398652394 7.5412514737729515 10.192005156377608
Pd 9.793268704793451 10.29855685051869 5.074130963491041
Pd 8.455688577209708 13.101604449560833 11.151121280990255
Pd 5.47363816884454 9.60454816632994 11.817409872881095
Pd 10.488826888248354 11.560550210984106 12.17995394135986
Pd 8.14077950818862 6.278883105002434 9.986577774414467
Pd 5.670711983592618 7.17623466370361 10.57711368650002
Pd 7.434482446737159 7.984195745370305 12.693895189615592
Pd 9.924638885942443 8.997144997179454 13.159505757614756
Pd 10.040050600874169 11.50971884695622 7.397246474431201
Pd 8.02611182679128 12.898253954815612 8.475449998424338
Pd 5.667367588497802 9.517867030772484 6.412165210159151
Pd 5.14022578666493 9.464677271925327 9.102640057426456
Pd 10.544995994971607 7.7312559884844 5.522857654000609
Pd 11.883681072190043 9.990252594398726 9.465519657283854
Pd 10.750052827513974 5.863726632850098 9.844431212935344
Pd 12.614893310088963 11.998626547073046 8.01455067906507
Pd 8.093348519404374 8.504532115735735 5.983393488404163
