30
Energy = -124.75805549 eV
Pd 9.611408469829517 7.1201027890156405 7.739111102553357
Pd 11.873673240371131 8.394129171343394 7.462352147691359
Pd 8.023154147578516 9.457014782180725 7.658047905476676
Pd 10.773204685952754 10.78585710602648 7.214154186530972
Pd 10.270214197740426 6.721792597170555 10.23003370495726
Pd 12.665979405345345 7.738799306995719 9.841978827390022
Pd 7.748795480922437 7.53309837788719 9.585113756460565
Pd 11.673692630338913 12.86744846770653 8.732257917811502
Pd 7.729249932153413 10.134926979522847 10.303852127400832
Pd 10.050202266781938 9.259229055111339 9.30739364004999
Pd 8.729716243371486 11.841821444071588 8.567571342329092
Pd 10.69522603076464 6.630305928315341 12.806878909656662
Pd 9.969137407275516 13.326160524623758 6.766592748198239
Pd 8.756477198654292 8.263389493605434 11.972917036655536
Pd 11.253125969724271 9.099583558155633 11.649688479198769
Pd 9.30703729297369 14.340054648416741 9.11824328467953
Pd 7.9661788065557095 12.736931915619978 11.031915020518742
Pd 13.175656006057629 7.261428357893119 12.323926036335218
Pd 10.228423975948157 9.023159466681332 14.084027106570895
Pd 8.831056092842207 10.817159964621471 12.686328407653765
Pd 12.547111993606867 10.386781324907863 9.199793434400767
Pd 10.391692667337065 11.623110863490798 10.686740635429258
Pd 9.73121225808608 13.294687349820906 13.043512830900736
Pd 11.498603085072848 11.261400732519323 13.190418954533861
Pd 13.747790297965736 9.729690726272464 11.505354207411177
Pd 13.053699452565938 12.326009288654332 10.987075341504312
Pd 11.136192757911447 14.2391923363 10.984831708978957
Pd 8.737729837875346 15.229709725602625 11.524832391206141
Pd 12.431707163356164 13.710378417295136 13.199622260532761
Pd 14.106800420172735 11.597059502624694 13.325955684330095
