33
Energy = -135.33242228 eV
Pd 11.529979207773229 10.971990812980373 8.114812322159498
Pd 12.203486663582916 11.279723455672869 14.817699721142617
Pd 8.313680685714292 13.166764086334513 12.286035135338556
Pd 11.005559926986022 9.3183202930903 13.266313256309328
Pd 15.295513794528226 11.681590622619265 12.038820543789654
Pd 15.690678901805104 11.941139423381289 9.503583625132602
Pd 9.060065564698123 10.724976236066183 11.97659163332586
Pd 11.201301864113852 9.408236681664498 10.297516538277776
Pd 14.749709596338873 14.065385500475472 10.98592199639542
Pd 14.934041735923461 9.147753510088757 11.538385620987109
Pd 13.06197524056919 12.844573449739983 9.25974693831945
Pd 10.784257444141822 12.567585407191546 12.95706517717883
Pd 9.01197910129329 13.670733176659738 14.869483341995789
Pd 13.564583648630725 10.237055576539102 9.539761133274714
Pd 8.497483651157419 15.414238090346519 10.983769292815396
Pd 15.195399668196975 14.220887149715164 8.372856245595008
Pd 13.669016467618246 9.257993700110841 13.809411144288513
Pd 10.699026999774336 12.092262824758093 10.339546918410962
Pd 7.6986018305277755 15.467257952416906 13.489599264262766
Pd 10.873976581611826 16.29809081512933 10.528714539245874
Pd 10.291130775738115 15.267450338147368 12.990512557324427
Pd 10.721710687201083 6.719679067150214 12.907527079497903
Pd 13.582130594503749 13.310073635604882 13.304621983976995
Pd 9.451671245028942 10.997121606853224 14.603298932419142
Pd 13.121483938231261 15.528745611185252 9.35658229659187
Pd 16.127108708188928 9.428858415512773 9.326066605863954
Pd 11.717448205899101 14.061459657383189 14.940433689977827
Pd 12.70726541908422 11.036377024048907 11.944363890518506
Pd 14.877650233495173 11.416128573277382 14.585157623258867
Pd 12.097528448630777 14.226683852345133 11.414983200334733
Pd 10.502648145921563 12.33553310157686 16.6020932273349
Pd 9.224055065681629 8.22094861583426 11.443084130768323
Pd 12.704957899051655 7.84148967774217 11.772748335528114
