34
Energy = -143.10636461 eV
Pd 13.457042560622616 14.441706342054026 13.497586787013908
Pd 12.8531701488678 10.949319007387095 8.239291157783658
Pd 9.566779642608518 11.11774981738419 12.597801996855058
Pd 13.665809505902292 11.955441309883726 11.357525633693527
Pd 10.118848280483824 13.6944915978535 10.172006464937741
Pd 12.364938399573555 8.901883579577946 9.930771212081998
Pd 9.626809732941135 15.976714567900856 11.453499821053411
Pd 12.139066167176548 15.142332806449513 11.333914731492767
Pd 16.42599045097696 11.960920991626539 10.911814537558332
Pd 15.007219217811969 12.484166798813513 8.760757191963826
Pd 10.613980409713696 12.399133828665319 7.906040555116148
Pd 13.446173071518693 11.802570974379469 14.210806063602472
Pd 10.407626738168132 9.72141871001296 8.316433611284664
Pd 15.5979857709046 12.942765887469324 13.218774028626456
Pd 7.191220799800668 11.699521313548535 11.604440522983024
Pd 14.182156838955484 8.164510099390348 11.66107828608834
Pd 11.638913464042135 7.326802248946541 11.931184417935361
Pd 8.780663969219512 11.437905167461548 9.595556385237847
Pd 9.777659072053323 9.011328276981496 10.890462787265022
Pd 11.527722416811992 12.844286962118801 12.661987644614719
Pd 12.315221038842996 9.873889998151759 12.610263038567084
Pd 9.688091012574686 12.868641704396458 14.764970864420217
Pd 14.807631922258025 10.079641540848273 9.903327929381444
Pd 15.16078982732256 10.320179765819088 12.774263886191665
Pd 7.247906763010442 9.393506023259173 10.115860142936386
Pd 12.663487034253436 13.476839954341134 9.34407454097944
Pd 8.567405904067689 10.361447365421132 14.958971250701833
Pd 11.190881073056143 10.708849787373667 14.869634686867979
Pd 11.288306528412335 11.32071177302391 10.444206450253422
Pd 14.704061439373906 14.296424885554984 10.917663848474167
Pd 10.79226184253944 15.142115007748929 13.728500346664017
Pd 8.773338404166893 13.674527855585568 12.414399932880896
Pd 7.656196020625452 9.268046085763775 12.693662758917657
Pd 10.076139385729164 8.574148801067892 13.611679501897315
