39
Energy = -166.14515461 eV
Pd 13.000373241591443 10.234069448198946 13.001204420925134
Pd 14.499235760894328 11.944543487061521 11.721923539504202
Pd 10.921375702408175 10.781625598754689 14.57881010176204
Pd 11.86658522001028 12.670459714886782 12.87265214289825
Pd 15.100615652885764 9.370747155002721 11.38288195784558
Pd 10.114597964654637 13.320989835465893 14.932095368368836
Pd 11.202414512568282 8.24618933936618 13.873160026178759
Pd 8.326981545236237 11.340665871852124 15.192629650426188
Pd 13.822160852148734 7.757033800152249 13.236926502874185
Pd 12.30156192718801 12.041041128475364 10.390511740229865
Pd 14.422566672285885 11.135546833952063 9.008895963172895
Pd 8.664593301812296 9.407735375216436 13.487438556323902
Pd 10.722828823541063 9.856845794466118 11.717998155297924
Pd 11.688559209304023 14.517554520554743 10.838804555455656
Pd 14.946555610216974 8.510162113702814 8.710392865705252
Pd 7.5072670362347536 13.495502284323367 13.833239231094666
Pd 9.305393000327095 11.874184072211161 12.650818211234293
Pd 14.376125065852916 6.893131136587443 10.757821790728993
Pd 9.720697108249555 14.480263662996787 12.62848163725789
Pd 9.282145402698609 7.308298703067597 12.100108443190168
Pd 12.823362893510371 9.39924179693332 10.20134214057326
Pd 11.880540169367146 7.273418194099045 11.479917145933976
Pd 6.879051526901843 11.185234691018708 12.17974947961966
Pd 9.243768074440549 15.524507653148381 10.283167610423874
Pd 9.770980705523387 12.644827499111114 10.253159913648194
Pd 7.453765720875775 13.664432602342034 11.174573311223886
Pd 10.627017262474457 14.212111861843537 8.3442124236242
Pd 12.536207794912388 7.115687370477813 8.82769589415746
Pd 8.292519798004248 9.41386974707122 10.71832243987469
Pd 12.056090876113617 12.10600666066966 7.760148609871246
Pd 12.795467372586392 9.533792159194421 7.4508904688516
Pd 10.602538752787316 10.30164426785553 9.049888873899027
Pd 10.006608317165224 7.770101697246028 9.61421241445552
Pd 7.484542795178556 11.532256529535335 9.505853105504329
Pd 7.81255351722781 14.074865920205285 8.550167338249697
Pd 9.18708277416517 12.12212133561228 7.489239118259177
Pd 10.64905406010814 7.954772532532523 7.136705993581332
Pd 10.584950586881277 10.404762360462971 6.168894919246025
Pd 8.447932469180696 9.519697067337118 7.891473978095372
