33
Energy = -139.05421028 eV
Pd 6.847330263196263 9.657386443144627 9.933399342973312
Pd 7.570046273240511 7.381516765732397 8.871050097969531
Pd 7.276536302559156 9.469550020803215 7.122250033111717
Pd 7.307883323739912 7.623526746856466 11.551010247041036
Pd 6.120252900145687 11.680747949183907 8.36763658562531
Pd 7.548247247503969 10.16053835507547 12.644822410559346
Pd 7.90877585213506 12.173422476181136 6.477256798041252
Pd 6.732118691628127 12.091917932312398 10.8898545402154
Pd 9.363268913645134 8.131582179865395 13.068040181577686
Pd 9.62276367766985 10.20157339935434 5.989208923711835
Pd 9.41254374472671 9.557788618559433 10.847610498523434
Pd 9.784946813815257 8.534309768710685 8.084114242341562
Pd 9.75392383806641 7.034849716474174 10.431763160563392
Pd 8.840210405418597 10.909582928050316 8.690334205432197
Pd 9.965024843281045 10.886303442635382 13.552624749671766
Pd 8.326023262574756 13.387247662359837 9.053096319636097
Pd 11.802919775602067 7.220923741368063 12.233584823679081
Pd 11.300102814426316 8.788214971240327 14.622085887099889
Pd 9.233324420315526 12.198224316264701 11.330674003390968
Pd 11.935652979656345 8.345808455188108 9.574142668590152
Pd 10.41008963243497 12.481262827512106 7.2590663538146245
Pd 11.315150358476687 11.107813887350131 9.683617318867189
Pd 11.026364134841456 13.681726404819718 9.649196941567562
Pd 11.784285461642806 9.74521391282525 11.942288135829772
Pd 11.850382218313483 10.03805599627646 7.387972684433195
Pd 12.949591966471205 12.473666042922964 7.798642181056393
Pd 11.719063180569098 12.39583616905525 12.060543018763513
Pd 12.58058781123627 11.102534219225307 14.274085691078412
Pd 13.76388025629841 8.768086402004503 13.63444624943855
Pd 14.071629810828986 8.334677570270323 11.058392248060489
Pd 13.594433289750764 12.884734241267902 10.304988505634135
Pd 13.795538191470234 10.34544853020305 9.311541826993867
Pd 14.144548876931248 10.896611392749953 12.022133770222785
