32
Energy = -134.14047276 eV
Pd 6.528494017230192 11.702066750123642 12.170109479546044
Pd 9.227031629874158 11.845503386350359 12.862653202748778
Pd 7.9510007557356115 13.641288014521518 11.1548333323929
Pd 6.690258784925638 11.867725737156748 9.372079460053026
Pd 5.984884773332616 9.523384587501832 10.7649573834785
Pd 7.773734281025143 9.464262775893392 12.782239575973149
Pd 8.698591803155026 10.698176934088236 10.620175831309076
Pd 10.551637105144518 13.542157697392467 11.242782183985804
Pd 11.932232724152144 11.516282612711821 12.546457236414353
Pd 10.387719628867544 9.421829227540035 13.360358888404818
Pd 9.179163678253337 12.781633439599613 9.001789405414947
Pd 8.11797161067381 7.943487658061756 10.49750060808135
Pd 7.256191968462826 9.392501385810142 8.465901510391477
Pd 8.883432113233399 7.0979830178517105 12.841715754540354
Pd 11.578026023178431 13.928872724311075 8.754898215514721
Pd 13.143548977376529 13.327953645104865 10.773005306692609
Pd 8.288966124916543 11.304627026982695 6.987282807245694
Pd 10.634949333248784 8.75128648542211 10.894676729835979
Pd 11.477176271390725 6.924371767854148 12.79877825483565
Pd 13.376659595870759 11.762070727538978 8.442544620531862
Pd 14.226190040054131 10.981025250487574 11.038990712459556
Pd 12.92269638663866 9.049009364035179 12.196058267144382
Pd 9.912187121329438 9.695053046897263 8.434908030554274
Pd 8.80448281242585 7.2508777579921135 8.008459621169461
Pd 10.923821872261437 11.86004560216975 7.240377458292671
Pd 12.856969690633186 6.891855164244405 10.556100025646913
Pd 11.348841601111836 11.30301331755375 10.041182881610576
Pd 10.122960610542522 6.190402611342176 10.422017235950067
Pd 9.64165445844238 9.03113164776431 6.026666271029034
Pd 13.021259596268585 9.301872214175946 9.449167831484914
Pd 11.396012519098996 7.501766794257045 8.434158732617613
Pd 12.209093748624666 9.589219920621398 6.923024256224354
