30
Energy = -124.37167056 eV
Pd 10.153735469671354 10.004246750943441 12.294150342742894
Pd 10.688653413144667 9.815582833392675 15.315037223170492
Pd 8.691867282809067 9.398859003618071 9.949755941899207
Pd 8.369812493358722 11.111529621122495 7.879363054972868
Pd 8.64466568854834 7.6553198119292425 12.016987793201642
Pd 9.45875241491842 12.679856153346599 12.156173732179253
Pd 10.491408529247046 7.681813534497211 13.857778657617443
Pd 11.326889697345585 11.985485722102661 13.83281837317525
Pd 13.190210540077231 10.8449824642589 15.25387907304131
Pd 9.049009795649155 8.536109137520357 7.476300026494412
Pd 12.765368194195595 10.050331802220406 10.758378231299787
Pd 13.78317143506521 11.556338935216312 12.776578665512021
Pd 8.74876623551223 11.190206077556962 14.235244943529919
Pd 11.397745048245342 7.830375587780596 11.354720823433071
Pd 12.542607025012419 9.244284007637965 13.296189837850642
Pd 14.64254413261027 12.73851441139916 7.712183731621569
Pd 9.574644391440964 6.942496118841268 9.609879143790257
Pd 11.883621525314988 12.78868027173356 11.316589185541936
Pd 7.441499254946811 9.972071860124137 12.23926518353037
Pd 11.386211475029302 8.764362428692356 8.881644893016574
Pd 12.204856841421178 13.245330334963228 8.728424520127588
Pd 14.225424711833046 12.192431887149114 10.241778846821497
Pd 13.105727600334646 10.64919196373847 8.198603203142131
Pd 10.0010305545095 13.061569188406049 7.208407814312296
Pd 6.920496536348211 12.462616704909156 12.79092161267905
Pd 12.414381820955516 12.394715679935793 6.236018056723512
Pd 7.785412510467812 11.90003097423698 10.303655541288796
Pd 10.588228861166405 11.225847044090306 9.513449761869998
Pd 9.738484421910032 13.688709656543196 9.757508120588838
Pd 10.773307562129686 10.44312832494694 6.857124999706788
