38
Energy = -161.38800667 eV
Pd 13.830994128726722 13.35361720584135 13.429007884659223
Pd 6.857061859819557 12.101744969623063 10.602794029589457
Pd 11.628805458429865 9.920617399541005 10.066783172051542
Pd 13.630888498288016 8.428868885281577 9.156384425206843
Pd 10.795739219416225 9.708522937567274 15.838847362998846
Pd 8.884207033022422 12.954174027484449 8.998501162682544
Pd 11.63682506924952 7.029768441652584 10.476371082989852
Pd 9.540049632896645 11.563449584072956 14.379976057503265
Pd 15.916562923154391 12.350179911183066 11.92092110383337
Pd 8.384643009729938 13.202472983445464 12.641037465572333
Pd 9.607369602827026 8.567914871715942 11.322716819438309
Pd 11.232972233578966 7.345043640295378 13.078434992316575
Pd 8.04305441467789 10.548472512059666 12.340421272161095
Pd 13.2502684798618 8.652140089604746 11.859989555028726
Pd 12.781867517043349 11.877235614744327 11.482128787369664
Pd 13.253347501576082 11.124313268326755 8.37984547045861
Pd 14.374506960456864 10.702470733313339 13.253816128589907
Pd 11.205391836007362 10.18368836087429 12.849073309535974
Pd 15.279225134177674 14.877472826775952 11.650421429612766
Pd 11.095754101058965 13.385859542236949 13.075094375885698
Pd 10.010276671814836 11.797454676500196 11.072777102481787
Pd 12.902271589482627 8.892542552291234 14.514579400411503
Pd 14.75820925880352 10.411929594462222 10.503693020472776
Pd 8.468116899214046 10.242251185210398 9.57342027892844
Pd 12.107860761883105 9.146644522641504 7.017116874505785
Pd 9.172077912611034 8.809014090701625 13.981204806848911
Pd 14.392383921199334 13.104493223488832 9.799739305940339
Pd 12.318933895939356 11.627530161582992 14.76976793327557
Pd 10.070764665548777 8.341534126426598 8.625399245249154
Pd 10.484301050914146 11.048845598640087 7.966830966814447
Pd 11.651002929278311 13.08734157957279 9.284864370734862
Pd 7.4184578481223165 14.653793676442133 10.534708328814975
Pd 10.073675115776492 14.646387660740803 10.750040082385176
Pd 12.674328578464472 14.710973720314033 11.129518809315861
Pd 12.050211731999982 6.678714803432521 7.912391084091934
Pd 8.521543663024069 15.793416515300107 12.660009343181574
Pd 11.081554741509205 15.988309828118664 12.82396480151056
Pd 13.59331075210202 15.938701301956426 13.388915860019225
