38
Energy = -161.44536041 eV
Pd 15.257259995259226 14.427513561222034 9.817351857265805
Pd 13.91277009105445 12.581505704510102 8.549263431028287
Pd 14.879825625672503 12.092241391036355 11.031608704039407
Pd 13.6467854229383 10.14496201958607 9.539743245076583
Pd 12.608115001182595 10.878399413286472 7.135741898342905
Pd 14.205504005713111 14.457678391915644 12.233381461368154
Pd 12.63156040515725 14.545597263945371 10.069396042491643
Pd 14.100519669917498 9.887815289696555 12.162104518492878
Pd 11.072525613105224 9.23163787042434 5.862306819601156
Pd 12.202716789010989 8.3158360192799 8.107251998544934
Pd 11.335945750828028 13.010334647191632 8.313831867515066
Pd 12.171995833564099 12.100000375348355 10.912402784457619
Pd 13.2847870726043 12.266624984006233 13.290495819902542
Pd 12.985983787045887 7.799488795334149 10.645770120835843
Pd 13.225820044300168 7.755462146931203 13.405810227278089
Pd 9.343952840439865 8.718363120146046 7.749979106253599
Pd 9.804790650994402 11.319964799804056 6.929542934900061
Pd 11.601590661399367 14.39159928624913 12.629076187104728
Pd 10.082775274036639 13.907786717732533 10.459433606587462
Pd 11.468359655990737 9.69997194541785 11.753237188198684
Pd 8.697913279349681 13.26474475601584 8.335324957695029
Pd 10.88150465394372 10.389471751379368 9.208586431853469
Pd 10.866159788966195 7.171636257303774 12.50522188868799
Pd 10.618881450034337 12.111796352859539 13.511273584468485
Pd 10.383749826512743 7.730858835921819 9.959946525300174
Pd 9.48485105547701 11.364425354240307 11.234777624054173
Pd 12.172642184004573 10.05661124464485 14.208987389770659
Pd 8.08036521988939 10.813806788080877 9.020233883295827
Pd 9.544973543591073 9.864844679533078 14.39722508264911
Pd 8.964385961784638 14.189933820986122 12.792767884678314
Pd 7.763140870688928 8.30054669053189 9.774163958610357
Pd 8.917522668431513 8.90067808417446 12.113606819614326
Pd 7.47350685622113 12.925230477203044 10.77237577323293
Pd 7.922528907877312 11.871274816161556 13.325358685908157
Pd 6.784498132139669 10.357080453878195 11.322686131108286
Pd 8.632143692753345 6.278289347814325 11.371741625702084
Pd 6.962863274282234 9.548014492046399 13.948929556118506
Pd 6.464488771035709 7.767676381357757 12.038766705164967
