36
Energy = -152.85836553 eV
Pd 10.788080303466119 7.989132739899759 4.75863364799815
Pd 9.031985303602278 5.933579312321277 5.423533973508303
Pd 9.945050753197233 10.384741940532205 5.746262203171072
Pd 8.179683448768097 8.50532092174912 5.263088234313172
Pd 12.105387149508166 9.215590062017737 6.890721149968017
Pd 11.264267959935808 5.337670929440242 6.968164441493234
Pd 8.498489276145206 12.187937318565963 7.127541116364772
Pd 6.034440786319566 9.377262197717467 6.746080278129435
Pd 8.74996487837714 4.931857239143493 7.9301570238218675
Pd 10.1288050835681 13.801871375126229 8.723122005031996
Pd 11.112419863663138 11.44114798662153 7.891707079090564
Pd 7.260908156552726 6.997444164119167 7.252286571606605
Pd 12.283799696477923 7.268806219013657 8.731567751036364
Pd 10.073275321223043 7.621678018247587 7.228479383285418
Pd 8.436910250232689 9.56013588919133 7.826104801193427
Pd 7.4564007403059245 13.620878479249907 9.261188059898759
Pd 6.447917936953109 11.047040475265431 8.911439920105407
Pd 10.76166311425352 5.211502631146388 9.593850839601101
Pd 6.100617530923806 8.3040945289975 9.206344456869008
Pd 9.072991013075729 11.523621033700163 9.615062454503136
Pd 12.993727414665909 10.030974955552235 9.295681946132783
Pd 6.760903708729051 5.700587625278219 9.710251693372951
Pd 8.872001070488096 7.178799258867038 9.517156864352694
Pd 10.541924024465855 9.256589115793153 9.600322995032796
Pd 11.487133372323326 12.04069583871848 10.535135312749548
Pd 9.284062148328623 13.606159480212543 11.31798621908499
Pd 8.008121621645865 9.442391398769544 10.618315402535213
Pd 5.36747062912355 9.910533685058976 11.23064409975931
Pd 11.246163470186927 7.181064283844627 11.223617143859657
Pd 7.059931573193988 11.986030872738278 11.431792558945958
Pd 6.747251115927544 7.4758351483126795 11.779172758237404
Pd 8.952441046901964 5.811119811983182 11.689949730347893
Pd 9.51945473094486 11.060881629601294 12.239484726771598
Pd 11.775931049738546 9.70414428721619 11.867219813863088
Pd 9.354693578629954 8.38071397649245 12.562472033012178
Pd 7.196294997621077 9.87272928895925 13.186025430416601
