35
Energy = -146.71604159 eV
Pd 7.855747605170246 10.886852431852237 11.519373693367358
Pd 10.042289342097073 15.603862240186452 11.382332465767934
Pd 8.72469678268091 13.325946433303152 10.971807602038773
Pd 10.682936474333939 13.854190205832634 9.31855360256886
Pd 14.514588241174385 14.554634069989952 10.150506684474053
Pd 15.14429041324749 12.061401344385573 13.928489144401592
Pd 14.236910852083124 16.72820150034214 11.561672394613016
Pd 14.695349334250954 14.403629569851793 12.795403931452205
Pd 12.094051155413062 9.637966936204855 15.594107392776335
Pd 10.457397351552483 11.635466570879968 12.168111909834588
Pd 13.272790361082546 5.822938046594836 12.546436253908423
Pd 12.241308855794111 15.757567000363938 12.948842371286192
Pd 12.997042199352258 14.211590916957373 8.035566940433888
Pd 12.21916648924622 15.943377590336924 9.987549485702392
Pd 8.308547154098939 12.276532326056754 13.768844921320804
Pd 9.954029949643834 11.273999169180364 9.653882017936018
Pd 12.245828063948803 13.592837236168123 11.448063967145165
Pd 11.27610343252929 7.298005104359584 11.79045408455064
Pd 15.00900799144115 9.763035101348336 12.347032427582144
Pd 14.971906711928769 12.446805247317766 8.672632386136238
Pd 12.734363352969588 13.384337387236203 14.255149827944008
Pd 14.537639561538635 12.150996557896601 11.337501621228878
Pd 12.501620400179075 11.89115106937841 9.352757476830869
Pd 6.357446800557306 12.954598596787443 12.162906647872736
Pd 9.508144074336602 8.997763819513189 11.03316654880222
Pd 13.048898061421877 8.231121043727706 13.541336778034498
Pd 10.657955437877181 11.726553577959958 14.87026252498125
Pd 7.953833838125607 14.929934080549632 12.910608277157229
Pd 12.82347720863553 10.94963829708659 13.28726821458527
Pd 10.549221676353774 9.324858221021493 13.470999710747284
Pd 12.038883946600967 9.77024272756065 10.87486624267587
Pd 13.871763080296732 7.7913507232739265 10.96801907719225
Pd 10.329691774144461 14.017694273423743 13.520173603390372
Pd 14.68478002134459 9.685388737223887 15.00002082825348
Pd 14.449599405085644 10.027665024526772 9.745013611743307
