31
Energy = -127.88813397 eV
Pd 11.704303750223247 7.766082344358501 14.666282929028782
Pd 10.448678613656 9.797455886466365 15.843356722077964
Pd 13.041150873384753 9.956555270730645 15.306127043025386
Pd 11.266048814310334 11.386856805420539 13.864200627595395
Pd 14.559884606135547 8.813294815341607 13.51861620114665
Pd 12.513915936956028 13.728567196805907 13.603430675998162
Pd 8.78026468941053 11.710534523124256 15.898526117142904
Pd 9.62821852819803 9.168815438397585 13.502853655476905
Pd 14.070540107585737 11.505720523857674 13.413054882044756
Pd 12.164266826180993 9.328741816282806 12.576382185721775
Pd 13.666757741986274 7.635921615554894 11.246670636896283
Pd 14.62086733650853 13.631882053248049 12.031317664583076
Pd 10.021654675594702 13.603079582694509 14.67337591848634
Pd 8.665308211804426 11.630566872058667 13.299469012007085
Pd 14.633025439991222 10.135281625336773 11.116616614594024
Pd 9.93221722540584 10.524216698718636 11.252033871827358
Pd 10.48180442702083 15.547810245562705 13.02504976722336
Pd 12.525709504987477 11.668836973303275 11.215184788068735
Pd 10.511602488296408 13.184142365318475 11.913567988924113
Pd 11.853182620967129 9.285534121625094 9.92950521561495
Pd 14.77237096417138 12.396352854461528 9.793407546020127
Pd 14.25916302706208 8.776270373669076 8.950498626628036
Pd 12.265820799441078 13.652492395172622 9.517699034928738
Pd 13.157795868189623 11.079145749475591 8.362690513901239
Pd 10.70147907480373 11.620921831136435 9.032628822918918
Pd 10.058879291323398 15.097343765549756 10.191154132553107
Pd 14.602177438049493 15.032831165180916 9.758281003052527
Pd 8.707340565122621 12.812731764291762 10.134276691366672
Pd 10.937171603948928 17.364821034589323 11.201716721846893
Pd 12.302666799507172 16.315384305663493 9.1528272012309
Pd 12.724636134900663 15.420711971726561 11.588101173193033
