36
Energy = -152.20258062 eV
Pd 11.60674138281537 9.373934303902585 14.890653868785579
Pd 11.551725673576906 12.052584951944292 15.392130761020109
Pd 13.38629283460314 8.334548572945335 13.175004579353146
Pd 11.346921704739508 14.740676778429357 15.423863517779722
Pd 13.220378394615256 10.980673070803288 13.589681064168373
Pd 10.833131910551767 8.49136771142633 12.454236533457303
Pd 10.385010340656004 11.041993753169297 13.146906554804126
Pd 13.13114557274222 13.639802801615145 13.92690716584891
Pd 15.291421248058814 10.044124033652093 12.171689271163432
Pd 9.55456285654086 13.38111260607054 14.189693749039506
Pd 13.411371915804253 5.984040028784492 12.089839910471959
Pd 8.499318231200888 9.507769253608188 11.78280768423606
Pd 7.779245174243743 11.68769181383639 13.129514523799811
Pd 14.845954773055187 12.624345531126261 12.146442222088309
Pd 12.596221369441745 10.009560406001848 11.125958875887173
Pd 14.713994971276108 7.865152680393897 10.84870480420553
Pd 11.166272494066675 14.965074824884198 12.637722981300053
Pd 12.135898740627887 7.4251995327430995 10.351148486395559
Pd 14.088861103880221 15.170425095181246 12.059171301269622
Pd 9.495053185601957 7.533263981003282 10.331940948538989
Pd 12.0419203824886 12.651521314609193 11.657748161559873
Pd 9.21308602903516 13.356846091371303 11.602567118933658
Pd 10.108007896986411 11.129175932256068 10.415918190688215
Pd 12.199733681218916 15.778085503567455 10.373105758988013
Pd 7.398752343335539 11.655345488110509 10.52888368483239
Pd 13.626708790352522 9.073994594963896 8.717823229438146
Pd 13.656268717190848 13.628823052585151 9.833458304211199
Pd 14.690424478352519 11.169060899948311 9.897147066840153
Pd 10.905560877721356 9.190656515162486 8.790686316892582
Pd 9.586611788431538 15.657820151187172 10.377427775790764
Pd 11.014820769410496 13.649169126966985 9.296407078073752
Pd 8.289665805614053 9.51218317105796 9.041893314498125
Pd 12.332803701711944 11.461222485751273 8.73912940031926
Pd 8.388818839886499 13.66938769885331 9.046372242669364
Pd 9.826180333674943 11.624621783561999 7.850606139468344
Pd 7.188214952272657 11.615058189919926 7.926103381134604
