35
Energy = -145.46623755 eV
Pd 15.885792685038195 12.447056947019876 8.339159393220697
Pd 12.863452245083984 11.588013485967277 11.391031403348729
Pd 5.864543987926044 11.574556133257392 13.117649447117348
Pd 11.63622560746283 7.843255130014751 11.422997659537565
Pd 16.549102086662998 9.200511236345067 11.797132931717421
Pd 11.9323718875072 14.261021548266552 14.957232399674028
Pd 13.344212867654718 16.087466826951296 13.678776201681739
Pd 13.701753193396172 13.483160218957797 12.997703150031967
Pd 9.450348640953441 10.29179480539494 14.030252898974311
Pd 11.179908872211465 12.172418973849112 13.480445448645693
Pd 7.408935073959543 13.512010764612866 12.251563394149741
Pd 12.023552529200797 13.69270084958596 9.975344759403574
Pd 13.913512783327764 15.467467468576716 11.192782782850102
Pd 10.534229409248223 10.20087768667877 11.50617363807657
Pd 11.646272525605674 16.254985559728734 10.051638591022185
Pd 14.133747741258206 14.449559692966565 8.577560472641823
Pd 9.948157099237227 12.88334286089529 16.014747592645335
Pd 13.328967570879572 11.879155414177363 8.512578708056397
Pd 9.449048613900272 14.234894885462753 13.796344998191588
Pd 13.903330304651679 9.152520459889194 11.991230929635512
Pd 7.853273492088712 12.229413920939784 14.591105856742743
Pd 11.3611275872954 10.744745425734783 15.841240045668464
Pd 15.023671450834428 13.131655665605964 10.706367159663296
Pd 15.31920538649087 9.224865221956847 14.147141459859698
Pd 10.76695135060412 11.473581999125932 9.19649205018313
Pd 13.305962359710517 8.966464959588189 15.766171709534877
Pd 11.82172251181396 9.208225647386351 13.656866690584414
Pd 13.55049360512502 11.257843243616142 14.41997406915941
Pd 9.850367087057823 12.901754681511516 11.285303008670109
Pd 15.138060954431973 10.521930246031587 9.992439294899373
Pd 15.509477929755647 11.462762182180894 12.643254958299021
Pd 12.59157573417239 9.566405237504345 9.681115600088274
Pd 8.077864084110509 10.969482682522191 11.912263602456967
Pd 11.412372331503214 14.918450847761273 12.300108717628564
Pd 13.911826737545935 16.955896646504605 9.04244610069882
