30
Energy = -124.31362027 eV
Pd 11.363932106852408 7.2958228662697175 6.60151239571377
Pd 9.175130028212356 11.588726429007984 6.612220417954105
Pd 11.00318269250056 9.769467148195684 5.8934306392412745
Pd 11.680199455511962 11.592915848341265 7.688760907864526
Pd 13.225264664647073 9.44991280735683 7.365076801009445
Pd 7.571730857294183 8.249730495516067 9.627284456476056
Pd 9.526106785439287 6.833139017483857 8.480019971536315
Pd 9.524817443583414 12.51959185066166 9.031739637604371
Pd 12.060292993502404 13.077525553287595 9.891839626660234
Pd 13.823338578330905 6.874937870450358 7.474268373386843
Pd 7.307854873912957 10.961760148501046 8.51654442264162
Pd 13.668966143828776 10.9919204470927 9.621486995604787
Pd 9.55803727777471 9.387897671703513 8.051212343784512
Pd 14.484075730759342 8.498949626943201 9.520320886534861
Pd 11.912167362523036 7.94989213432017 9.080765754021613
Pd 11.200814384490693 10.388195192899142 10.000461432455067
Pd 10.031133162824075 7.870181408884551 10.880489299141235
Pd 6.12651540280831 10.208711147598125 10.819921747915222
Pd 8.769828731106267 10.396597154185544 10.618918120770479
Pd 7.3542209279313004 12.724740761393136 10.672645248125104
Pd 12.700557533920442 8.804036911586836 11.4992684784361
Pd 7.865419265614868 8.530945584184577 12.353638772377609
Pd 10.060036939017309 12.592451788203496 11.566485694402427
Pd 12.51940511542066 11.5160456903293 12.122479720211011
Pd 10.475499030686192 9.739012776442603 12.638752872553955
Pd 7.626342080213922 11.17399973239485 12.895151258479174
Pd 10.531414632685951 11.93261197980721 14.012773716557613
Pd 8.27454521587214 13.6955940989663 13.048567016333804
Pd 8.858879211957863 9.672419183389307 14.637892214708247
Pd 8.201339799688663 12.193315103514367 15.257119206409614
