34
Energy = -143.62042415 eV
Pd 11.426938843457597 8.456895925762659 6.643057124561699
Pd 10.08439963198601 10.481152465218262 7.3719059206680875
Pd 12.810081412379246 10.08929483521793 8.384991462392193
Pd 11.897312994320808 12.312753952436275 6.962098254680533
Pd 10.581422285620441 6.2615407867908806 7.861973383241728
Pd 12.90505097172385 7.375360634266341 8.544096496593028
Pd 8.703297966780044 8.254353997633226 7.441085691610729
Pd 7.43974034730789 10.716507288174126 7.849378009483956
Pd 13.598928785665784 12.730767295927262 8.991011714590618
Pd 9.369203531988168 12.90523269484204 7.769801245333967
Pd 10.49042074019277 8.785514618436785 9.39177146846725
Pd 11.167091978107873 11.748448711679226 9.622742062889305
Pd 12.794630288241645 8.637417629877435 10.789698734869168
Pd 11.478961341717245 14.401780026450803 8.624346566132921
Pd 11.19757266315386 6.469953091017298 10.526856845652336
Pd 8.616040683591601 6.488224077161383 9.5511525125784
Pd 8.764034055248251 11.161783672123342 10.050976368049966
Pd 12.09072566156243 13.65154362380019 11.185262902895689
Pd 7.5351148679879465 8.82739150950898 9.85082914524055
Pd 9.17857742802272 8.606894909178992 14.145697468828752
Pd 11.501558418504631 7.630869468311825 12.975691009020743
Pd 13.319623865771131 11.182691755536206 11.07439196706
Pd 13.4911211038675 9.551264846916025 13.119130706970108
Pd 6.1002730000093175 10.946575214940053 10.322859183457576
Pd 9.35943503139877 13.963645228583301 10.2008842808672
Pd 10.732582585150915 10.018539005656896 12.03357439067392
Pd 7.031265783257742 13.15790130591464 9.042019724682405
Pd 9.8596552224413 12.532768204425857 12.26421223063056
Pd 7.34273791768905 12.901316855311446 11.71214392503235
Pd 7.9149739940960995 10.260401431056412 12.386529237551862
Pd 12.10437685334765 11.89444615253071 13.39214962385478
Pd 9.149256145868538 7.862383136429629 11.68466477384678
Pd 11.542424236025964 9.618627923908361 14.848166683712124
Pd 9.476742973712046 11.212329971166719 14.403386133316035
