33
Energy = -138.78701233 eV
Pd 12.857262817066472 7.835184435090875 12.594452963237
Pd 14.825896385202256 8.572050936986606 10.91341989668076
Pd 15.21060435501225 11.233008351398597 10.326821626683255
Pd 13.419121025552204 10.45011746164799 12.167416417352037
Pd 11.247580190491632 9.693408171888512 13.613794955238907
Pd 11.962375946965247 12.32571527394068 13.376758971991027
Pd 13.89549628302288 13.073968961426994 11.733332740214404
Pd 9.546966604744094 11.465314027345759 12.556914065181395
Pd 12.727846982344863 7.279497907289353 9.962615922058431
Pd 10.519071659346118 6.777110819685933 11.768939646081302
Pd 13.165801699782229 9.910912757931154 9.287084524820724
Pd 11.129047457977132 9.235093231694789 10.986501345985808
Pd 8.929995467434443 8.834840338451327 12.569951023572473
Pd 12.000403669908986 14.538711492884316 10.649852990217028
Pd 10.257967524726979 14.162738952467222 12.590159002783762
Pd 10.532580450873668 6.061142572346263 9.18783789804327
Pd 8.922542907436583 7.267544587911292 7.4049055192119315
Pd 11.554177938178135 11.858042752342547 10.794125696068573
Pd 13.34836259889526 12.65119378191964 9.034880459117604
Pd 8.816420804160414 7.8973578521630206 10.0186850122855
Pd 7.89450861667149 13.36950243232279 13.357478371185527
Pd 9.492539332076031 13.468903006800794 10.221535730726602
Pd 11.037523207389885 8.615184877377507 8.352349797011533
Pd 7.122022202660992 10.717403842245472 13.24805153243326
Pd 11.134732094962715 13.91718178572614 8.17873624792297
Pd 9.144152790938898 10.647424246914243 9.930816259910406
Pd 11.168429228025227 11.265563113272316 8.151601116756575
Pd 6.829412727177911 8.628920185042883 8.427225913382461
Pd 7.314357517712596 12.337066732359077 11.077643374909139
Pd 8.823122288402828 12.601925280549338 7.855407684711517
Pd 6.914432022501001 9.565637157649133 10.89675915843961
Pd 8.887837312717606 9.943360710336814 7.430146128170228
Pd 6.738952512967998 11.28648623844703 8.745457001401158
