30
Energy = -124.99506208 eV
Pd 9.566192365804898 10.230718623881593 5.674075047192564
Pd 11.21696022942047 8.10678497141314 5.802306344794065
Pd 10.176680859909553 5.715583386055275 6.44538463212283
Pd 11.46029301992775 11.835572481244816 6.922854002961036
Pd 8.80831712695387 7.915669944724816 6.891423851253379
Pd 8.752157202515837 12.350372338577486 7.164857495319048
Pd 7.416333343946595 10.086792566036776 7.328812403659756
Pd 10.278750960175222 12.85211399096945 9.164619660934823
Pd 10.100219480838971 9.998637986492954 8.224083694361129
Pd 12.590240534974198 9.430148028968192 7.603702560863418
Pd 8.85311560755107 5.936511641872616 8.716683867040475
Pd 6.881663493387986 7.813056591011021 8.73998195773753
Pd 12.605878269682563 11.406409800418006 9.394339223321404
Pd 11.086867455927473 7.286004385157791 8.390798785297537
Pd 5.608761715868901 10.115872072534128 9.197142569669984
Pd 7.489191651184275 6.229057297203579 10.897090866586643
Pd 12.081971178783057 8.806841368591508 10.200521498126369
Pd 7.973324741657192 11.189189235273302 9.705769069606886
Pd 8.963629271096176 8.603224156456857 10.122941630087627
Pd 10.402479957390094 6.681252297277044 10.98673772419278
Pd 10.42015717896073 10.773952095914037 10.782647049416408
Pd 11.746969666880014 13.091447841641733 11.403193174331033
Pd 12.880087356294835 10.673928406991658 12.023375615088655
Pd 6.571656853991558 8.81896657357615 11.283073598362845
Pd 8.998906426319817 12.933038148550006 11.542592652505606
Pd 10.875050030464754 8.901652865082735 12.590208482764185
Pd 8.550911414613614 7.727184969764765 12.781945298523413
Pd 8.358758360413463 10.355568470050752 12.420634249278216
Pd 10.709897031989419 11.516067498127917 13.378852473314847
Pd 8.373192446238034 12.416995199302802 14.01796575444827
