30
Energy = -125.16600764 eV
Pd 14.172229360676985 8.987207516799705 11.398349345504952
Pd 11.708544902305965 8.917295952587908 12.272752254769278
Pd 10.58015908816996 9.163951584023996 14.62641410533051
Pd 12.352096241331036 7.293604818832439 10.269753855954187
Pd 8.823812532026853 8.856173399527433 12.612050119192245
Pd 13.750321396385708 11.700873367511623 11.651352943112641
Pd 12.4858492837586 11.028350349911385 13.778097263271546
Pd 8.2016017877093 10.404237477391726 14.745343639550704
Pd 10.463440367385163 11.731484313362921 15.404036967571662
Pd 14.114925157723228 8.425891354338415 8.696553749651343
Pd 12.283406498664126 10.316212709865493 9.979411151420344
Pd 11.527503189109163 8.701090960921901 8.094168611972933
Pd 10.097389889182057 11.132371013563978 12.665171020664303
Pd 9.966442885116738 8.418324651295245 10.293177177528964
Pd 13.649677681379659 12.861251541253218 9.182278726191424
Pd 8.473935216679658 13.02621930984103 14.179720049078428
Pd 15.12197492498286 10.72141148869133 9.554335007199153
Pd 9.680894560598002 11.08563489586863 10.024932416045537
Pd 7.488792400248021 11.317290695657146 12.33271940686138
Pd 11.313822050325484 12.246466416913046 8.204270780713008
Pd 7.547037845333392 9.581255695156003 10.326020320674544
Pd 11.161336099528347 13.414103837786712 13.412819252953957
Pd 10.77954210653176 10.489820431881531 6.323834216095328
Pd 11.562048385713272 12.953725197672478 10.836192804947105
Pd 13.338844287585356 10.724197775028761 7.465445661320591
Pd 9.054856149419328 13.47822427374034 11.685899883766622
Pd 9.559422663214093 13.935677708833168 9.21040699441922
Pd 7.380621101986561 12.371778068728984 9.844199680253658
Pd 8.780211812070814 11.99483584680285 7.517921436047861
Pd 8.977598550355223 9.424695217786843 8.019348846518595
