31
Energy = -128.56018668 eV
Pd 8.04733177819772 10.578393240231957 12.395830778060997
Pd 12.158296355204204 9.976228837547625 14.5135448567843
Pd 9.836713986480719 6.892131004183704 9.09955168356917
Pd 8.5573894544124 12.583858049862021 10.54263269289442
Pd 14.01318436262761 12.785322791214877 10.650305071261768
Pd 12.947261200372159 8.502775134315911 12.141444795103547
Pd 9.57338095448917 10.582211762997709 14.546828939081387
Pd 13.092821181130319 15.281732486434189 10.73290698312158
Pd 10.647351057626434 14.25253655263946 10.78545711562676
Pd 10.650146982132474 9.812908788786238 12.111704830023246
Pd 13.822791656541252 10.092830045063018 10.148185892767959
Pd 13.040010430053274 11.145009485725197 12.435383525573675
Pd 10.137992204854005 12.39434082939621 12.659566182898113
Pd 13.177704979861259 9.221730704270573 7.683235408513129
Pd 10.48185937930814 8.876596717247589 7.351158780092574
Pd 11.35076155352065 12.56137052119155 14.962408741026243
Pd 11.555249519831584 8.80232639057534 9.768776928358054
Pd 14.17134810139735 11.749693801680822 8.160113450893798
Pd 9.415558687977647 10.592259404895623 9.058157104868474
Pd 12.437464807369016 13.759511263286777 8.677196732242836
Pd 11.628055739121196 11.31719350656376 7.667406450960967
Pd 8.910451026528104 8.248984264264342 13.386756788990859
Pd 6.915833740252878 10.476558488572268 9.940055516379331
Pd 12.501353359552198 13.705036423297335 12.775582432548523
Pd 7.927191073084268 8.57985450244906 8.191007330745098
Pd 6.238342771775713 12.290130348932278 11.696334238456135
Pd 11.510833227604628 11.728113450633794 10.280935341440053
Pd 8.601954787365734 8.546899100827453 10.727061028906215
Pd 13.885295004169434 12.148358418309316 14.639486777026782
Pd 10.66808198096862 7.095773539219592 11.672377044625915
Pd 9.870875137631645 13.192216626825847 8.371493038599072
