39
Energy = -166.14367747 eV
Pd 11.05874183031305 7.871500922981125 5.639185405193312
Pd 8.430246003920411 7.734953397475115 4.825367311946879
Pd 9.516379086980304 10.258401672168018 5.431164549898045
Pd 6.944121583001425 9.635068299020858 6.225349677805891
Pd 9.244597990622701 5.7586875182914925 6.592420634581655
Pd 10.379612981822861 12.43786971412916 7.004201194146767
Pd 11.276464026731643 9.879265864808316 7.48129088758459
Pd 9.102253891722295 8.263072856963952 7.318541142555397
Pd 6.695330680707034 6.977488225415408 6.91908213825694
Pd 7.742503402268053 12.304340469080982 6.201054303278348
Pd 6.036450072703661 11.313375195057539 8.216988919568292
Pd 7.152923743823037 8.856965576610161 8.936385370679577
Pd 8.243409377632007 6.368706625560531 9.073657104195258
Pd 13.170699721061212 8.044111077075039 7.426149586533363
Pd 8.740611884109677 10.719869979526052 8.069922588313318
Pd 10.689785103500602 13.907432966737229 9.239228169343246
Pd 4.771457771399042 8.83487931658208 7.749535925505736
Pd 11.911113956706714 5.578027317538425 6.739271749314558
Pd 11.088854198858545 7.132013165627197 8.62941669818405
Pd 12.635639455974612 11.895269884922673 8.497874471518696
Pd 9.71386157983096 8.935154545634957 9.943530492232174
Pd 5.5839147913887635 6.885628946989665 9.52808527155333
Pd 10.51868145671017 11.42358213681962 9.888670246913382
Pd 10.286235405846025 4.701423376405543 8.934070700361174
Pd 7.516693360110756 11.07182203024563 10.486235290851782
Pd 5.146420234810481 9.687590659127276 10.345183888501815
Pd 12.585131750114064 9.404169897879628 9.76195395309018
Pd 8.151029550898633 13.140373796954632 8.80230928770339
Pd 12.621936719659061 6.748703325121828 10.621550014597434
Pd 7.701167557060563 8.19849118846329 11.45233872688728
Pd 9.908739127314576 6.3146033670495925 11.154707029354013
Pd 7.206934758202388 5.668622367765908 11.379706856570698
Pd 9.089612421398021 12.960038914467443 11.391721195574368
Pd 11.934715797646609 11.048303292902146 11.9607368341605
Pd 9.283589305470567 10.371588525359511 12.370343547990888
Pd 5.249590579468396 7.644472074317036 12.082784268420289
Pd 6.492364951251073 10.10606736196887 12.69813453546977
Pd 11.284854800069306 8.533937630356817 11.955590930601188
Pd 9.27997938917753 7.770776816885367 13.41290940104906
