31
Energy = -129.61726455 eV
Pd 10.00367803699587 11.609788382657731 6.314538063330225
Pd 9.062265565123754 9.140966758617676 7.0102492770735045
Pd 11.670131773104668 9.578972506673358 6.675184877874408
Pd 10.835982581272138 8.226931539494984 8.845372148792066
Pd 7.945628944289489 11.340850134916364 8.002987652992376
Pd 8.380981369734164 9.078481072191533 9.604799396715633
Pd 12.449198088228915 12.073003645118858 7.397369840315479
Pd 8.06981757915939 11.450204686669139 10.671530498704033
Pd 10.368564743069612 10.87421629012849 9.009266647862233
Pd 14.629120321248065 11.774492475562553 9.19883373302672
Pd 7.825107067013163 13.688172418525616 9.24515493988057
Pd 12.861692051305814 9.933417034267114 9.001719371858162
Pd 9.985381109889143 7.6617514701021205 11.254802190868965
Pd 8.244870902184369 9.41338447857728 12.280123711909075
Pd 10.240095128596336 13.404211905439004 8.244906174955837
Pd 7.531848825722006 13.739286502594975 11.95652407543131
Pd 9.923766733089195 13.420923262352375 10.872678245954173
Pd 12.23404364262733 12.647269016700108 9.991686445951233
Pd 10.801928316441527 10.222417016438218 11.696341100892969
Pd 12.56571436093431 8.175237343876043 10.896409790471052
Pd 8.96967115574627 11.81344696158522 13.131173964671813
Pd 15.026934993257878 9.199021392888207 10.341748288257982
Pd 9.138794980774819 7.382241065769343 13.754887161773445
Pd 13.467612349013189 10.934213657827508 11.546693532202761
Pd 11.666799468573736 7.9639608521113034 13.409904799828816
Pd 9.776869519652497 14.268200216111305 13.433845427005307
Pd 9.94288281767855 9.760589925735466 14.449217004259996
Pd 11.76089005761101 12.657406734193284 12.597958529203837
Pd 14.151161206514605 8.741251085293513 12.927003001290924
Pd 12.525652560806193 10.48728390589376 14.002761279699419
Pd 10.787649095943795 12.204592652921633 15.026740969259762
