34
Energy = -142.89944872 eV
Pd 13.219044413580683 9.227293831426726 7.929897883055021
Pd 12.437629474113498 10.594289694023127 14.490971854033427
Pd 12.002002074669726 13.362741356143472 9.995065154451492
Pd 13.519549128670251 11.921444295706118 8.221745551789425
Pd 7.4831311683519015 9.095180995315259 10.631146292353627
Pd 14.543719739183478 13.948134922968139 9.66043074882498
Pd 9.651291664373284 7.996475745009226 11.774259158076132
Pd 14.226000466037425 11.665144975483475 10.939168095529155
Pd 14.423280789599328 9.90052507508312 12.903718504059755
Pd 10.38870883917269 11.69707412752071 15.68080282302051
Pd 11.836556706261897 10.597076090038556 9.880184892735603
Pd 10.592694329305782 14.402014845996296 12.034816424185525
Pd 7.576746800670274 8.772025814524994 13.28373380377526
Pd 9.991448734042677 9.716456404142827 13.844771645818046
Pd 9.559805665739685 10.652224325952211 11.334231253594243
Pd 9.749376257908034 12.238468670990692 9.061400143329909
Pd 11.455163763470663 13.478027829319961 7.424831399099005
Pd 15.775859422929011 13.585115860037073 11.951757474231906
Pd 8.987723019129938 7.1987219424830196 9.304187930380838
Pd 9.364562368937438 12.487731270786325 13.403361271177543
Pd 11.778927889954868 13.529456859156623 14.28547053966057
Pd 12.004386910203593 9.050028669320184 12.260385704560603
Pd 7.870348902343767 10.908804565482155 14.910784208581727
Pd 13.967199611818225 9.033641622866927 10.421994319637884
Pd 8.34430169565701 13.166147592590965 11.075193723129706
Pd 11.809818990414541 11.858475363726805 12.246229621860206
Pd 9.305709412022534 9.705413932831974 8.811574922554192
Pd 11.507085430611326 8.01282989508402 9.825122823326202
Pd 14.170327949574569 12.43612041631706 13.672695679906361
Pd 11.173844270758394 10.847865017371955 7.214688775522293
Pd 13.24395699794587 14.391275071945486 12.094439170871224
Pd 7.131138832023222 11.193519643277682 12.296316183379389
Pd 10.778918698533074 8.194523434526793 7.2767709667465565
Pd 9.797745056602581 14.80373531716022 9.525856531352646
