32
Energy = -130.83723744 eV
Pd 10.556052724238285 7.03285160778349 12.896375123317549
Pd 13.041581794307687 7.762438140590656 13.342635545741267
Pd 12.200996838222212 7.560507636996997 10.646345170636026
Pd 10.98767898363868 9.11631606451692 14.580852962661675
Pd 13.30528369794817 10.377616436635934 13.813859317595204
Pd 8.846270974971652 9.118513541437505 12.80142616483019
Pd 9.539454608707363 7.706651914005995 10.550612018462934
Pd 14.171161748321811 9.307658340276262 11.541946068529667
Pd 11.34457477594394 9.646364044146525 12.023226338848588
Pd 11.65153299284521 11.539447421859379 15.538274352869752
Pd 9.185689649295346 11.154206412624111 14.508670047394663
Pd 12.423022585382762 10.059214768103159 9.724711638893668
Pd 9.309338104336986 10.287959779945727 10.426445941076082
Pd 7.8936786409506805 11.582162893813164 12.200125157999137
Pd 13.42644401975427 11.868485750443261 11.495058266189831
Pd 13.263316131709727 12.971166883255778 14.058093696526688
Pd 11.089517835946085 12.051688501664863 12.952014530223803
Pd 12.41280708753094 10.386234115426978 7.118567400204285
Pd 14.488857033028161 14.481394529579624 12.41744666392578
Pd 9.002921377254559 13.620576312843092 13.419507780713607
Pd 14.777689125378192 13.637574437054628 10.010830463176307
Pd 10.414236073815383 8.971205526411188 8.393368969262163
Pd 14.558542406091322 14.982464440952683 14.883129604472236
Pd 7.8604420747673736 12.321392666135914 9.552649269411567
Pd 12.889549950804744 12.45468996615856 8.767680014527485
Pd 7.369099927499965 14.133327699412376 11.398358791098703
Pd 9.953025512977982 10.531645729473574 6.227871086278438
Pd 10.239789636379767 11.742526136372177 8.535287004959155
Pd 12.351459536299721 14.214793430965939 10.945185980542472
Pd 9.89874203805942 13.223274171317419 10.913102318147894
Pd 11.523750641542444 12.785815468057622 6.48429161464901
Pd 10.929321603283146 14.275665362972994 8.737880828069322
