36
Energy = -150.6132709 eV
Pd 9.971333806994576 10.072328749462416 9.860494363776716
Pd 14.089616777991472 11.743500912690555 10.23785972202106
Pd 10.638993876255007 16.483275018805866 12.35703629205861
Pd 16.08499318502578 13.057430963845439 11.380533480107694
Pd 6.953427429800007 12.992006979068474 11.114634549718481
Pd 10.140517109550805 12.977068356390449 15.31994552967878
Pd 14.970696145292878 9.447393415927174 9.051539759771385
Pd 13.561109042359368 13.780017736579008 12.079859356346471
Pd 9.969855890239504 10.815402781260007 13.763873558648802
Pd 14.563525180299306 11.443456042223591 12.880208367622853
Pd 16.28027213755953 10.379834975787434 11.155068506625542
Pd 8.636065833425596 15.026229767797226 11.408148686645582
Pd 10.883527542116102 13.804604258842954 12.179272252825758
Pd 8.193489150172628 10.666378377600646 11.740592866007749
Pd 12.314473569966806 15.717170838300934 10.529103059674423
Pd 11.775865916871131 8.009967954725434 10.39062721515607
Pd 13.29265417307402 16.27792385161005 12.88514735874965
Pd 12.418376419743344 10.203605806823754 8.902419988058666
Pd 13.40680522629469 12.36995217303039 7.769039977566377
Pd 11.495044475703613 10.645573307481962 15.917434296615566
Pd 10.388339936522913 8.362866794487434 14.730806806475332
Pd 12.252666867923555 7.41750981836892 12.974256006369098
Pd 11.725525896090089 14.90819944681845 14.427399298423598
Pd 13.17031888608038 7.771108337142237 8.256770626599772
Pd 8.568081498456758 12.887239379099698 13.137706540555339
Pd 11.59764495349781 11.251280834778312 11.585920256271502
Pd 9.072887988494985 15.229265829961827 14.137517130035112
Pd 13.821817548849507 9.214794828416816 11.364482731751968
Pd 12.827127795635938 8.203727253585283 15.582243196922327
Pd 14.374542436267637 14.329436299111416 9.578343559173799
Pd 12.44114019325777 12.4246968302339 14.09372998741363
Pd 11.873791242866336 13.291457427478711 9.7267412121447
Pd 12.606549841422765 9.871186898199973 13.60076596728895
Pd 10.02454170005189 8.7615316108046 12.147975581318898
Pd 9.368104376793848 12.681130745123266 10.190570588727537
Pd 10.637904374042185 11.873073823125859 7.933559747842534
