30
Energy = -125.21544272 eV
Pd 13.148593672587841 7.77741819378075 8.743597966864336
Pd 10.837452132449066 7.647218004645425 10.0569224947577
Pd 13.61906721929627 10.259837247152655 7.792085197812691
Pd 14.11573238537199 8.255805036462444 11.163864837360533
Pd 11.032220393302165 9.326481304807228 7.902719947072049
Pd 14.59785274398291 10.933628397504812 10.268256727002141
Pd 9.099957003520531 8.441839460618406 11.864044262406319
Pd 11.585664395636032 11.524246451087365 6.509446236548944
Pd 11.836211537074462 8.018662613662102 12.554096079736944
Pd 8.817583633256858 9.276089743372745 9.403629030613432
Pd 12.55133839978834 12.43588741698495 8.811465120953331
Pd 12.244187654093002 9.854242419872797 10.198247171371351
Pd 13.545221911787744 10.308986664428911 12.688612143171492
Pd 9.102153709130603 11.130419391202187 7.409398851750773
Pd 10.232152496682962 11.5352274360739 9.796642180946368
Pd 6.67196269385728 9.428081255885521 11.028354303323681
Pd 12.550979661230546 12.39102192908422 11.429055869844765
Pd 10.257379740532402 13.495429381670807 7.873291258910368
Pd 10.757991878579821 10.423110802483626 12.262876770406749
Pd 7.19479896331396 11.384205088091806 9.3232619552509
Pd 12.04018240237249 9.64836452179286 14.751423866836307
Pd 7.641181389098138 13.36833134581798 7.7223705264976905
Pd 9.8070368904944 8.433940108724684 14.384981509474871
Pd 11.18857241968847 14.302558975254689 10.244431591952956
Pd 8.268501536824562 11.360008322191861 11.80964307118748
Pd 12.090646948758137 12.203614078356841 14.050958931948662
Pd 8.606055550696404 13.572313351646184 10.213404055627883
Pd 7.530183950789119 9.633820737722797 13.638346655349912
Pd 10.132007184823737 13.129868976628746 12.415091011061708
Pd 9.588789260167228 11.217041837027748 14.39597554068449
