33
Energy = -138.03215379 eV
Pd 9.873585576810035 11.028476319909892 9.687322354660104
Pd 9.865178802453205 12.209937987218147 13.319764243469008
Pd 9.987587766411238 14.64340318900575 14.117855116679966
Pd 9.685614097490962 12.924094161124623 7.933953956716487
Pd 11.431129333781312 10.708509828799698 17.141838761323218
Pd 8.740053966064195 9.780927181008117 13.605359141773517
Pd 9.287214810095886 11.3282036121335 15.748433970679695
Pd 9.653976582962581 13.34108980771539 10.986634085928314
Pd 8.028751878027265 11.354356512642628 11.584985620825073
Pd 14.711082504440613 13.0099031133244 12.142565115331614
Pd 11.17255389979051 9.838470340948676 14.620447435339067
Pd 13.769868218754105 14.492022591193265 8.378485434768166
Pd 11.005533612801777 10.164669502709105 11.951961902330453
Pd 12.699410539797078 11.62080583279003 13.240297951757904
Pd 12.448874136916087 8.241904825867925 11.101627489411413
Pd 13.39132568948867 15.049259752786956 10.96204155634134
Pd 10.626121079181285 8.410134516479328 9.143722490763396
Pd 12.574568394971687 10.190214136134957 9.27591399625092
Pd 11.24459613520097 14.554326141050359 9.252609102615313
Pd 8.964422244042366 8.875168108785202 11.098792071946153
Pd 10.734389455161839 10.400025995321656 7.285872181244267
Pd 10.852598254503794 15.530206090432827 11.702933002488525
Pd 12.266455907181177 12.41237556283411 7.8959591367347155
Pd 15.75873333407476 14.28982405308903 10.10666334143909
Pd 15.391130660056366 10.917671837809706 13.676956864166803
Pd 12.406029593571397 14.205987881393256 13.271831573665409
Pd 13.405799287472389 8.98096911607345 13.472714623496696
Pd 14.135528883211139 10.367444474050654 11.368964385275497
Pd 13.565785833720478 10.648477117092735 15.624501823202516
Pd 14.277051967295872 13.14305855079701 14.828931029749171
Pd 11.590297578108279 12.741829781703856 15.437811181298864
Pd 12.194452322563258 12.56551872641571 10.74950198976028
Pd 14.459218167666231 12.096571609005242 9.442673068159998
