30
Energy = -124.73644163 eV
Pd 11.037149179768928 10.148674984416651 6.281804144142729
Pd 12.890946102089096 11.241825345977038 7.923004411485012
Pd 10.64373220454954 7.545062730244012 6.312066198144073
Pd 9.087812054475004 11.972871210582761 6.763432842667405
Pd 12.680873681860097 8.500321509238875 7.924463646733204
Pd 10.91758422613892 13.429547205093654 8.217932632129383
Pd 8.644671895976193 9.220590146224408 7.063684306179467
Pd 11.510844631287407 5.990564238302414 8.278349205793594
Pd 8.225168178328108 13.552852097419837 8.780511391306828
Pd 12.496139085857209 12.556546095042052 10.20793652631189
Pd 12.373263189714828 9.897756575541429 10.270732834111655
Pd 12.188878187558899 7.246382009158504 10.430800277172935
Pd 10.441846172529479 10.923284859699615 8.702887923425227
Pd 7.773836642275489 10.940749465278909 8.960508240570627
Pd 10.288875849958124 8.301387856056268 8.884760545905818
Pd 9.897435431270937 12.675736169973657 10.630107073005716
Pd 7.680612937791236 8.269092681496465 9.429171765327158
Pd 9.344714630778064 9.810151179999673 10.89216513313975
Pd 7.303420540929469 12.541304503270522 11.097095862877408
Pd 13.530041484671804 11.264937979152352 12.269031027654641
Pd 11.575995602061447 13.137965733334442 12.646329160979748
Pd 9.577269970480389 6.283902079943526 10.343094151075544
Pd 12.920800560747201 8.621679684142274 12.558847038223508
Pd 11.04793542885015 10.515223719177154 12.75257521858806
Pd 9.115594019828048 12.282907043406313 13.138675095393625
Pd 6.705546447922562 9.902393481184385 11.325984840235227
Pd 10.37531677794567 7.903025519322847 12.379444548724912
Pd 6.658629801566223 11.464523309477524 13.4161211147768
Pd 8.593529489182638 9.640186395848 13.479424945046032
Pd 7.809329955680521 7.556348554068088 11.97685226094585
