44
Energy = -189.47895802 eV
Pd 16.27056170570903 11.217438471743575 10.563454446177436
Pd 15.723425338768271 9.555212777689828 8.503985039507658
Pd 14.543483096506845 11.928993132140544 8.566396904199987
Pd 15.819201354968804 8.56904068329588 11.01174398786649
Pd 14.124935468564106 12.745068257277335 11.219041166553561
Pd 14.770536890704554 10.458746408676626 12.754271514187275
Pd 13.194284229039658 14.127727191216454 9.191853324996929
Pd 13.311060278243103 9.782844815800788 7.314495192668209
Pd 13.692865352182082 10.201254231441512 10.371721089232729
Pd 12.024735597685092 12.178989479625645 7.705698224374341
Pd 13.78500642364855 7.801310124435808 9.314449712833351
Pd 12.554728390851917 11.928090701576807 13.082319530970564
Pd 13.460951916564216 7.945145544298706 12.048802681621437
Pd 11.60062258554183 11.95954262175152 10.359837161702194
Pd 10.631793344399858 14.244343013457213 8.902315038155434
Pd 12.759568372998588 9.3734057629311 14.167249270323294
Pd 11.64015216241322 14.270606958988328 11.57484471517517
Pd 11.692112226708272 7.517628147346097 7.60087287913618
Pd 11.479345571053623 9.649320511935798 9.136134553895175
Pd 10.52634815297896 9.958316496477163 6.798829994117441
Pd 11.402475351797897 9.676093910209289 11.875837698499632
Pd 11.41333323985559 7.2351032003353115 10.398075633894631
Pd 9.417358492060554 11.975848070934859 8.139865595338605
Pd 10.92148802823772 7.437756072783851 13.112251284067796
Pd 11.541127887317355 14.001539531720995 14.288980433446994
Pd 11.683694827922729 11.526177405527344 15.481471978665217
Pd 9.181769388903836 12.93741624606491 10.790420285254966
Pd 9.211183599304118 15.590035148767031 10.770033428584622
Pd 7.880565312163474 9.883261061446666 7.748108345473865
Pd 9.3362944406169 8.058609208818638 8.874618744386881
Pd 9.308659315040902 10.377964691484143 10.343819131839954
Pd 8.9471286727153 6.933111898503775 11.2270901563981
Pd 7.941744942888176 14.216909541696383 8.745657759862658
Pd 9.916260642191858 11.589553606938289 12.96643164320174
Pd 9.258303776361661 14.328094371746957 13.065397656112092
Pd 10.196789366988508 9.530788293898475 14.697853109678585
Pd 8.615464684220298 9.024738950993536 12.643745453451725
Pd 7.007779232974609 11.748440399571644 9.451072136043338
Pd 9.31530924270519 12.750859356789325 15.236501932708688
Pd 6.891361817313536 13.93797579052243 11.290257072257557
Pd 7.129284741699755 9.001776113678867 10.340890176414627
Pd 7.224685973066869 11.240709630602787 12.038394422083835
Pd 7.8064851514386 10.634744109508691 14.597640471209235
Pd 7.030756981747967 13.116691264229024 13.859448489556485
