41
Energy = -174.5944937 eV
Pd 12.517435063726262 6.602088362643829 13.424493549065422
Pd 12.123402991116384 8.048522062039778 11.17426182941975
Pd 9.516133100186181 8.727150821540716 11.367515314426408
Pd 10.005283805413821 7.158897446640588 13.34127478285546
Pd 12.216288832380817 9.810166630081106 9.05112881224774
Pd 11.60271233227526 8.817922954435982 14.657659543367643
Pd 13.917697068432977 8.759653678910437 13.18373356568329
Pd 13.947640593562586 10.104910827968766 10.942598294366631
Pd 13.060941108855982 10.159349040263377 6.507188579918991
Pd 10.49208220275663 10.372873874118879 7.025230004768856
Pd 11.49617840157963 10.255205623623848 12.476225552572181
Pd 8.849649276961435 11.278513191992142 11.789225111931065
Pd 9.33334367534816 10.37446874799359 9.392968488175278
Pd 14.496344130238935 11.110350955780444 8.54050288617783
Pd 9.079115595632764 9.600844042686495 13.889699553171955
Pd 10.38624947048952 8.018078791697205 8.951713344262775
Pd 7.925397121856926 11.104547416993267 7.278132585192109
Pd 10.709617951118362 11.306014487558697 15.195988821889873
Pd 13.283697553974552 10.924453374039437 14.636814995665771
Pd 15.510703122487305 10.806208269918328 13.06621641090715
Pd 11.333579521545998 11.950503149601678 10.392077993696352
Pd 13.338536533478983 12.353494257034535 12.344240738211575
Pd 9.80049400214196 13.856342084461296 15.567510566357114
Pd 9.658609298431385 12.832582567297816 8.233786472197343
Pd 10.686082778133814 12.833743526504115 13.004497180787636
Pd 8.274368863186504 12.112563688630773 14.235164798503835
Pd 12.21690235267357 12.33023296911799 7.768788128407959
Pd 15.799193035808157 12.032055980582514 10.612088406114024
Pd 7.478950781386824 12.280962750310257 9.640574905127139
Pd 12.390720738508113 13.405454981290417 14.999370221032754
Pd 14.975684367867743 13.097750664530825 14.370661223884156
Pd 11.42885784768559 14.54727097283656 9.04177461159953
Pd 17.065887782385413 12.920145921433985 12.758088427041445
Pd 13.64606453183407 13.355603504233077 9.79251344115124
Pd 9.440064168564815 13.918420769809899 10.774430880212261
Pd 12.101413974593537 14.683249176218663 11.607391543231342
Pd 11.088849466517157 15.5650913753729 13.935366593049746
Pd 15.070450498887688 14.328802717226758 11.790065370771968
Pd 7.046715323012125 13.191095713915507 12.048899988748976
Pd 8.76651926103238 14.715781467699758 13.244958640667816
Pd 13.644710302616572 15.317309590387422 13.705056026422236
