45
Energy = -193.157606 eV
Pd 11.770992488387146 14.601980828247857 9.802388778139935
Pd 14.275822521841233 15.383826169472213 10.003112321657602
Pd 13.858787251451188 13.032411868912188 8.763935512908978
Pd 9.575432770973277 16.128748763030433 11.940313883047086
Pd 12.230404250543405 16.203646663103093 11.848828511713045
Pd 9.17736893467968 14.798383339944243 9.763027255579432
Pd 11.457124455067753 13.088066518798541 7.743977253542307
Pd 8.849237735837804 13.441396090191649 7.574742201853349
Pd 15.756824115878816 13.199800037695367 10.583318006692497
Pd 14.621017812149843 10.742635687669862 10.013560274288785
Pd 9.39464323333061 14.767527353808404 14.240839921816432
Pd 12.57014384064196 12.191809619310892 10.962030105099355
Pd 12.340578614193609 10.70464325103664 8.663326339613038
Pd 13.855246668965261 14.163646543235808 12.307588258683355
Pd 10.928392958661425 13.827040353722904 12.309638237897783
Pd 8.276220532213653 13.653176162077575 12.039749971798907
Pd 9.934374794304938 10.944292607091656 7.613645798492129
Pd 10.040925811788256 12.260927102291658 10.112476819617157
Pd 7.449153374303652 12.58278362831723 9.757801742586691
Pd 12.20061312439469 14.894865068093345 14.359536174712568
Pd 7.305948367261605 11.223249777596228 7.53030247785008
Pd 16.930030604561985 10.704487442895772 11.216339253901108
Pd 10.618573537825686 8.511968805457593 8.594376394681241
Pd 15.630980122161823 8.362897312790539 10.386018924567884
Pd 15.081292715159657 11.857567061054947 12.7074992670575
Pd 14.694255785451572 13.517487555154064 14.810754937809408
Pd 8.42031649553926 9.849599206941434 9.459696758060494
Pd 13.035681619526704 8.498982010547909 10.051519903820534
Pd 7.990410683175151 11.012229198106768 11.823801917982623
Pd 10.746236545272042 9.829417148421781 10.826344772003033
Pd 10.43617535786991 11.293597673849847 12.96820812856826
Pd 12.702358226454642 12.202177379763667 13.889627189167653
Pd 12.978796247759416 9.977056824842052 12.325244352809884
Pd 8.338914721530765 12.195680911316412 14.31772967918256
Pd 10.877306281937065 7.142660451082147 10.972432311377602
Pd 10.759758839380778 12.876577544874856 15.399759922236498
Pd 15.415605839341625 9.172552782323848 12.825929980664277
Pd 14.796055819702909 10.682565160664469 15.025150491851806
Pd 12.959584241766544 7.435793878856304 12.625585674878373
Pd 12.314015264893346 9.784352260145779 14.941048615599993
Pd 8.136391132663368 9.511778536262153 13.963273773286748
Pd 8.546077172400945 8.341383940751138 11.592725629441757
Pd 9.94286165107332 10.400490692809303 15.615620545621374
Pd 10.592108109212635 8.568393329286224 13.353250462909669
Pd 14.222069260984375 8.063239634619856 14.871242029731974
