49
Energy = -212.73786717 eV
Pd 16.708833963006064 8.823026160527675 13.747006537299145
Pd 14.069707708304385 8.405122368720034 13.018102469835835
Pd 14.783098722309479 9.291622673205564 15.43648883380452
Pd 15.9567780471536 8.888284978790685 11.196962473585735
Pd 12.209109453326917 9.13749094747686 14.813085658432918
Pd 11.569393578165887 8.818788819086306 12.181751355609835
Pd 17.629001778954247 10.81111885070793 12.277231603239656
Pd 13.45109558983149 7.8055979334658465 10.39613584358448
Pd 16.32689092720786 11.512709133920449 14.823839039181015
Pd 9.7151793931077 9.298294330140477 14.083042540857496
Pd 14.93909797348488 10.88319504509569 12.791623596134343
Pd 13.59132948794607 11.576645854391343 15.495484422250433
Pd 15.511264265048673 9.427499619647005 8.694960162118173
Pd 10.915705310923975 11.285703060790748 15.775777769911283
Pd 12.385231212084786 11.207131348218422 13.12616191462403
Pd 16.031295808996838 11.505026380571124 10.24736595163942
Pd 9.11653084923628 9.768098698259248 11.492483479884473
Pd 8.25590682549323 11.002688590277199 15.57784442849741
Pd 13.000351580746331 9.300295847146348 8.027046620757494
Pd 10.95851044507653 9.087495725406203 9.64150672293841
Pd 16.447829665834664 13.136542085611568 12.259002221823076
Pd 7.209267184310922 9.80712961250958 13.328749177270659
Pd 13.508766919909332 10.356356124253457 10.600181583341284
Pd 14.509626992197022 13.538585939986843 14.015126124489234
Pd 7.366431673971797 12.405244600618246 13.528746270740102
Pd 11.402718557825901 11.396070519387946 8.045890437369103
Pd 9.92292197371282 11.807708887818352 13.31084295137179
Pd 15.203428340478254 15.422746205706925 12.150523422740248
Pd 9.266959713109577 13.495057370277987 15.333063243022764
Pd 12.806044576321376 15.48073533500553 13.19698121276384
Pd 13.58735845419662 12.975742561842443 11.535622562070879
Pd 11.879456103740043 13.446565132192573 14.562153888122479
Pd 14.120371659459353 11.779374694419417 8.467596373359351
Pd 11.204767046198523 11.507735873000323 10.70700232032376
Pd 10.527027731924248 15.737706015566449 14.453479255422534
Pd 11.073365152931094 13.941051858678346 11.711520609473721
Pd 6.73609823740653 11.094400279390952 10.98546542723588
Pd 8.899972373437834 10.828426744034006 9.028108898699095
Pd 8.801086545091264 12.591902807869301 11.143623711043913
Pd 15.134523999468517 14.051964007089877 9.767761149282277
Pd 8.688495916666621 14.674687258936183 12.959510867445257
Pd 13.10704912817329 15.728756721157986 10.568931146738548
Pd 12.434756443621184 13.629127975195546 9.131032145886557
Pd 10.583999426048017 16.471296148592725 11.82478425481912
Pd 9.840915739167924 13.369569497235503 8.81585028528833
Pd 6.4668709049327004 13.918971977971477 11.523384051051051
Pd 7.185120805542916 13.035087579281239 9.059294124542268
Pd 10.868461083297687 15.800330248207365 9.25517945927317
Pd 8.55212991360447 15.195424755304689 10.346826583790447
