40
Energy = -170.35463898 eV
Pd 8.799647359095285 9.150023063361816 13.96907129053194
Pd 10.398556585925771 11.280613291418303 14.628101530555393
Pd 11.560845406657165 8.796449471924541 14.07684525922646
Pd 8.309914795486057 7.305764278789163 12.005698932436468
Pd 8.477132825125757 11.694362033237262 12.899274941660165
Pd 12.822318952398243 10.656286740302809 15.637391999203894
Pd 10.998250755579818 7.429835168004605 11.877463715544227
Pd 8.551535168176507 6.830544793728017 7.882682433470097
Pd 7.280867201924823 9.662525499342935 11.667375720839795
Pd 10.119824443931094 9.888208985360516 11.870817717026235
Pd 6.824248417278228 8.069034800288339 9.653855042932245
Pd 10.502213694072985 13.479466074427593 12.925301577046204
Pd 13.24233056460946 8.745596003366456 11.65764442431783
Pd 6.391409936556705 12.120933032847 11.310024232376318
Pd 12.410685952772996 13.126963535027361 14.726553948802632
Pd 14.2634716143232 9.197967430187521 14.025996304972974
Pd 14.64437138903871 11.901380760873728 13.708356899299313
Pd 9.470037813984439 8.277591232253249 9.859370032097088
Pd 12.334953858108932 11.033244487658346 12.843324952000879
Pd 10.738010105414432 8.41804020422435 7.46333679895475
Pd 8.588197613601745 11.151414014374536 9.864946479392367
Pd 11.784723066612996 9.536358836315964 9.653330673256718
Pd 8.665257548725897 13.69105420910843 11.057989230465259
Pd 6.188586003506609 10.657595148177665 8.97548552026138
Pd 8.201590036892613 9.37526881833136 7.683976548540243
Pd 15.439668894520302 10.202278189259548 11.789316218696026
Pd 6.926266891150236 13.325240243349503 9.024542501214503
Pd 10.883710050763518 12.088217209069706 10.70292178830253
Pd 13.104549446660535 13.604653806460174 12.16764340288758
Pd 14.586788439600518 9.422533709232036 9.361602993956195
Pd 13.421225056300928 11.468111690192908 10.509953450720634
Pd 11.241214258768565 14.626158282412606 10.435457420102832
Pd 15.550038157905034 12.804946301986941 11.212071434710149
Pd 7.97568351793442 11.892225947854149 7.101280950706237
Pd 9.629757336563463 13.46085900858728 8.53462164982657
Pd 12.952733990561693 10.306954051906946 7.399873372438399
Pd 10.379778406524228 10.983475051928446 7.875254194644159
Pd 14.882271063839216 12.018944097588768 8.467156481957678
Pd 13.877501615806715 14.311790871314026 9.727259544602703
Pd 12.24241341545872 12.753925770981546 8.416938827225676
