44
Energy = -189.51111676 eV
Pd 6.830484059684414 11.424631827833712 13.641020497125625
Pd 7.316893183456288 8.991173499182391 12.67048244840795
Pd 6.620155437654483 11.219944874165476 10.98003108019796
Pd 8.693551921865568 12.938151159610102 14.788029755936517
Pd 6.147433149995433 8.768841244624461 10.228152031222947
Pd 8.149840028250722 13.079510528962711 12.10325752531817
Pd 9.940964238715383 8.198685624746009 12.765337515497253
Pd 9.188961205110171 10.30845560461624 14.189430217766127
Pd 11.0862643558081 11.76040087756402 15.46852837673109
Pd 8.205790408366346 12.7766186880113 9.451181747918543
Pd 11.671265948067614 9.367309130081777 14.489214126693504
Pd 9.66015037347384 15.021925385743199 13.305141306376568
Pd 8.446765070051244 7.679276515561804 10.607176165620695
Pd 9.149571914197526 10.547210934555073 11.557679584990614
Pd 8.25598094511469 10.084788034769163 9.125008915665155
Pd 8.690603275986199 15.194711015864435 10.701670862104917
Pd 10.76060982217852 14.354585107894643 15.622453899185658
Pd 10.686242679240763 8.908381852377234 9.892080354213952
Pd 10.665503198526796 12.442485271808938 12.907663728499871
Pd 10.700076564427045 6.379439783035943 11.00210442399755
Pd 11.879618117944137 10.172637577370324 11.985345773313972
Pd 10.672835250025724 12.092871517710908 10.031137947477955
Pd 12.431316969367796 14.354129816638807 13.640189148200108
Pd 12.543123870377668 7.62175844786867 12.516048009010763
Pd 14.283632278293025 9.150076050909895 11.043392287237248
Pd 10.475526960246892 10.581581975862079 7.807556778633174
Pd 11.179479803573575 14.618811100576396 11.180659920077685
Pd 10.280042061815788 14.338071080023362 8.676797342893435
Pd 13.244587744557816 11.750004340464542 14.003161690318615
Pd 12.976279980515963 12.55682421874368 11.465113738877752
Pd 14.240958355057023 9.312194208690002 13.700127139586348
Pd 12.764340906385215 10.629949321295253 9.373871340662543
Pd 11.856987506031631 12.733934557466217 7.259511790112397
Pd 11.960591764630273 8.284444534724502 7.603416355917937
Pd 12.858951498230919 7.336830377862552 9.848101673911247
Pd 15.006296655258755 13.699578102258991 13.139294260803986
Pd 12.93425162228306 13.980853150829061 9.246486543660435
Pd 13.753424035379943 15.261937434268798 11.423350680507935
Pd 12.976910243335771 10.466283637977583 6.540320000292879
Pd 15.21778940491446 11.259001964733578 12.1983027561893
Pd 16.002571736692158 10.732560817919744 9.697920032830242
Pd 14.479213378858615 8.963727175857523 8.34729190117316
Pd 14.439880311161199 12.096608294663698 8.070894558177223
Pd 15.323539249369961 13.245879775344148 10.383664470310192
