48
Energy = -207.39667239 eV
Pd 14.223626033541027 16.363532651617305 11.538896022992665
Pd 15.812082262516194 14.365809991823843 10.691250791361485
Pd 12.219321271773088 15.666006179107642 13.071129892910548
Pd 17.64557885337588 13.619160782653603 12.299506024510118
Pd 11.734321779615962 15.921152989276397 10.439025203115756
Pd 13.957735351401828 15.268103818880585 9.103772028616145
Pd 14.280437433952756 16.845126966132216 14.174589087987163
Pd 7.357727586724692 14.887544505118711 11.699850129666252
Pd 14.382048481082483 12.590741533272478 9.307369073969738
Pd 15.287030465765104 14.548832741451116 13.437843009031807
Pd 9.26583116202418 15.048876477640265 9.763366315208788
Pd 9.706804905706383 15.934713079846414 12.308074116544283
Pd 13.109756858709877 14.725331868729459 15.401215891635971
Pd 16.823692181897517 12.512821513063415 14.507794256192984
Pd 10.48628878975669 15.286764276112814 14.925104324661497
Pd 13.851886780357948 10.113560372143136 8.551313765977596
Pd 11.462709518536885 11.165507891716913 8.015743839737784
Pd 13.235140656499905 13.760414805426914 11.511762839736324
Pd 11.816561294181964 13.659831089784353 8.97338014658479
Pd 17.556632783983144 10.97092465406972 12.281041675725335
Pd 9.396313540535012 12.776188714041517 8.4211694932836
Pd 14.218842247222431 12.430408614608414 14.749356743277895
Pd 15.931849113064795 10.561986629467158 10.17192793261359
Pd 10.639417955186959 13.497850424655272 11.436870840719928
Pd 8.214945229455509 12.608920603496356 10.772400465347202
Pd 11.627966999274609 12.987178546915288 13.880208911503992
Pd 12.256224535894363 12.349594823742944 16.470528787045026
Pd 15.1691440717218 12.151309958768426 12.114100363008589
Pd 9.677215019051662 12.96372442933389 15.952502955272667
Pd 12.963919417467949 10.82544643195969 12.952304537668917
Pd 15.569179106200007 10.228884515380443 13.955121900761833
Pd 13.913393879244804 9.16436272970419 11.03655632295912
Pd 8.891833865792684 13.669447662923526 13.514231572237378
Pd 6.5354690144256855 12.520930175199018 12.776135871938008
Pd 9.575572725596906 10.56534278095332 9.922953953394803
Pd 12.223497148930225 11.376927604639512 10.55027224499079
Pd 16.337882170141317 8.596548514326699 11.991191262778639
Pd 10.280131783181377 11.018546762155182 12.498550293743943
Pd 8.243669306188742 11.321102745828453 14.397179274423374
Pd 11.648569662265999 8.919117738490328 9.557586180334399
Pd 13.277440115855793 9.94553300733773 15.421666585741052
Pd 10.700594281192881 10.62964364515791 15.150723599419335
Pd 7.767263429888884 10.21274789957389 11.987405118516804
Pd 14.085336979298415 8.126354721298396 13.45971572122957
Pd 11.524688621721827 8.672301778565238 13.632846574141347
Pd 9.84250741058853 8.474490096598773 11.52162579934193
Pd 12.228173175917158 7.221726759100111 11.566960094816784
Pd 8.926954808446544 8.811833563067323 14.019088228479267
