42
Energy = -180.82651904 eV
Pd 15.684485956100852 11.915114602755034 10.116936950845846
Pd 13.096748869149344 10.013040437295075 7.606447244789452
Pd 15.368992291246748 10.198595116712701 12.26477945112928
Pd 14.421004521915437 14.153191433742993 10.596965970830473
Pd 13.935614689809212 10.006434458938186 10.019794489276913
Pd 13.375853052071756 12.489186335383542 8.699269615451113
Pd 15.696899259397533 12.936052722292146 12.616040185922168
Pd 13.91534779215524 7.961171529598063 11.742841660074
Pd 13.148217988279464 9.784352170373518 13.725482572860253
Pd 12.422255899721675 8.004979180416576 9.252247292283187
Pd 11.35413835801708 11.284627265437376 9.837176348439426
Pd 11.341821046169539 11.814381275463145 6.940593502444518
Pd 13.911424108342167 12.205120104079004 14.433090474951053
Pd 11.769317986448824 13.722894980001026 11.195485042418106
Pd 12.973406379907583 16.30216247802939 11.23506049363446
Pd 12.7390110528518 15.173750604445088 8.860670768424015
Pd 13.32686089087773 11.812066103698161 11.85471906913875
Pd 10.67096069751277 13.738381924444427 8.52377336568593
Pd 11.701624726198492 6.385703137179961 11.198373782756397
Pd 12.14408467101781 7.329331339168384 13.673972771340281
Pd 13.57934076361955 14.537512577180637 13.156246257806618
Pd 10.508340592914239 9.474508833996799 8.025265898607916
Pd 10.315488672693858 15.684059537641309 10.430780031006579
Pd 11.17758248685979 15.761610149304238 13.10240271139094
Pd 9.037876655664698 11.659746662857183 8.272754162716513
Pd 11.546522934103502 9.187147694330605 11.558544785313607
Pd 9.813138189159249 7.799028082104064 9.909958283945478
Pd 9.692501395399237 7.402186417522545 12.645848677770541
Pd 9.087849361371317 10.270229674566993 10.940464752787722
Pd 11.469139186286732 13.405789753876768 14.267585682694058
Pd 11.740536504664746 11.174684193618209 15.553229722614727
Pd 9.205624202190574 13.063128132517786 10.560235868946144
Pd 10.728813051784483 11.571662071629811 12.533218180054032
Pd 9.243094437209583 14.02762506351484 12.935984782555952
Pd 7.795395556456022 9.324362516933363 8.909180962199365
Pd 7.528765016267991 7.751205269771832 11.176939328353077
Pd 6.935012760677896 11.927130791329782 9.75494686083922
Pd 10.505903835287237 9.366668428489247 14.174651770304326
Pd 9.204834782015384 11.723607579065156 14.602881026578789
Pd 7.599016109219864 12.036651998933946 12.431424013883365
Pd 6.218072687623394 10.004026321512034 11.345330286880113
Pd 8.056126998030413 9.511450068586099 13.226340025022369
