46
Energy = -198.89499061 eV
Pd 11.805154986393669 5.4935657074987825 10.868535202959592
Pd 12.71595946113166 14.148873715964449 9.901649041266117
Pd 13.850325523912497 7.2817600481105 10.528238409572172
Pd 7.521159610462855 14.453781976273701 8.171467399499114
Pd 6.598042178464976 12.085627725542961 9.212623161580957
Pd 9.833282383177663 6.0323673401929 9.064817204964188
Pd 10.863816867756361 10.3268438780473 8.988416654310047
Pd 8.272571222796566 13.70473087687379 10.690929238921171
Pd 7.387513885006367 12.200535173418617 6.552718240914454
Pd 9.541723436377497 13.905919266238895 6.392025171801313
Pd 10.614588845836835 11.08767584130278 14.890711465337196
Pd 8.002889517805032 9.94861055503201 7.91519591277119
Pd 9.890669061789922 11.024223586974129 6.356108967778424
Pd 12.202811382232754 12.040460639526374 12.803487012393592
Pd 7.880123471216864 8.88913614852183 12.28480237897653
Pd 6.354380630322009 9.577095553087515 10.126369969263955
Pd 11.266039225061654 8.081512459031023 10.215207385653496
Pd 10.185369937198217 14.790996039184426 9.044950688100364
Pd 9.169789058658253 12.367484620653439 8.537155471883858
Pd 8.133352355588185 10.617879566081 14.199691402315171
Pd 8.693513264627054 10.832030540744904 10.555556551046188
Pd 14.354141493476206 12.482467972948308 11.213703795922715
Pd 15.291887265009835 9.90354432240357 10.539176175697934
Pd 9.335545540472381 12.513979019068058 12.790732102968665
Pd 8.841298683715905 12.95920549050698 15.318114227439827
Pd 14.728527202860723 10.905334135435613 13.230127321312047
Pd 8.682790215826724 8.265925610922238 9.752064665782143
Pd 10.457204281998107 9.926052037593768 12.17422129401262
Pd 12.548359670208313 9.53945963220908 14.09259915449776
Pd 9.590500973014663 6.85771156892917 11.874445061948366
Pd 10.430829325642348 8.310521142872968 7.456278508378029
Pd 6.790807421203667 11.678285852210463 12.03847189289412
Pd 13.158586653681205 14.472267683780478 12.571256168821602
Pd 13.467202665821928 11.518566203074641 8.984797937993923
Pd 13.297985876442574 8.924039717477823 8.587498547391672
Pd 12.377964442278799 6.461305298102652 8.349191607859925
Pd 10.616674173967539 14.645097178778608 11.740028839333293
Pd 11.15855760540666 13.892607224139768 14.351476542178734
Pd 12.428438651286026 10.486884305785885 6.72221253587531
Pd 11.627153977683957 12.892415723285685 7.713320524766805
Pd 13.102174745437196 11.949537940863756 15.228594391072079
Pd 9.91812742320377 8.421052945438433 14.181165263411897
Pd 10.993340622872756 12.322158200129335 10.561240595120351
Pd 14.585721154344519 8.322580174017007 12.785845711038114
Pd 12.870005219806458 9.977273560607133 11.23816844031909
Pd 12.055609217797562 7.431517142068426 12.70711501719388
