41
Energy = -176.0413443 eV
Pd 6.887021486522948 10.44880817577526 13.298786180688621
Pd 7.913766712533533 12.756711841046885 14.217816265410159
Pd 7.509731604898836 14.539505480974391 12.235304188182853
Pd 7.079558564359034 12.149323333897952 11.310541639385761
Pd 9.147622949846397 10.286208135919006 14.615293892998187
Pd 10.454092807144583 12.605406754067323 15.201351239965861
Pd 6.7449499697845665 9.59575377588104 10.7210212616238
Pd 11.452209521792794 10.118845712782642 15.884622829595397
Pd 9.520838245466953 16.00733840044275 11.135027360495888
Pd 9.979455616298885 14.309090920890052 13.160187831021128
Pd 8.968459249719967 9.157930623022096 12.156485770749038
Pd 9.511471135444808 11.753603740490021 12.422176519886468
Pd 13.072708138343158 12.202946761661678 15.87895818382013
Pd 9.164575028629972 13.477297698713295 10.299030201197299
Pd 11.987452344477228 15.776920326552967 12.069393600371809
Pd 8.910019774742759 10.880388715773835 9.749982202898476
Pd 11.27814657966482 8.927519943084068 13.51649618178421
Pd 12.043223381572956 11.431284977216135 13.364767566197715
Pd 12.518951635593838 14.008661584732186 13.998023828953656
Pd 8.831163966661176 8.201558871988425 9.677580675901137
Pd 11.72185040071631 13.198923671876539 11.323455562135406
Pd 14.695605589783218 12.344329268066625 13.82321064847213
Pd 11.24584293455112 14.908703846021583 9.415169566269562
Pd 11.36063203372684 10.509055171894651 10.903741650240706
Pd 14.237129928047441 14.250401235680371 11.96527770030003
Pd 13.787675579687587 9.789460884763065 14.454861120218238
Pd 11.05328992255587 7.884771473527903 11.065138599408106
Pd 11.034795089009505 12.252230967899713 8.735869482371562
Pd 13.643260214123597 15.91719176287011 9.993932478448738
Pd 13.407331810205182 8.893425713340005 11.908483063331527
Pd 10.883567560878527 9.489091687684914 8.556073877320728
Pd 13.925499273181424 11.537700850048674 11.353220358550722
Pd 16.422499520250476 12.617676656775512 11.856652876305194
Pd 13.472497517624955 13.346271096197594 9.201247328650991
Pd 15.747408761409664 10.079369619088611 12.662293988196337
Pd 13.26460969276614 10.711537310143694 8.848704042481186
Pd 13.064279156554191 8.116389047698911 9.37623745158495
Pd 15.870333033039069 14.378182161045432 9.881693038870015
Pd 15.342899385708971 9.255322053896508 10.041679273241291
Pd 15.691266576412872 11.790920042490418 9.357547587840351
Pd 17.552661462269224 10.475653377718968 10.746866329396648
