45
Energy = -193.78948564 eV
Pd 9.208453630763254 7.425629803807451 11.456522614805996
Pd 10.482242613049847 7.661321333317504 9.132516674838884
Pd 10.485087286858022 8.039677058171568 13.696510077785508
Pd 11.922955170801453 7.362675667805439 11.353627827168692
Pd 8.817049836597388 9.587331580496253 9.964552457980123
Pd 10.537752871814833 9.942864493748614 7.8004091904752
Pd 12.549014082092963 9.342858514406439 9.496721571963617
Pd 9.807333021162048 11.73503442107695 6.134088141182115
Pd 8.51193878376645 9.759139156171125 12.733132079689353
Pd 8.513085207296399 11.85365794045221 8.449859994212988
Pd 10.74549142001267 11.571116294458859 9.851966874919734
Pd 8.35167529145264 11.944565141064034 11.153422908807245
Pd 11.926296271757987 8.776541770098765 15.813210238273111
Pd 12.836061210082153 11.691036019356204 8.19029396147928
Pd 12.253205234107343 13.607620955906954 10.200620332484055
Pd 14.102580067831486 8.916414657939503 11.614972273619095
Pd 12.625252758829605 10.22884681264996 13.66395405833053
Pd 8.340450611950493 12.202095676239745 13.798101915427816
Pd 10.938893162910881 9.780488910329959 11.69553790184012
Pd 9.470482537876872 13.996545355861791 9.88371556223645
Pd 10.863249929808212 13.444344238992246 7.702744339645851
Pd 9.131653636596786 16.46649271897265 10.664123121718989
Pd 13.138640612001337 7.601218178534332 13.75237449196982
Pd 14.832908829340017 13.249164460700461 9.16669803491025
Pd 13.227197332212357 11.495145267984954 11.377673808732593
Pd 10.82124428801973 12.41155986227743 12.489616739955046
Pd 14.891877266949766 10.561036607330825 9.554651895371876
Pd 11.285709903769192 15.883971408006857 9.135788842116249
Pd 9.7495526818751 12.84650351994728 16.01329866562857
Pd 13.889617672897344 15.500156730576895 10.632554540096551
Pd 8.2180362534121 14.631499939329894 14.904770085918148
Pd 10.179592114834525 10.52455565420622 14.703459016449292
Pd 15.147614777554146 9.394820144885303 14.104260086627223
Pd 17.001856184641696 12.15786885751082 10.079983382209765
Pd 8.763777788434192 14.423774770043511 12.346023255506434
Pd 13.210200356298666 14.668934318166428 7.807220630078543
Pd 11.367399830546727 11.049625592513326 17.094664804434405
Pd 10.772749430763772 14.570816000468273 14.199412851801021
Pd 11.264666478987804 15.51274575470033 11.801769331292531
Pd 15.27369533691 13.373244280868338 11.718345376826758
Pd 13.077995340487867 14.001289374251112 12.923376842622089
Pd 16.018229333262635 10.779208841463525 12.041364454588372
Pd 14.665621843003311 12.099825396096946 13.965576104601695
Pd 13.825349373107105 10.64277140246652 16.083416095396224
Pd 12.230500481622862 12.524390198439507 14.997196701416087
