45
Energy = -194.72034524 eV
Pd 13.611161169213243 9.01430704541758 9.80965667442323
Pd 11.24848534204427 13.03923633198031 8.462450203067823
Pd 6.829822325326844 12.114412680208801 9.965455582948566
Pd 13.390394862199507 16.08301718493278 11.179310915923635
Pd 13.65083801247945 11.551808759074342 13.954208174117461
Pd 9.131351551097447 8.897640630509612 9.91454842388301
Pd 6.916286631297711 9.711760914097214 11.308980033544588
Pd 9.086902731183304 15.971913982342024 11.307542089325507
Pd 11.360765554982104 8.295313297942208 8.495017362441418
Pd 11.221065666795852 15.319772563598612 9.858979944601398
Pd 9.084998429624907 13.749489768937737 12.785048315690375
Pd 13.4674539915351 9.216842288018945 7.145750469942045
Pd 11.460046022691657 10.680592924874489 15.309527113024384
Pd 11.3097676737455 12.997182328738054 11.251352230744155
Pd 9.185306041870362 8.880255236235994 12.554693268167652
Pd 9.040789437092455 11.463226254357947 8.494690101120435
Pd 6.888416557107602 14.367417999967733 11.35383116956639
Pd 11.374317126105328 12.990121188162755 14.030759994480428
Pd 15.843502943477807 9.923797123155934 11.106776026009797
Pd 13.508588448577752 13.859947530756784 9.710724131412764
Pd 15.825944411749708 12.321474558523578 12.516960817135354
Pd 11.392721020617804 10.612744830142017 12.589476169838495
Pd 9.074695661887036 11.361991406692512 11.281190659312156
Pd 13.615896751382104 11.477166286962397 11.172450564090044
Pd 11.294530202628277 15.313404676202955 12.639265511131661
Pd 11.416742164449511 8.203730798338382 11.204617202216085
Pd 9.014917873963256 13.752128828347816 9.836463002640397
Pd 6.893664496126449 12.104632053308476 12.723227307132964
Pd 13.700852032301073 9.125771999337847 15.138815992600497
Pd 13.565676524225692 13.853195598894597 12.654312161164928
Pd 11.336665891146515 10.629859902976891 9.85736866972102
Pd 13.67210999117424 8.99399667706764 12.449384848242174
Pd 15.662730867152769 14.58526005706826 11.139043598376402
Pd 11.274299138984022 10.71570974624852 7.142750909053607
Pd 13.53305568258544 11.57890370895834 8.377716152517914
Pd 9.162556316256708 11.443728147617758 14.067193114018744
Pd 9.154173346769468 9.109091957126235 7.249831474034059
Pd 6.933543215325825 9.810408300122095 8.663880648005398
Pd 15.711475046276284 10.023506417457579 8.465452411525003
Pd 15.771863977579676 12.328494716582844 9.762967051050568
Pd 11.482593575937692 8.188043979926052 13.841286920421714
Pd 15.809045656544601 9.962578381392227 13.762679091370055
Pd 7.0791314537391345 9.761386892258486 13.962984046177688
Pd 9.295258708133206 9.025487345410145 15.250209877028537
Pd 11.54861106430934 8.326298267322606 16.455476079446214
