43
Energy = -185.5615317 eV
Pd 9.987636574882044 14.775885316863747 9.759927229544012
Pd 7.826491617835685 13.692366853427213 8.512323216727276
Pd 10.23815744783112 12.683563473134422 7.995005816114529
Pd 8.109118244103545 11.086710361352434 8.217779222610279
Pd 12.416753422677827 13.99905412096644 8.617395036861598
Pd 12.23355448193355 12.365961004424246 6.397531254244883
Pd 6.735590493762154 12.014224056750646 10.312738150062252
Pd 10.110412611674699 10.4509262749552 6.5352273915453445
Pd 7.575217340618825 14.421051363210614 11.082565274684281
Pd 9.785978868010792 14.217672085132397 12.464593171621296
Pd 12.147069448141206 14.207991538617671 11.236631708186623
Pd 6.262288432838978 9.581545371412096 9.342098447445375
Pd 9.448027617584668 12.28831124859585 10.482428157551633
Pd 14.361681018143111 12.094558032566097 8.118010956456196
Pd 8.495831375805352 8.499559605585356 7.920837942906769
Pd 14.5264851594507 13.60434765018058 10.303258438868749
Pd 12.629105441865018 10.134840497589991 7.648461471103042
Pd 12.262227569081883 11.665114744878428 9.866170353459848
Pd 11.088349968036466 8.03024326035037 7.090132625320391
Pd 10.331597051373802 9.934224350822946 9.228271563176706
Pd 6.776013783036368 9.97298506926883 11.981079649649446
Pd 14.980056165212527 9.54007047502874 8.773526486048523
Pd 11.944172664448846 14.23651881488676 13.917622628323464
Pd 7.963500718899041 12.274777682141458 12.744949477855766
Pd 13.890191791570334 12.760584038511505 12.750524449225377
Pd 8.043518817376706 8.059087004019998 10.518918340974285
Pd 14.587825279379226 11.016262324988654 10.858535007632543
Pd 11.375460174494165 11.843877461987255 12.342855125661448
Pd 11.952050101864778 9.327249878597202 11.320352276391612
Pd 9.431366620717496 9.979884143988407 11.753788523959303
Pd 12.8234440844858 8.058984347084262 9.122951902414018
Pd 10.000777554759184 12.352830323265568 14.51299756787837
Pd 10.35519441520459 7.231183242700799 9.534457177778618
Pd 8.511072250193548 10.085324496985786 14.200434018379157
Pd 12.665253331787627 11.881494517475168 14.961207147996001
Pd 7.70817140256282 7.75116801418445 13.14336303692536
Pd 14.401000435088612 8.356678644817343 11.300993906613972
Pd 10.109957434701093 7.384990180925426 12.13597677306256
Pd 13.683934274020164 10.129648806129664 13.229355234240707
Pd 12.501135400179628 7.717153534971152 13.48816359856551
Pd 11.147991210218445 9.886332624190457 14.155918236049162
Pd 12.382969305872551 6.439691555236812 11.138790728811749
Pd 9.92036066990355 7.692063679425957 14.708843348700668
