45
Energy = -193.08577406 eV
Pd 10.738466198106796 15.687352224801165 15.941792878468007
Pd 7.516196408167111 12.381027845111452 10.835367692123613
Pd 10.67385437192986 15.818729825502825 13.326368645397201
Pd 7.34203080694565 9.891145310283814 11.871613679815932
Pd 9.828393578229425 16.371894342617775 10.894881991193051
Pd 8.860066414180553 14.18657599170327 12.149429036353787
Pd 8.57800195228014 11.851195142216364 13.359622007838125
Pd 9.019192340284063 14.064278323728812 14.776316395047273
Pd 12.734185912979024 14.546414188662775 14.649441897275208
Pd 9.17720607988704 14.165373553538247 9.533369324342404
Pd 6.5994176188931135 10.401192216166807 9.390486338865877
Pd 8.142273604423142 9.465163777111037 14.409379690057005
Pd 10.924133767864221 13.043886233242203 16.251744606954688
Pd 13.153220332005912 15.783777908810485 12.28970709760324
Pd 8.593433996843093 11.939406913405222 8.355449908506431
Pd 9.067014022941608 9.643653161746798 9.716468101313634
Pd 11.606677119396217 13.7582555045599 8.562712123111814
Pd 10.523919638194954 10.709816841278236 14.980011692764833
Pd 12.093092442375545 16.240768351463704 9.650090971620456
Pd 11.447827616485393 14.134530415323953 11.20937189302192
Pd 10.133267923823986 11.83904411249045 10.908127091554979
Pd 11.04983070340455 12.907453802212151 13.460080353773407
Pd 13.023462538701905 11.925572651522888 15.199416906708377
Pd 13.828403578792065 14.32439048302189 9.966762557749034
Pd 9.894023901754965 9.50421583761755 12.391141242630262
Pd 12.842235522580031 11.73856247319927 10.457560211156425
Pd 12.354042878999941 10.606335501130395 12.802727263940312
Pd 11.076146035310918 11.17622845478151 8.372005613778713
Pd 13.786687573960606 12.990591008644172 12.746194041937995
Pd 10.44364547122368 8.076503059449585 14.602275713647595
Pd 12.859350617218519 9.184714238038154 14.974557262369276
Pd 11.538805103304494 9.365296006195079 10.357960465046853
Pd 13.835586161809694 12.212730934667373 8.135170453920074
Pd 15.63823604594399 12.594932962815726 10.337520314217828
Pd 15.596332032659499 14.73760265430604 11.913194659944429
Pd 14.861816416843867 10.504489331504667 11.861228934827292
Pd 15.064620600037477 10.58419198199519 14.44812073784099
Pd 12.115119761195833 7.939533323379808 12.550732079251322
Pd 13.18055376498693 9.579858647500304 8.28583654973452
Pd 14.700976367158471 8.22376248279307 13.19166669764463
Pd 16.404543936842735 12.371451267307696 12.999678806715032
Pd 13.911752866660791 8.387464778548189 10.609430766310386
Pd 15.509091107223679 10.192397800084048 9.278128092661271
Pd 17.456962457498477 10.812120352247845 11.035565112395851
Pd 16.487478937841935 8.357007237447357 11.166308809205434
