40
Energy = -171.11045158 eV
Pd 12.288730039234085 8.029173599562993 16.041777252972814
Pd 13.6506543752281 8.82360722014286 13.9514346468567
Pd 12.482387593486358 10.654160900548813 15.660924131907423
Pd 10.804433949857392 7.8965928399945 13.88549374399162
Pd 15.199132444408896 9.499027055501276 11.93521720672444
Pd 10.045805222061647 9.493066020685609 15.924609464936777
Pd 15.537339380809003 10.180338538126456 9.336383926209207
Pd 13.959930635128172 11.415907250678158 13.372268366347814
Pd 12.310891695591813 8.224917236420872 11.805694120112015
Pd 12.418604110359247 13.103124865600382 14.731853582109043
Pd 15.136730520608433 12.331424693108502 11.000950482386536
Pd 11.42304381808894 10.465126512103422 13.217998822602029
Pd 13.999146497179392 8.051561074302562 9.859342815864832
Pd 13.811237497630254 13.988709760985905 12.626953756781743
Pd 10.036044722223066 11.925529345258129 14.930560209588357
Pd 12.384377883332997 15.685898831408315 14.110577303426776
Pd 9.52913865195356 8.021488585206388 11.521085802670484
Pd 13.165437959215474 10.675363426658139 10.87299146543585
Pd 8.900539306989181 9.789066430218782 13.486613560862365
Pd 14.361366248519596 12.386516305311456 8.38093249862409
Pd 11.885457119888292 12.293955389034492 9.203635577139446
Pd 10.207397193436497 14.262364411947015 13.689055790758163
Pd 11.54018828598664 12.802608701014586 11.891553700451393
Pd 13.364189345294674 14.251794795271653 10.033727071575996
Pd 11.568642391869034 15.471977087147954 11.610855752475118
Pd 7.904437109052755 10.292208238830582 11.05962489597533
Pd 13.048686178047072 9.922458547533743 8.290848297797394
Pd 8.783214544260659 12.311243611687907 12.633798455007835
Pd 10.58796797632005 10.240193860966299 10.713375768947895
Pd 10.715395344119676 14.695359093890081 9.251171693685729
Pd 11.307951377018243 8.080898354013694 9.287006172616417
Pd 8.678065248553304 8.7512584504841 9.041358954589509
Pd 8.955738265393377 14.693158005943868 11.342995522436789
Pd 12.20203600022976 11.847145550372469 6.624705216352994
Pd 7.779511408171524 11.27069746917201 8.443258759159997
Pd 9.431317356042042 12.433947089076899 10.029363856963021
Pd 10.415529058685333 10.349187540625143 7.95301863183443
Pd 6.916313204501588 12.812852524437575 10.768723048395366
Pd 9.833374629509695 12.904612206202307 7.353320920118981
Pd 8.004061042862327 14.233616955178356 8.736856705838166
