44
Energy = -189.79296026 eV
Pd 6.141426809622806 11.348601821813393 11.856415247334626
Pd 6.74840366656804 9.409263625816415 10.047310019897886
Pd 7.298343244009337 13.756874511493946 11.477370347977429
Pd 8.186057301393182 11.860219235704413 13.50698083645013
Pd 9.12084407851339 14.3309650541022 13.430349043554244
Pd 7.800990365144586 9.374104275017554 12.493301017868497
Pd 10.279039932516715 12.457060823030659 15.069328588839031
Pd 9.653723271337913 9.791073981562462 14.474404052968447
Pd 9.361253202422084 7.360301018087777 13.264984619861723
Pd 12.122634806010653 10.709853441784754 14.38573026519592
Pd 6.7445090306276985 12.001810507659233 9.272038382795065
Pd 11.850529634658331 8.198370847176882 13.614670612621913
Pd 8.5141795859821 7.452920072966378 10.677541461417883
Pd 14.310183888578862 9.313652683300862 13.7139459968718
Pd 8.761911144605067 11.676647166109989 10.897524414155816
Pd 8.01390732010683 14.342496655003497 8.93481507220587
Pd 9.843118938994799 14.34527706172646 10.872341274336558
Pd 11.609661432896791 15.063849319424365 12.775149136511063
Pd 10.847985592714434 12.38084374387348 12.500130277946232
Pd 7.604965953565435 10.104025989774822 7.524581388536388
Pd 12.917200826921404 13.226326639252461 14.099035014981903
Pd 10.392123644220003 9.77146619109089 11.933980403316768
Pd 14.481408041915168 11.459659793264205 15.255769259388842
Pd 9.18830421066672 12.100811292748991 8.072903901639439
Pd 9.299053160217916 9.581395023967042 9.454647711613848
Pd 11.075366221195436 7.17224541556017 11.18644889467729
Pd 12.169025486833258 15.475824408675038 10.140916130566325
Pd 11.27218767452475 11.85303119427823 9.836329273654682
Pd 12.906002463967699 10.61677867386573 11.736037209349707
Pd 13.191717273415628 13.393062753753298 11.36759910352411
Pd 10.621088939875921 14.26512655327274 8.39261890719623
Pd 14.97615521945844 11.915014318772226 12.71275699850434
Pd 10.62210477057231 9.93991327860189 7.248617209421077
Pd 10.417919773043385 7.361573416700172 8.443931731215187
Pd 11.920220179754141 9.221763582787021 9.689331150240537
Pd 13.123949956239082 13.358909263898026 8.676854470732474
Pd 14.635293488419027 11.559707065010484 10.000397576934049
Pd 11.45015894526435 12.42065644633618 6.689406895009099
Pd 13.612629500448042 7.948699718621343 11.576487282626712
Pd 12.737275701628777 8.264694842425008 7.210635409914963
Pd 15.71341815238441 9.625903567435206 11.461094092855612
Pd 13.151497294207216 10.82177319911905 7.87620566630861
Pd 12.952538538259972 6.651672165835275 9.341761592808824
Pd 14.522315451585762 8.933387744866168 9.171704344680617
