46
Energy = -197.6884673 eV
Pd 15.132751328594493 15.642712660658383 10.608319393179773
Pd 13.45275430097048 14.522762400221852 8.777745812343072
Pd 13.976916730270617 11.816586312189798 8.257528963340084
Pd 11.680623494008007 12.937772771365472 7.629939163751853
Pd 15.14038305913742 13.06664869881103 10.298184638982107
Pd 10.894002240656677 14.756310780179959 9.493148149981481
Pd 12.701768821229305 15.083505950690148 11.372737234218302
Pd 12.162574557546732 10.348746496692304 6.76825554185816
Pd 9.649579780617415 11.565936426967662 6.631289695721056
Pd 15.573092930988446 10.487394539027344 10.07745568645782
Pd 9.362603699364886 12.653426406922758 9.004367130271849
Pd 14.758129402569484 13.971279570815597 12.744446780621173
Pd 12.365353086979923 12.42658259085676 10.334870332716909
Pd 8.29004394362492 14.764146410789428 10.104902609386246
Pd 10.147509093671108 15.45699723652402 12.063297178344541
Pd 13.451649138591707 9.40596476777402 9.072664223462322
Pd 10.862094465749081 10.493849954588708 9.005917559656499
Pd 14.132889375781351 11.397916027413698 12.095044072264287
Pd 11.680486313450897 7.86386003810102 8.050385528420254
Pd 10.019841782197043 12.886682210157872 11.512167052559667
Pd 9.712952705055626 8.95579580473101 6.859003517020678
Pd 12.2745259538456 13.248442777855036 13.145714621385482
Pd 8.117594021008568 10.412242375176502 8.576061381722454
Pd 7.728242030011865 14.250196552262103 12.594241474703342
Pd 9.320726823571944 10.26152782880807 11.28998474825873
Pd 14.315164309025702 8.565324288425291 11.507971747685154
Pd 7.621672607802194 7.860433506797525 7.966066933065605
Pd 7.370975492042306 12.093402937990401 10.781529951735594
Pd 13.402008780409412 11.23491527422057 14.633094104403018
Pd 13.222026568400407 6.847384570714925 9.82969714565625
Pd 15.27375348556943 9.639954699183825 13.671960135122292
Pd 9.697381578550628 8.062649774730007 9.660991751724998
Pd 11.595243031890401 12.638323398200288 15.78500669866858
Pd 11.962549908768793 9.920764322595549 11.32045437864034
Pd 9.837465319884865 13.743246049315205 14.150248374794836
Pd 7.1576851675688555 8.751426349402966 10.348771448492043
Pd 10.85468348388552 11.079789030224486 13.44695173492478
Pd 8.172776053257065 11.793844281432827 13.327590733809894
Pd 12.734510656681774 8.843126563957377 13.65467132821527
Pd 11.248065892043835 9.79524826145587 15.738093836867185
Pd 11.461695000343283 7.379585491662971 11.638567619632086
Pd 8.861346784021787 7.799797887687544 12.219200030087038
Pd 6.833847036669101 9.6686550135428 12.69448992981366
Pd 9.171099024945413 11.646517878983541 15.773542018445688
Pd 10.641363652510595 7.433810370955231 14.183769049235572
Pd 8.959365985012742 9.437128152567166 14.312335491442804
