46
Energy = -198.28441026 eV
Pd 10.267799049734666 11.582295088300311 13.87362202043357
Pd 11.221790931897537 13.123036404325452 11.892631028584168
Pd 12.691394994418603 15.996302390943477 11.490666415329265
Pd 13.940283100055929 10.783452395050912 16.031450578904607
Pd 10.354374191731079 10.548306909278512 11.245933258185039
Pd 15.15600103138416 15.095106195165737 10.729724102444585
Pd 8.069628813095136 13.680604118013589 10.64807192429326
Pd 10.276379010549105 10.750383620090274 7.981736174174007
Pd 12.660648963703407 11.067381488456355 12.561807717667966
Pd 8.014812059715725 9.019335296659282 11.451136511638465
Pd 11.907288301745446 9.643715767051109 14.91534158457371
Pd 11.876380411839861 8.318578760059845 8.978676851349046
Pd 11.939079295241976 14.827586040966864 9.208327896617082
Pd 12.14144950652511 7.587991328499389 13.314492136218192
Pd 14.34066731863562 14.224029347494927 8.114102377267418
Pd 16.20414066578215 13.115099242913391 12.113815997807139
Pd 13.50107923642813 13.061401608433364 10.433909819942945
Pd 10.226480585458768 12.899165464411418 9.425386332250161
Pd 9.835120195409564 8.875852606025866 13.498770132409259
Pd 12.396269483431025 10.83269521494441 9.745844225866145
Pd 14.906247006157441 11.788618991674172 13.846949533891031
Pd 12.580283161925493 12.79260872640276 14.785071336989933
Pd 12.132669585761835 12.671667642035132 7.635148349358128
Pd 13.806022061800626 16.645728074305794 9.146614862212287
Pd 14.51223035399181 11.546033213550388 8.199664096011427
Pd 13.856211311168119 14.067752867295935 12.909812185781737
Pd 11.436954108367246 11.500598969806424 16.768527729496366
Pd 10.542048344147283 7.8974092783573715 11.189724656231862
Pd 10.152751150849847 13.687320709938822 15.540997246179572
Pd 8.937886904299663 12.164602935920543 17.3354667151771
Pd 8.211546686602293 11.1259645033418 9.673783799559805
Pd 9.137086571227828 8.655810208737599 9.078725978555639
Pd 16.250036368352553 12.895576552411299 9.538281618418859
Pd 12.705529382482002 10.045265779330508 7.015155618717386
Pd 7.444294600210665 9.768427477813932 13.988137682594452
Pd 10.132185706555013 15.324979163510836 11.092188644716671
Pd 14.460485507433633 9.050113925459627 8.970438135421361
Pd 14.991849962849425 10.869896259912682 11.034414514497955
Pd 13.210714503052941 8.662456267607102 11.228170963151728
Pd 7.877430068290043 12.248775055910743 14.904214078069193
Pd 10.52597081463386 8.472538493420549 6.764275853818514
Pd 8.941220339749654 14.032245425673874 13.15911542929865
Pd 9.366867523345642 10.022384228080034 15.858700774650474
Pd 14.262346206345416 9.238915699113027 13.609415144135442
Pd 11.495931191587243 15.027225053139038 13.674911561495856
Pd 7.991779933330321 11.654411711467423 12.28629290691407
