48
Energy = -207.52156593 eV
Pd 11.94843067101474 16.53577632699312 10.125446149804729
Pd 10.64237308430968 14.719693808575077 8.73359019832589
Pd 7.64888742787652 14.646050471928884 12.538281760914545
Pd 9.889992015950122 15.14318094151704 11.203125944002844
Pd 9.767232362097035 12.885569862922509 7.109714479495577
Pd 9.994774790757484 14.893516774733415 13.879468191304692
Pd 7.9803186299976865 13.257351446317127 10.116709377553862
Pd 13.337493601323352 15.057771925848453 8.432606370453415
Pd 14.242325449440091 15.237263530003236 10.960645804724969
Pd 12.128447478251736 15.927474249094969 12.658243870097293
Pd 6.781569902001533 12.12784585918573 12.433692273657543
Pd 12.325262614135806 12.7203262761047 7.9232056576844805
Pd 12.165095343569421 13.652187979768279 10.85662404456
Pd 8.157010119158178 12.914870960951877 14.644356289673848
Pd 8.391624337022703 10.979674648700797 8.348270802349695
Pd 9.562369336551692 12.739451348713338 12.341675635412066
Pd 10.040927017463597 13.917990577560873 16.300267278445844
Pd 10.346787761929393 12.180116137888456 9.751511803285544
Pd 13.822484128379008 10.403280956162796 7.9238369621969
Pd 8.387538150851293 10.667714855724604 10.954513771853977
Pd 14.587991809385347 12.85073812668908 9.275262458834936
Pd 11.003305727743214 10.544258619283301 7.386669958526647
Pd 14.434017231030175 14.904121168966933 13.575134555989331
Pd 12.211729008785092 15.357350479969142 15.281524352835303
Pd 12.221292566137514 13.272398138175822 13.598501820907597
Pd 10.314994091615917 9.468238191856747 9.685065458280674
Pd 12.669334197703135 10.95022756207865 10.127189188791265
Pd 14.562192100221813 14.459863726935922 16.151736978741553
Pd 14.491112106135018 12.731723098522021 11.913402491552223
Pd 12.02582701252389 8.28211457362248 8.110583606351106
Pd 8.575964313094047 10.435104271195813 13.555525208302184
Pd 15.269160554775771 10.545162746146778 10.476087950349068
Pd 11.468306632634404 11.067024826480687 12.434446669418609
Pd 10.48283864909334 11.606571972530988 14.991740142528839
Pd 14.587661057013705 12.332926499266595 14.572590454538547
Pd 12.482512014145506 12.820661744527023 16.220335636665155
Pd 9.439091373164947 8.441069617813447 11.942277123545015
Pd 14.112362699070177 8.328483084845503 9.685060747205531
Pd 12.252529073949251 8.766772706862534 11.590070820346286
Pd 10.916935297860993 6.88115188964397 10.258802083341909
Pd 14.06496598552336 10.37729720489112 12.87105002792954
Pd 12.84545420004569 10.370653791050568 15.176558512490477
Pd 10.819595386561302 9.038130688547259 14.127583412440037
Pd 13.068472507581575 6.023778531885596 8.98990206029516
Pd 15.321032695837417 8.236016710250903 12.000307108968906
Pd 13.316810215180354 7.958511914563585 13.880564924674136
Pd 11.096166987292738 6.610106753224226 12.941991746430283
Pd 13.432179947758817 6.367212085423398 11.579027497867346
