46
Energy = -198.30143938 eV
Pd 15.552884128611794 9.274086334701208 13.198698832465972
Pd 15.961475569142754 11.866833394658169 12.702320830340174
Pd 14.673653805394407 10.25931484632659 10.924500245552206
Pd 14.02539583844409 11.074868804928444 14.410389013753957
Pd 13.35469629579505 8.511953267518493 14.436926752563686
Pd 16.129536943512043 14.432192828575634 12.187475357910245
Pd 13.857859202187655 7.769333130588484 11.782130880906562
Pd 15.266796194538268 12.811824137502224 10.27717450426092
Pd 14.480534752185452 13.720376759755121 14.191856839019929
Pd 12.696644688432698 10.122876833130166 16.525343744043713
Pd 14.047831138532862 11.052131513297825 8.482636326047134
Pd 12.322004652322244 9.907990209124293 12.351029031013093
Pd 12.812796186475799 8.935758521434828 9.577858837900237
Pd 11.351485924701443 7.455927437850209 12.992065771897332
Pd 12.6669714738076 12.776792304003814 16.00263665008021
Pd 11.65804584454715 6.759250722886109 10.528013280825215
Pd 13.605652941721349 15.014349566215264 11.905513667502563
Pd 13.253587837121264 12.410326581422675 12.147752300476908
Pd 10.926319618508929 8.455757002038128 15.456675041288753
Pd 13.044170584831905 14.011450867381173 9.495647711401663
Pd 12.014665550593557 11.566236709104638 10.046443478734664
Pd 11.204072022788111 11.102778999665196 14.523379983085164
Pd 14.901257572611819 13.44285489929793 7.736119149737763
Pd 12.383420205440336 12.77253522186594 7.132244983968498
Pd 11.831587122953957 13.967557062710423 13.77190783683791
Pd 11.536247875884737 10.338096455429314 7.70541627492661
Pd 10.01247586000994 13.251040975987602 15.600652892777259
Pd 10.425838126765726 8.035869107608924 8.523096160711821
Pd 11.13718593427272 14.32420770516918 11.243455020775222
Pd 9.590919433549498 9.33506687353715 13.398746725783875
Pd 10.3261300986726 11.850726588708651 12.060604210394551
Pd 10.510886355958673 13.775791529627854 8.732647724464186
Pd 8.470988929192782 11.48224300427752 14.166555452491592
Pd 10.240455902447362 9.138107327871664 10.842993983239323
Pd 9.282953745971275 14.085132616199957 13.138833777509543
Pd 9.765373618012873 12.178317206976999 6.678992820779841
Pd 7.456174648245855 13.744087973111766 14.962466102208726
Pd 9.455880636305436 11.374622601240748 9.25889714325211
Pd 9.213247826063528 9.527456396503979 6.76792179256186
Pd 8.646405605840068 13.66847374782573 10.613048035275709
Pd 8.025134802742574 10.42844008905365 11.65273827311327
Pd 6.936685999719392 12.818442482185427 12.432699562915335
Pd 7.9473136635286865 13.642951316909816 8.063250729730923
Pd 7.964285359631164 9.289251658048798 9.209664619526349
Pd 7.274382408358865 11.190679947492459 7.321549292165709
Pd 6.799223808516744 11.900758513961142 9.859354017291214
