49
Energy = -211.59678107 eV
Pd 10.904487793770212 11.49086136485768 5.698116135987912
Pd 8.31644134336053 10.33288744523475 4.867681224361677
Pd 10.483540568795483 8.71378638631635 5.456179321146583
Pd 7.76869080052764 8.00622783249861 6.5347690976999795
Pd 9.804256197606534 6.127267976523297 6.226915191420913
Pd 8.433258868943579 12.599206636718678 6.439382249056534
Pd 12.027470122485052 9.790093372042481 7.588557447719635
Pd 6.463381883595686 10.459923618349789 7.097833220030374
Pd 12.340903174004987 7.149308449300487 6.669363997183951
Pd 10.933647998097689 14.066428256861808 6.805922643046824
Pd 9.153167000841897 10.073446184075006 7.274997571019766
Pd 7.375988582558255 8.790690563113474 9.191831545808025
Pd 10.181289191311125 7.891948940100023 8.11113068886627
Pd 8.272964087853659 6.209006729969123 8.581701723960071
Pd 6.186982220866179 13.144250491479097 8.013730606123161
Pd 13.972479715259018 10.136598555449206 9.484894840473393
Pd 11.17241522689433 5.482065219946336 8.597713791552605
Pd 8.79133537438254 14.248990752764069 8.62177069908043
Pd 8.015106490576628 11.641939688661575 8.986633958270932
Pd 13.029910104506234 12.291767718869616 7.774657447053866
Pd 12.715504644729485 7.805286431634487 9.247641342734743
Pd 11.72330236415619 14.11959339235765 9.487972947170508
Pd 10.46522350892001 12.05422320009968 8.317962083632164
Pd 9.851468656061783 9.85775440535998 9.826085120011532
Pd 11.898688060669928 11.436695449102825 10.324833056449428
Pd 12.508554359404837 5.804236393535539 11.04179844867106
Pd 14.09379014496634 12.846401810183469 10.269822189970768
Pd 5.632135224383561 10.936465553553427 9.795999119769188
Pd 10.324751626178003 7.143104853402945 10.613742145322101
Pd 9.692632024884935 13.024628296122836 10.908962912849509
Pd 6.932983176991933 13.39035052224955 10.684321066815949
Pd 6.255390099223075 9.063576356625816 11.698476913207944
Pd 9.398456844192067 4.750044429972706 10.604932139773338
Pd 8.025732950276193 10.927847786976738 11.416077875063419
Pd 14.062140238228894 8.102339897526237 11.547224261056597
Pd 7.606947110292488 6.8511472077869 11.083177802922059
Pd 9.187013903482365 8.779028061832534 12.252906218711312
Pd 11.735533231537362 9.177574184067083 11.544018709789924
Pd 12.102938440851235 13.272379395444643 12.17727664166764
Pd 13.718894588882927 10.90143652079838 12.194195630652166
Pd 5.798260604088201 11.66518991926692 12.545078959702984
Pd 11.903845688522468 7.245656589132872 13.223031593837273
Pd 9.491416222991093 6.157342525195818 13.010177485494511
Pd 8.16293592289218 12.975917334814504 13.133096418859786
Pd 7.325951479161443 7.684103972955851 13.773255427375574
Pd 10.35476146494847 11.263469952984874 12.874742982560548
Pd 12.136317167482472 9.776947931146129 14.110412618357342
Pd 7.87674989516193 10.370639228899263 14.007860742058197
Pd 9.839095641757778 8.419054245396715 14.710265777206006
