49
Energy = -213.2065254 eV
Pd 10.881829040992299 7.678499299001385 7.418806655309534
Pd 10.238851609437877 10.344724798796786 7.328278945808459
Pd 10.092385754391056 6.536061257163714 9.709249195656808
Pd 8.71941525687119 8.54796372573073 8.743083962518023
Pd 8.256620729409232 11.170532484899603 9.038855030385212
Pd 12.95498835868069 9.380028764928115 7.635418074742377
Pd 6.728009172520607 9.219479497079377 10.370152449465207
Pd 12.3980374422645 11.898953354410827 6.886618839231288
Pd 12.68326509610194 7.218797433130514 9.444119074756278
Pd 11.207721228940482 9.481932977867183 9.554423152024313
Pd 10.150698779253466 12.835777911611714 8.236609612109607
Pd 8.438778098262551 7.346797979071731 11.650353454296692
Pd 11.155534823549925 7.736414399901559 11.767876099851078
Pd 9.279924520755978 9.73052218219956 11.138767098539443
Pd 8.17220689532799 13.72882580648725 10.045486932351107
Pd 7.23159539579425 11.629409870809289 11.464799451509705
Pd 10.131014068543594 15.321244068539013 9.1443548965101
Pd 13.87054804587473 9.557865128121264 10.227652584512253
Pd 7.243710268022897 9.352084248617691 13.051940521352105
Pd 14.687629373188331 11.284486255042616 8.252784141795726
Pd 12.393006089220012 14.289326006199495 8.012830013521773
Pd 11.788592395775778 10.45280384271307 12.111077169956962
Pd 13.730907284767312 7.539381399911061 11.91858010341031
Pd 12.414535966658882 11.82826235768845 9.528231271266717
Pd 10.178860406129829 12.316976854001348 10.893948689169838
Pd 9.74615500383442 8.581355117728323 13.816684596076403
Pd 16.863792358107702 12.697950325411096 8.856891184709271
Pd 15.764690470299584 11.301472042019766 10.790167073211741
Pd 14.511407404481897 13.687550149883922 9.529800525680121
Pd 9.323507628643021 11.212279518275196 13.230952793333255
Pd 6.736119167890368 11.783909384952697 14.132588827007112
Pd 8.214075903825707 13.608253592597018 12.885301425116392
Pd 9.852218702475316 15.214737520684983 11.758566981802584
Pd 8.220904653034188 10.03487191962902 15.517202480687647
Pd 12.136291812041616 14.394712760166327 10.655200618292255
Pd 10.878624356642083 10.572080883216216 15.222994743493349
Pd 12.454735390006494 8.736995845239857 13.984174324113683
Pd 13.5885720203952 12.423523996935439 11.844120744260302
Pd 14.668440379166531 9.867294755336893 12.766553635886792
Pd 13.261329960622287 11.348133584887378 14.441293050209111
Pd 11.309516658667683 13.03155936965384 13.185585893159823
Pd 16.670652304585243 13.699539709965329 11.31107219999747
Pd 9.0221098569377 12.629680847281357 15.418003161335346
Pd 11.667370904317407 13.130652384391547 15.768731451846712
Pd 14.477790939604494 14.91858805702847 11.979019220491837
Pd 15.678165263673794 12.27640280138882 13.421581382930135
Pd 9.95492309218872 14.947015419986565 14.451909349731178
Pd 12.173221708910436 15.544374379568458 13.085175739085278
Pd 13.814184288849855 13.943936941547081 14.38202119454706
