46
Energy = -198.58719763 eV
Pd 10.397773641804656 7.600166336254028 15.004907452176473
Pd 13.218383424454357 7.906611757914485 14.755715569992201
Pd 11.445560788261933 9.58788772934048 16.365933199017988
Pd 11.49767308191074 7.039396631033088 12.694799438371573
Pd 9.088967981730375 8.37702615297419 12.800422583732011
Pd 9.250475300372532 10.10767471452464 14.808340771974159
Pd 13.694469452558884 10.572088276058754 15.393131962513856
Pd 11.680068983152623 9.583022651029344 13.508656437593855
Pd 14.173192896303615 7.229549318169453 12.170225451492767
Pd 14.288924695302475 9.809919674378543 12.949720125037251
Pd 11.36871210484506 11.825971523732761 14.819508917453469
Pd 12.330574440757843 6.2446143673556325 10.287373631647323
Pd 10.177113212161167 7.730195239073879 10.464247803189437
Pd 8.159857902824017 9.405832480900935 10.538079278945599
Pd 7.438804926261186 10.644117577485021 12.788913046114999
Pd 10.027514929728111 10.897694229222866 12.122495590364231
Pd 12.555453031010371 8.88172811014414 10.909776527995426
Pd 8.923135458381 12.624271750467608 13.893641702428337
Pd 13.614387658303327 12.379661315914428 13.433550381667635
Pd 15.655352024609329 9.135493290936429 10.88622398370386
Pd 14.337097233706205 7.543731537837546 9.18860903108196
Pd 8.975872752550396 8.281365418203304 8.242860327139688
Pd 6.125434853044296 11.123951715264619 10.440112196564298
Pd 7.10998149636038 13.262677716442063 11.906630900364432
Pd 11.149082445278307 13.36527059866321 12.639210052532343
Pd 11.862576530960014 8.414411234122284 8.263343385176656
Pd 14.059632661688077 10.149753067008517 9.109358752415636
Pd 8.754312737987593 12.132438795519134 10.338156169444586
Pd 7.861567731947231 10.7261423549136 8.161860782107302
Pd 12.472869686585799 11.40231524609919 11.193231119009875
Pd 15.099268531643975 11.802690002090173 11.189490699020752
Pd 10.06488588450701 10.070024927854382 6.676477026432616
Pd 10.52937399754145 10.388354376606294 9.48002909241819
Pd 9.085922133347824 14.973587566405588 12.652597524171838
Pd 11.194665931313077 13.234468515323604 9.759582892907188
Pd 13.448647581101982 13.979248280581453 11.367821874148671
Pd 6.833084027499605 13.137540432322812 8.909816840089867
Pd 8.751488086153214 14.734450067210535 10.10274017093088
Pd 11.240984938452698 15.59691637656212 11.091348998731885
Pd 12.197191937139852 11.178335107034497 7.624553972779581
Pd 13.835434041516184 12.75133215921861 8.964636793809667
Pd 9.730626921578017 12.56366903790904 7.62860698991535
Pd 8.33425649878291 14.719606346781347 7.488649552998503
Pd 10.615818551382084 15.574320343698522 8.408499584922811
Pd 12.081571273227691 13.771572780861284 7.166936689521489
Pd 13.123619604347965 15.364923834367342 9.155048962660427
