44
Energy = -189.24223133 eV
Pd 6.4175362198238695 11.721376871823544 12.77275117518314
Pd 6.227687172417061 11.562755435112338 10.098691727480608
Pd 8.369691612780857 10.456744360723906 14.117104679567404
Pd 8.251973727145353 13.25485587772759 13.925657386011746
Pd 8.163328793552237 10.21331135113884 11.43648087031116
Pd 9.10390650751173 12.050805269541994 16.124566492263426
Pd 8.021889561576357 13.185548644657421 11.235216429537301
Pd 8.002509673483194 10.191965055094586 8.705338951939646
Pd 7.924669774978089 12.956986515092364 8.512721394880037
Pd 10.23086683950389 9.05476620458526 12.756416505245346
Pd 10.092693781882966 11.841465312033646 12.583224224919325
Pd 9.950351599504044 14.649653329096376 12.370004862784787
Pd 10.008207250571353 8.913433072056439 10.02455688043087
Pd 10.944407583897396 10.57294408254736 14.910631672360802
Pd 10.806098404205263 13.570425794493804 14.689137770059475
Pd 9.805715155423831 14.450718440403254 9.636368778428746
Pd 9.920011685994368 11.706360733217602 9.829129205922294
Pd 12.199712218397218 7.869828998218392 11.311196692800578
Pd 9.94151694913214 9.010822850602715 7.359972660243426
Pd 11.684776624548418 12.294121372263762 16.84641328856252
Pd 9.79589990076449 11.693446579444739 7.155820420891706
Pd 11.970443849547234 10.511572400542322 11.128719545237095
Pd 13.463742342593626 13.739347894882531 15.36527146298059
Pd 11.700052159850795 15.940001530648146 10.797912671608612
Pd 12.017889797418379 7.817544451467176 8.642283743059878
Pd 11.748557229857541 13.138314962529543 8.243056080866364
Pd 14.528043197410726 10.856204927349209 11.846377555566091
Pd 12.819665344150163 9.282840303910524 13.537259087650567
Pd 13.581934401607072 10.923717013587424 15.579338642124169
Pd 12.587031749757445 14.863718679036255 13.141292201695139
Pd 14.76415070309898 8.172459524792526 11.968476206229596
Pd 13.589467750650758 14.677039532546706 9.433213774658537
Pd 12.701339826647773 12.100547493124626 13.341568506701492
Pd 11.883629596127928 13.229762649869157 10.99992947672749
Pd 11.951428978558122 10.46017227727669 8.355978445680948
Pd 14.220911449976379 16.19221368418812 11.514033177474268
Pd 15.32234207877287 12.471417384933853 14.002193137593027
Pd 17.042233234020593 9.550538140621812 11.924635081967383
Pd 13.985276813101155 9.246550297252861 9.664681190497896
Pd 15.448228363321334 9.780001272614523 14.068471373812386
Pd 16.18810591809785 10.707210271542806 9.69937789798892
Pd 14.578686695845322 13.577515751520174 11.704174953822935
Pd 13.868140765402591 12.002990973874814 9.47651749456561
Pd 16.851597529261365 12.19890369458511 11.82435566277135
