49
Energy = -212.58506774 eV
Pd 15.089990718999696 14.196078844893385 10.556760022790025
Pd 15.776916643693013 11.654977818607453 10.930722203115048
Pd 15.787214844895692 10.345522719408649 8.585183449444767
Pd 14.144483486291467 16.684481549590377 10.272134554867474
Pd 15.028142951185606 10.319111561884926 13.183974950584096
Pd 13.997841815288275 12.293027355891185 9.026913594836435
Pd 15.078300634929478 8.979660699949816 10.73212839392418
Pd 14.602007122031722 12.950499098714188 12.909121692606517
Pd 13.234935936029459 14.850937297811534 8.636062754415573
Pd 13.61947913712335 15.44023611007234 12.51208419687236
Pd 14.031559100729584 11.700491630803517 15.303214479282278
Pd 14.199508744512613 7.699586109219269 12.85566732985651
Pd 13.948764682098542 10.9748928810103 6.654592852081981
Pd 13.22900216579498 9.591828866571143 8.795396734022468
Pd 12.983832580774793 14.18729845656814 14.68118246020562
Pd 13.21914739804913 10.82886160572524 11.32152953302141
Pd 12.216831448794455 12.882394550284442 7.232830092787799
Pd 11.192117969949432 11.409722429274861 9.558528324432581
Pd 12.431052233348636 13.37234856823127 11.035581598659693
Pd 11.604564780130186 15.927990849889143 10.628841120331675
Pd 12.922856537149878 9.337443388576299 14.39566392190202
Pd 12.26213718865351 13.149592302444564 16.914475148311762
Pd 12.536273299991892 8.025514952331983 10.839469107859024
Pd 12.082805846442694 11.956522860823407 13.49598413214601
Pd 10.690630718414866 14.073465062522157 8.987714677074514
Pd 11.308329765144272 10.404050757877798 6.996198447685464
Pd 9.598947609144252 12.603042258548015 7.050830243147009
Pd 11.548316381283618 10.840463528379383 16.075040944260564
Pd 10.795331838261486 8.658685942315133 8.949051707995315
Pd 9.261829950822808 9.963291147755342 10.757127394744964
Pd 11.159187566928876 9.668815324930137 12.428985382126365
Pd 11.581106597768663 7.098408257721763 13.237464234623342
Pd 8.825425000963554 10.343598860261599 8.041281998989195
Pd 10.232482839598118 13.205497060481523 15.060704834807549
Pd 11.060274670463581 14.713199745375215 12.964139494271066
Pd 9.847644163947898 12.311627553191785 12.142789798836924
Pd 9.205116850000001 14.734014617242273 10.993804264707622
Pd 8.624806667511598 12.506840261495991 9.573775600644227
Pd 10.702705347808566 8.406101812474065 15.458506678206954
Pd 9.922213311586315 7.3177692080439956 11.060701243255831
Pd 8.186765843639222 8.007928651390506 9.018044480409378
Pd 9.609772693581217 10.642438932548526 14.36971810492716
Pd 6.821014602069498 10.54949609687607 10.050829717625996
Pd 7.681056486174275 12.401171425160696 14.40706252585264
Pd 9.05701325775693 8.210859674273339 13.43163963710464
Pd 7.206094816945139 12.93157444237585 11.78136128076755
Pd 8.485866750427693 14.673618858181403 13.515550169938072
Pd 7.578055103236066 10.415927981749565 12.701584626831695
Pd 7.285254353469225 8.12741799505749 11.479256984277606
