44
Energy = -189.94930779 eV
Pd 13.133613596372864 11.67758558799151 14.074189075524314
Pd 11.09743588015955 12.47562103705551 15.752547366824928
Pd 11.388370515240524 7.960549410795532 13.818826220040245
Pd 13.947506982168674 9.109183434096286 13.925526546152218
Pd 9.857027336455182 10.636222335165167 17.088119463359657
Pd 9.318421315596396 9.232766254671645 14.971875036463464
Pd 13.294301450799763 7.111695014777162 12.171925022489745
Pd 11.934157704781619 9.847833242829198 15.579142000849211
Pd 14.761850487623922 13.61046153202077 13.215434364293623
Pd 15.49241633702653 10.940209344297434 12.87944873734651
Pd 10.660022877693173 6.782988687232836 11.55264897333968
Pd 12.372512290429707 14.18901091176614 14.279291265143222
Pd 9.617985776085561 13.933124878319338 14.026743837230159
Pd 9.266522469472642 8.826544639378284 12.377032930486177
Pd 11.41544730087464 13.09420260691278 12.010513255124595
Pd 16.96705653754351 12.813229209735551 11.87729480459118
Pd 12.1748117080681 9.865829365992832 12.154037409573098
Pd 8.394420381005235 11.923283190099099 15.198566187624682
Pd 14.623642678993926 9.146088801559683 11.08365690645907
Pd 12.179373788064666 8.31364522983564 10.04526807634018
Pd 7.329417136145835 10.18059740966562 13.455800968761363
Pd 15.047058213072676 13.929906823308567 10.51207910747035
Pd 8.235274125233518 12.376624435313333 12.35518248677178
Pd 15.830963487388901 11.288907054424495 9.951536632069143
Pd 13.085976102710802 15.177567894503943 11.863035839732195
Pd 13.612183002976918 11.88536841686115 11.263511922172789
Pd 10.852743513730303 16.03794786862514 13.078037412870305
Pd 10.367046170433985 11.16471821843734 13.530588111529203
Pd 10.20733962895281 10.889256821294156 10.803378120968835
Pd 9.396747891755938 8.38314449429656 9.790389409647137
Pd 10.95800720623045 9.975209576693622 8.391748603588779
Pd 11.828070447571882 12.400892317651758 9.377508698078472
Pd 9.3453887273026 14.544825829709241 11.362873847576992
Pd 13.542755015227497 10.292796419252644 8.967928629146622
Pd 7.530050911872168 10.306782909652311 10.77656978080434
Pd 14.273739667348595 12.769839926246693 8.193844263483939
Pd 12.93279568289755 14.818933329948761 9.268231735459906
Pd 11.126921088347677 16.342839092164255 10.4682944365922
Pd 8.588026577005786 12.593389742903632 9.6802038489566
Pd 12.505292766550728 11.322986809033434 6.733036933660338
Pd 8.360436014126591 10.356939744144297 8.247639649703277
Pd 12.105040824574473 13.929441204489567 6.9290378949761795
Pd 10.265947279428875 14.480714758021735 8.826612211778682
Pd 10.008647528242086 12.293060612410969 7.323608398529273
