41
Energy = -173.87475371 eV
Pd 15.435804663391117 8.554662071816669 9.786105870361805
Pd 15.181676119920034 12.666532867110858 11.254330915766376
Pd 13.950976991231407 7.751542627104965 11.809195151590005
Pd 15.167732663760685 11.08195037092259 9.08171945534747
Pd 14.471268507852715 8.637354691177284 14.15976485221292
Pd 13.424617244281574 6.770149567867447 9.458170791586799
Pd 13.026039688467202 9.32736935872791 8.943273825916735
Pd 14.868857821878935 11.283362070292995 13.58494342001228
Pd 11.460455627925548 8.14435589128469 10.694744626079922
Pd 12.57507859616656 11.88666909900858 9.341683988900497
Pd 12.187666707584992 5.702369474298732 11.626614386819634
Pd 12.051474527462597 7.4952302295417494 13.64753612140733
Pd 13.901664101286439 14.998919719284345 11.081720928398871
Pd 12.591433191657424 12.759302816106137 12.03036276895651
Pd 10.481867444476784 9.967107453326868 8.80744285791566
Pd 14.327285915365671 13.901414902928556 13.6093264175102
Pd 14.514581895937027 13.654576022391533 8.866415086718954
Pd 13.899906472895717 10.29512317427929 11.3081898470553
Pd 13.280554066779116 16.325862573345116 13.238708222413843
Pd 11.02792575156377 10.673136516762687 11.285587798262302
Pd 11.986476397673965 14.461204632482925 9.305415380141568
Pd 9.852230585160546 6.867036769850001 12.334289486446867
Pd 8.90617949294606 8.998448593244726 10.923824428680055
Pd 12.482752931876377 10.128982836370039 13.537734356982494
Pd 10.25082180006208 12.525593219734931 8.198882135129528
Pd 12.81833746760943 12.216696833701258 15.084188723864704
Pd 10.56631907378472 11.91394566596783 13.71572835019165
Pd 10.097227570080843 13.060770910394451 10.817416913168477
Pd 11.617467349710056 14.484751749808146 14.076069732364289
Pd 9.904299271550023 15.120292205335305 7.922078580769915
Pd 9.182119599504173 14.486722485704735 12.914038692491353
Pd 11.295000127449466 15.473938878578041 11.641478177091047
Pd 9.987868836393924 9.250944091916153 13.46365281237084
Pd 8.348885851812337 11.284539498009726 9.745054027344498
Pd 11.57972322624202 13.876168762086342 16.59912985277817
Pd 7.8157828967882965 13.635172329896248 8.685973905906977
Pd 8.43347596921877 11.163177729785462 12.447585272395042
Pd 9.384188335828885 13.452256059313571 15.354941616809235
Pd 8.996099880007645 15.36926742125715 10.370088529378599
Pd 7.329891810560982 13.35135880373187 11.27864810395103
Pd 7.276555724511649 12.940311223912277 13.90651578716934
