43
Energy = -185.57614044 eV
Pd 11.341797747993192 9.748720645502715 15.176668831433238
Pd 9.013178705887132 10.827410479077077 14.570295207307622
Pd 11.232709053560185 12.360643256080458 14.620094410999219
Pd 7.928962549189129 8.823541421999067 13.110838289202905
Pd 9.077039591023183 13.191746056715752 13.320692178709658
Pd 7.260018314759231 11.41441923924741 12.540569495243759
Pd 13.744733099124936 8.723891661397662 15.224980087694775
Pd 10.537600896801145 8.077967825559298 13.283270886502313
Pd 13.697935130292072 11.359047907810037 14.913016204479494
Pd 7.190647655531838 14.022732126865614 11.613943926750096
Pd 11.08280538366632 14.941485479823687 13.722223996145264
Pd 11.475384776399594 12.862775251063663 11.974286263015461
Pd 12.4065565281384 10.335709165900639 12.813879731448191
Pd 9.113388793964093 7.642884766853436 10.996787733525148
Pd 9.895177711727836 10.375437064831598 12.15186536566059
Pd 6.755731723982543 12.147137722059307 9.793402060425267
Pd 9.702829929500906 15.0235978447872 11.405574103931945
Pd 7.295162808179153 9.620153346382825 10.57772880570799
Pd 13.437324397554976 13.708101290343727 13.667988881530079
Pd 13.203497155691634 7.785326955440091 12.853960628557012
Pd 9.195197882107594 12.349981267551076 10.650329870812701
Pd 14.977956694340818 14.474621332673154 11.640073202120371
Pd 12.399759658418363 15.215778527740156 11.330086681939912
Pd 15.751768732371113 12.417214965594026 13.399872910000685
Pd 15.085347776214093 9.790757497920186 13.164555561749477
Pd 11.605158479650363 8.471263484710782 10.818157337767994
Pd 7.948270822217247 7.9335002929509395 8.553793769737128
Pd 9.634597715115753 9.90601869888113 9.448672702827533
Pd 14.00524803941265 12.003515385630303 11.512444438375242
Pd 7.547001265874457 10.500436391678996 7.915249805748358
Pd 11.840873927749232 11.160169470997992 10.079449112498748
Pd 8.290593291600878 14.33506472035121 9.1229586008626
Pd 10.589547957413437 7.571450980604704 8.51356758657132
Pd 16.169840573704228 13.10597618507979 9.729118928586328
Pd 11.007169293763692 13.956462959485512 9.30384958112073
Pd 13.559088825348088 13.614838045276873 9.458414241656373
Pd 10.48654331096691 9.997511751413825 6.999985570097678
Pd 16.311347098931975 10.816691290366924 11.04110688165353
Pd 12.646597852175912 9.3135349025033 8.401778330493446
Pd 14.06632266332697 9.311396362204624 10.713549194927984
Pd 9.489510787239976 12.251422317505295 7.9579595124117635
Pd 12.18891448756732 12.060241082623934 7.687614373811467
Pd 14.528771800695875 11.16355519402527 8.862114244182338
