42
Energy = -179.04818791 eV
Pd 11.0415545836232 9.245566171434403 6.263438871311035
Pd 8.756825985223683 7.798346234245455 5.465379980329148
Pd 8.747714810446046 10.598402171741498 5.463128515575724
Pd 11.260622738028639 11.873932282264757 5.91389698378274
Pd 11.343929110281369 6.636872265754306 5.715853134048779
Pd 6.429415099943476 9.239700641211648 6.068150104664693
Pd 6.994170610825564 11.560745424121913 7.444613085869261
Pd 8.358749103416791 9.174406668686094 7.781921907837372
Pd 12.65725852521286 7.597877050920342 7.967471990324569
Pd 10.861550380195467 9.341628584740965 8.908858414490098
Pd 8.804259975189717 13.28236110122115 6.441438487540831
Pd 9.974992556546969 7.151851393797017 7.861836050500116
Pd 4.766422729196206 10.309425494154464 8.048032537202984
Pd 11.017215126284134 13.590340994493298 8.060978763054344
Pd 7.26639792937798 6.7347292593879535 7.538778355306616
Pd 9.178618257038867 5.080166231590082 6.565136757484536
Pd 9.69376092289783 11.374699478218599 7.932596125030426
Pd 6.2576226312847805 8.670763045101364 9.33496306556866
Pd 12.506402077876194 11.270227678087833 8.359835649613558
Pd 4.806714841796158 7.65218359955085 7.436402580571711
Pd 11.524557293492949 5.093098751504806 8.164503828127565
Pd 9.047197667389318 5.1768897121579585 9.376279633390027
Pd 8.315275106174392 13.212133629259872 9.278655756032686
Pd 4.508013113586681 9.820755914559026 10.833173612373836
Pd 8.80637726378436 7.892090023123994 10.151986612554815
Pd 8.27572743771341 10.444827918584394 10.195401676397967
Pd 11.196953928600516 6.705785764084887 10.408781697284319
Pd 10.592025976213563 12.107951486979415 10.326858494100115
Pd 6.659236714346633 6.149176208933051 10.091452639866185
Pd 13.08031440511136 8.76785426657026 10.331301296458077
Pd 13.063573734878057 6.940268238248472 12.261780429998668
Pd 10.649041225334527 9.512081659587606 11.3947334505335
Pd 6.06289393284398 11.824715403391881 9.94273514881639
Pd 8.703447718874363 6.093627989706252 11.968325557611807
Pd 6.84322970229441 8.177016262807694 11.91793283878729
Pd 8.438941276725789 12.376600981919488 11.935750205751777
Pd 10.606471142935954 7.529735516494854 13.042882642326767
Pd 12.933432449418317 11.294411310885216 11.06121209018913
Pd 12.656139664977665 9.450893829925409 13.03717072952
Pd 8.765540421675043 9.653865811815054 13.080801116757675
Pd 6.423525033048439 10.727551314597234 12.362252638513652
Pd 10.82323189707236 11.563787335318336 12.962661645678626
