42
Energy = -180.30123443 eV
Pd 9.516397402406694 12.248099242952733 7.002306342177432
Pd 9.166433771313113 9.58395049165889 7.327139364711128
Pd 11.727200428038504 13.429008114763688 7.82381839899323
Pd 9.197005624278164 13.928785698280475 9.05897541188913
Pd 11.039249221973801 15.813193137051206 8.81926196864669
Pd 11.419711752453255 10.708747329384058 8.159240846418978
Pd 8.701272245415204 11.314304601399806 9.384516064563128
Pd 10.941309978848025 7.995010526894219 8.629187502379713
Pd 8.310286284116293 8.682183064273953 9.61385927425596
Pd 13.620785573755544 11.920098733828098 9.07233456601504
Pd 11.051651802028633 12.468080939162558 10.227133200045758
Pd 12.973754899998216 14.406581400271968 10.002868389490649
Pd 8.527088659319686 12.936903063815393 11.541064992260397
Pd 10.34678900743528 14.948428365740847 11.261458127986678
Pd 12.315892266343479 16.773051768686827 11.026790024944777
Pd 13.29191638518154 9.253306829209839 9.408260454446127
Pd 10.604459367173092 9.707447836267868 10.57063454961464
Pd 8.047513039442785 10.312957571743029 11.781395408444373
Pd 9.573732898914093 6.610980089252341 10.576645266423812
Pd 7.428216312521502 7.684336735515465 11.879187080099877
Pd 15.433199940493854 10.581250530838604 10.56172762131453
Pd 9.903917959725002 8.272297642581425 12.695423279465105
Pd 14.7066600827364 13.00463820358756 11.311391047276421
Pd 9.855336472113617 13.933442176523355 13.690240761251948
Pd 11.99567862520598 7.5227866426420045 11.12217244634757
Pd 14.069664189530329 15.288703277833564 12.454231559137407
Pd 10.449809375372672 11.352345837964192 12.673461988598836
Pd 14.373790282436051 8.393401891084695 11.77306307478987
Pd 12.88319283609286 10.895060566984393 11.52217270119265
Pd 8.267178627619003 11.797369123714704 14.048780504728219
Pd 16.632071572284858 11.913535847394126 12.678462360734422
Pd 12.255287757840344 13.366920127101263 12.561750226241013
Pd 7.821798646909804 9.117810278956327 14.149538694510579
Pd 12.337259051425312 9.039933004879883 13.37457910905728
Pd 11.670242749959096 15.900519804240274 13.44909517987831
Pd 10.2550655812505 12.384394965611198 15.794597843685048
Pd 14.662340803905586 10.443892306251902 13.532415360265713
Pd 16.78883915794394 9.285045694365136 12.425350571501891
Pd 12.293366882672881 14.043253978397471 15.213379893860449
Pd 14.56355029250867 13.134330386545237 14.048774705524233
Pd 10.260070806093614 9.87211253523923 14.857989424499475
Pd 12.448703975909547 11.435017898544434 14.546403501800274
