40
Energy = -171.07021265 eV
Pd 9.434634549631143 10.750220762108109 5.15739820401254
Pd 11.249475045344088 8.795588693881642 5.579702501559348
Pd 11.98650185625008 11.482755440699774 6.433912070884536
Pd 8.612835360228857 8.373849568516345 6.1233336449496605
Pd 7.5119568974803 10.59618769400021 7.186824527620822
Pd 9.19139419794129 12.640484641884257 7.005115597133644
Pd 13.036991122286013 6.630023138704 8.72788191615091
Pd 10.228411813503714 10.121982665728039 7.6630291350439155
Pd 13.30578932257434 9.15827020566324 7.188020748898828
Pd 6.273481972411116 8.242500807166481 7.44615027650697
Pd 8.438600650403068 8.525436946556514 8.922035147801486
Pd 8.95055478086618 14.389232104163197 8.972204306516815
Pd 10.502304826789649 7.1517149003889005 7.585785764396688
Pd 6.145992363154254 10.18799100240728 9.445227787812959
Pd 11.76115769582369 8.774684630705337 9.191100353609656
Pd 8.321227682419396 5.970917210970832 8.865833719845245
Pd 6.915224303373871 12.727297038786984 8.788558300386773
Pd 13.256308892156122 11.187093688859754 8.936347688749773
Pd 11.107595470817584 12.776931728875203 8.734260848030129
Pd 14.40977517066205 8.873261962661305 9.725493367028555
Pd 6.206327168840042 7.431796085135881 9.995456127865399
Pd 8.826494460252032 11.174766679781571 9.611829697677434
Pd 12.706007277145995 13.061929855490508 10.882606067357402
Pd 10.703833096471921 6.272832977637542 10.146135519036521
Pd 9.864210744161392 13.252232737196776 11.126918629350069
Pd 7.059136426656153 12.072840219408683 11.420351304385965
Pd 11.281068446869103 10.848451498979843 10.62242341370218
Pd 12.690833851757095 7.788859137772377 11.449075848593688
Pd 7.26107370777922 9.238113617565244 11.613578663533604
Pd 9.926097240493041 8.628183567034128 11.06810461767065
Pd 8.302295376878282 6.6596276138799215 11.506264349856206
Pd 13.516618928708704 10.48517481460835 11.796987026948948
Pd 9.278677315303666 10.826594348476725 12.26639819120859
Pd 8.744062454766857 13.024236676225597 13.600146961151841
Pd 11.475174878513267 12.140712147164425 13.096600665502356
Pd 10.689529999363096 6.747092963266056 12.898695327288417
Pd 11.441358541588432 9.375789193426273 13.235859086909462
Pd 7.201193996555125 10.736132264778707 13.883285181551804
Pd 8.830389006066124 8.498606576538185 13.673183899974111
Pd 9.800515078288093 10.824714163480225 14.87299548407015
