45
Energy = -192.15351642 eV
Pd 12.72381671479155 11.915892638223516 5.794282132626606
Pd 13.782182089713555 13.356871162338821 7.798502526564193
Pd 11.096539300336 12.355991379381239 7.807455035615145
Pd 11.373392447991494 9.858225698138876 6.7419076549693395
Pd 13.49137669338537 10.798425664061577 8.04009556346481
Pd 11.835279345271575 14.451886685565526 9.202297999581265
Pd 16.193269407107373 13.43739477678402 11.781730689841229
Pd 14.200836311969802 14.274260966496389 10.221177784825862
Pd 11.152907861589243 10.156280473931607 9.38951787262386
Pd 9.297625921703096 14.172858622687759 8.746623735939957
Pd 12.606376500930683 16.33992181157219 10.841075505141509
Pd 16.297044125594397 14.652951711754604 14.163717260721656
Pd 15.208207122403945 11.945585885706475 9.739925847507445
Pd 13.744264005129624 9.952312671014603 10.475996981420346
Pd 15.531588105202935 10.815580069473832 12.152202048214312
Pd 10.37173464120935 12.367605737345544 10.334224047655045
Pd 10.092199976766103 15.016571572090227 11.206006598327091
Pd 12.72876233241674 8.27385941452251 8.514999211096484
Pd 11.840354057678628 15.841952400907065 13.342359318932388
Pd 14.177305136465872 12.667271836995083 13.411082158657138
Pd 14.413643287204737 15.443360391760176 12.56033051110474
Pd 9.77290964523666 10.132474019717636 11.681383255752781
Pd 11.882717889282851 8.233771582390574 11.023380347181961
Pd 15.70095488196845 15.595652069580805 16.558109944763586
Pd 12.253107839911854 13.662175205431605 11.907726590193377
Pd 13.656271014964176 14.726203523280564 14.990216009174738
Pd 9.644229961767238 12.76911999571054 12.746637014285163
Pd 15.538575182587115 12.930168236392646 16.066714201106045
Pd 12.15309459943978 11.06030756462085 12.328355688209664
Pd 17.028043281760954 12.080951395664377 13.982393624135014
Pd 13.207553698315897 16.773967989014352 16.519068276064722
Pd 9.357617834045902 15.149329693672176 13.812970183049934
Pd 14.95833588636818 10.603929406229698 14.823527195906701
Pd 13.728145263117433 8.947618219872863 12.974130371378404
Pd 11.07649055124551 15.258777297239174 15.800047284818163
Pd 9.82848949691718 10.63120205605481 14.276742052795557
Pd 11.00752263129205 8.419523747479971 13.432018711008947
Pd 13.197153415771218 11.832093448173463 16.536906149148514
Pd 11.77890751125359 12.820372776096741 14.507542384052522
Pd 13.70400971371684 14.228592688439159 17.590988554616338
Pd 9.3743321351918 12.990203797914814 15.49910828747265
Pd 12.382139626178605 10.03982743540186 14.910322443939585
Pd 11.657660223099159 15.718929964739623 18.362210078689902
Pd 11.185971703364784 13.285038387796096 17.56572374779411
Pd 10.663907931652533 10.911555231646474 16.735114422941987
