41
Energy = -175.02948462 eV
Pd 11.151512157919477 16.008712550061595 12.201034522018926
Pd 8.80882007015754 14.390446357535241 12.465965083867873
Pd 13.173254183582948 15.795472890723362 13.922341990964272
Pd 10.918062631852605 14.130292450632084 14.085703584393631
Pd 13.124998800476396 13.58246175087415 15.550823164929266
Pd 9.185234605268288 16.091152692015566 10.398281483338444
Pd 8.357238768456831 11.882202900938363 11.658329251622941
Pd 10.406344688066762 11.259400197728576 9.996804190371444
Pd 10.640906637265289 11.69088495926007 12.99254485188919
Pd 13.62650496496703 15.546724557924229 11.171151265603296
Pd 11.051449195942554 11.986569188055078 15.694083115390542
Pd 8.640617234374327 9.953498556351798 13.494697600795728
Pd 15.25357294782639 15.095533546374863 15.41749676954777
Pd 8.61681864975462 13.672403578290737 9.707897905726945
Pd 10.935503209655703 13.584627209624893 11.12172705192399
Pd 15.646158446251746 15.304278376935072 12.826531401824441
Pd 13.08259721419725 13.42881424979008 12.653045610598923
Pd 7.9597905442887145 11.256446264408975 8.92636194564964
Pd 11.096971892511739 9.558612646866695 14.627815389024478
Pd 11.614106384324517 15.588293719835427 9.454288815315257
Pd 8.35827728069051 9.318035020001364 10.858748175059958
Pd 10.79652472273576 13.423028668326548 8.280546558273214
Pd 12.746161747350225 11.160621629549722 11.224425294808842
Pd 13.174057678001235 13.391990607064745 9.587721389443303
Pd 8.978162936189708 7.444858317896867 12.726625359700652
Pd 15.34091212944456 12.870397469905553 13.983335941731802
Pd 15.298938964370505 13.237394991648255 11.222504040611557
Pd 10.817815699957956 9.216064247638661 11.852820355513051
Pd 13.165468166230315 11.267694367533869 14.223860550872615
Pd 11.439999541633203 7.1373534317789815 13.73168261242698
Pd 10.015536874292088 11.288944978166613 7.101626023829961
Pd 9.634414549167555 9.144090621993337 8.505155718527142
Pd 12.443505730052046 11.217324865560355 8.188082166327982
Pd 12.089649075638933 9.003226582664475 9.456724060110519
Pd 10.009329915044654 7.204754839578285 10.164797561411245
Pd 14.761123105532187 11.19393793216264 9.533143805452227
Pd 14.437964155754312 8.779060888898963 10.617761934869812
Pd 10.523408301506757 5.405703864728107 11.99537029504998
Pd 15.101201575258369 10.76996128974092 12.379421840263925
Pd 12.536390266022075 6.996154703287363 11.202600339522808
Pd 13.219520139760771 8.94040707774483 12.967846610548127
