49
Energy = -211.4320894 eV
Pd 15.661241093899719 8.343442673698414 9.605555065067126
Pd 12.553272115499343 6.5933929899696375 6.656533295471717
Pd 8.453440470746479 12.23694577822747 7.206599284158788
Pd 12.70309877978441 10.876044807390048 11.663060951615007
Pd 13.119811546845215 12.526597304165433 7.545603866283246
Pd 7.171477029151035 6.332355306827758 11.291116730764426
Pd 9.303915365695302 13.615787601526355 13.478323684236775
Pd 7.055739360777664 11.044207306878745 9.41234840371109
Pd 14.972081184957258 9.558541604273618 11.89767054279534
Pd 9.56068623729516 8.94062348231538 13.92620518590714
Pd 8.55453630950864 7.9878850121082605 9.72011874231616
Pd 7.85293667587504 11.051166644474902 13.901461659557897
Pd 14.465959750963664 10.912682818135792 9.462468531617839
Pd 12.102134905545789 8.350355171159624 12.821379597347113
Pd 6.867552702810153 6.374739831090029 8.581960286850606
Pd 8.3088567902737 9.832133818332478 11.516133593987282
Pd 11.637776074914402 4.945886859147896 8.569346837898289
Pd 6.030296748540061 8.641322547755212 10.379920903757787
Pd 11.89874956692646 13.287174753614106 12.677559341282938
Pd 5.856024605153433 10.829185989463783 11.980130282735333
Pd 11.261873346339998 8.888657822348284 6.3710885830235
Pd 8.130763247271526 13.817319985778038 9.293775054396688
Pd 9.386091414653944 5.55120486700329 9.781038159880547
Pd 6.870331721558361 8.892284259023432 7.7509956224751315
Pd 12.619190530553576 13.031938448107558 10.103655713880672
Pd 9.037941959958514 7.372393597365786 7.059127727476134
Pd 13.104505493632786 8.645778597402014 10.212088045769327
Pd 9.57212775887002 7.09289058474429 12.130649120772777
Pd 10.643515143094351 9.214733934045258 10.804032201454858
Pd 11.98753882913735 10.457540767139964 8.626037574472953
Pd 11.798311740210579 6.298043669670015 10.917384651078109
Pd 5.75588668332502 13.23308276491661 10.635247889564232
Pd 10.862056896651202 11.507440395718127 6.3812058287071425
Pd 13.829715627466147 6.389774985675291 9.005579776236502
Pd 9.403624685026392 10.013486845840278 8.339013472760017
Pd 10.266166883955474 11.778620586547 10.218054967188342
Pd 10.399677649079688 11.159480927372513 12.862495838475617
Pd 14.350990800703883 6.914860231155569 11.66431540143415
Pd 8.13577876066308 12.407305359576588 11.529156148615286
Pd 6.375848907533432 10.915277626899556 6.292581536170893
Pd 8.796772442799776 9.841630929578074 5.763176708524885
Pd 10.621830419323599 13.460542592264515 8.244667479961034
Pd 11.128177921466797 7.6340466469763095 8.678311867015074
Pd 10.215096266812173 14.321595027372847 10.894952022827114
Pd 13.796010503280469 8.805501762236418 7.586526687225037
Pd 7.675167552352963 15.030062876778338 11.679855082479934
Pd 6.981149942987717 8.353249474627031 13.099034491047233
Pd 5.95734156110807 12.930659206743906 7.961851829918607
Pd 6.422165833746049 13.27536076526443 13.33584156853164
