43
Energy = -182.8594565 eV
Pd 7.444228578476453 12.166110935978434 15.306928018045687
Pd 9.308781880415843 10.87638499932734 16.826690872542564
Pd 8.997445675306512 10.377852079670763 14.226746380614282
Pd 11.437639593241562 10.38080688204559 15.311271679924005
Pd 9.972900279435835 12.885190726375383 15.288739925722187
Pd 11.645974991468282 12.158409271306903 17.268940631669544
Pd 8.547810474573433 12.984507909843728 13.005172968286633
Pd 11.046309242036843 9.263218813266917 12.886248314556363
Pd 8.785375849775187 10.571367915419794 11.65375145217038
Pd 13.163865442799503 13.960952786243798 18.263118815279682
Pd 13.939155105393084 11.134377227344176 16.237623477018193
Pd 9.714721953674076 12.898529215063148 10.551259782259281
Pd 13.490719939992546 9.943012074017048 13.824323412791339
Pd 11.65256225832885 14.734485000549926 16.231608523607097
Pd 10.548759833973383 14.828046920731305 13.712739383793508
Pd 13.192198534001413 9.08036944469823 11.363081864560167
Pd 15.930181640074114 9.826360459215309 14.773658263372262
Pd 10.941907409822065 11.888584614548053 12.717711974225054
Pd 11.141319208559215 10.378398488505098 10.407746176240504
Pd 14.432039401144 13.896374528569764 16.049953371213533
Pd 8.842290399598117 10.839277543075662 9.04827882739046
Pd 12.598423875103151 12.724363551877344 14.459716208561634
Pd 11.950526592152373 14.104546424258306 11.665294036794412
Pd 13.163029911879015 15.27664412299733 14.142598387511477
Pd 11.91119213684443 16.75679285570959 12.363656240992622
Pd 15.264237492827482 8.196816462420312 12.720651080807782
Pd 9.261607428910914 13.225151790176245 7.864093317043616
Pd 13.392804233486487 11.78974248048752 11.709724769536301
Pd 15.2286988158362 12.256860000972864 14.111822160667572
Pd 11.216970861117023 11.481150010352 8.068657454870586
Pd 11.482228194658898 13.977649979636611 9.005606556948319
Pd 12.616300152812503 16.13940484022436 9.883633038460385
Pd 13.261156300390885 10.02658744761523 8.857539041103646
Pd 15.93783617792196 10.657102469065668 12.163716927025144
Pd 15.47709352182527 8.987604814750451 10.105156395600064
Pd 14.34734296608043 15.591816477356684 11.839781933347135
Pd 15.77312144730184 14.810859733279376 13.934756301253968
Pd 13.409374869247667 15.076169364802995 7.530166709592063
Pd 11.601816532466557 13.470500498065123 6.349048594596491
Pd 15.209152601628757 11.581432140644694 9.76272547907268
Pd 15.798842960397248 13.296282330807518 11.725270997417487
Pd 13.671038131743051 12.404933363999875 7.719976368013152
Pd 14.04413174279034 13.888085644215305 9.853928525012414
