45
Energy = -193.37734476 eV
Pd 14.615317218846586 8.716595578402911 8.949878478711147
Pd 12.787604319249963 10.152649776601306 7.590234523076068
Pd 11.069141402246258 12.05702327650568 6.7689073914209965
Pd 15.282181707134363 11.21048252022466 8.507245146012174
Pd 13.24740825051203 12.7645125691395 8.216522823389942
Pd 11.534487503348123 14.632532020524653 7.477684204251595
Pd 12.004070490069957 8.335800848502238 9.592563508271969
Pd 10.343456459348484 10.286055567269404 8.704224311707
Pd 14.019690293675096 8.228503305445253 11.427751294911467
Pd 15.640219979223941 10.296895678953796 10.956652313449206
Pd 8.674956797304175 12.384419438859789 7.994496202723329
Pd 12.841343700978523 10.768950107103374 10.191375603760394
Pd 14.625335731346626 12.829339485092161 10.636483658970043
Pd 10.877994624271627 12.86418022358229 9.453311966521165
Pd 9.618972190714636 8.61097050963514 10.72774018542027
Pd 13.51900002282318 7.152156200089487 13.692139509964589
Pd 12.90423759270184 14.857528096428378 9.792869026622881
Pd 11.725095240032251 9.055232281366898 12.296843589996206
Pd 7.965466792996313 10.686963247681003 9.886854450738127
Pd 13.694103432905736 10.940974266520014 12.657257763861775
Pd 15.393323895449308 9.17922350173231 13.56034089558239
Pd 9.188541900778912 14.934672417045073 8.659883193435833
Pd 12.182582259114163 13.025974616866025 11.783659430604928
Pd 14.407936972734444 15.355931726537552 11.839082441875021
Pd 11.112239496337047 16.73064320864328 9.107288290333775
Pd 7.211132071509125 9.04578647966041 11.783526344285601
Pd 10.226132386898177 11.16591528477755 11.429716130845106
Pd 8.468899599900226 13.273139140718035 10.609053126204943
Pd 12.947663187833628 9.410962192621069 14.869591413988251
Pd 10.964393792204035 7.637905045074347 14.377338817633174
Pd 14.363095884755266 13.355471768479068 13.376315053255016
Pd 9.274913526035945 9.46933195013718 13.39555033390894
Pd 14.71742801080261 11.427061839459277 15.118372761485452
Pd 10.403488935504518 15.086998903122236 11.117938439116356
Pd 7.781797188746856 11.538119606391584 12.535956526537829
Pd 11.347132838986301 11.451941126148446 13.88828688323226
Pd 12.286550032520145 16.877767098334335 11.551804933273694
Pd 9.631810350805 13.464909236778356 13.01182012921114
Pd 10.4269100264853 9.739400813737982 15.866643344450171
Pd 8.803830826234 11.744550678274248 14.939048262417103
Pd 12.388905348054706 11.542244572173615 16.369930131649582
Pd 13.397872801713147 13.892324632277983 15.695371999690844
Pd 12.012528443088748 14.978963282461136 13.48465089681201
Pd 10.793258901588603 13.595252896550855 15.407200415822754
Pd 9.959943925587972 11.911792620364581 17.299098542216033
