43
Energy = -184.26956446 eV
Pd 13.299629493117761 14.858818824594453 9.319484746968971
Pd 14.848942276005065 13.315695508462492 10.943427024467457
Pd 15.253893394220054 10.819304782351633 9.900766749708772
Pd 15.030549614306892 11.215647260662745 12.60707231560353
Pd 14.536031170672501 13.653058213173416 13.677436841343699
Pd 13.095114140248956 15.11967280378321 12.026621983695382
Pd 11.700171481949093 16.691713972826633 10.453136995549198
Pd 15.267316360525982 8.681353656445813 11.60694052619458
Pd 13.040597247649004 12.19787394846277 9.290281935100385
Pd 12.973612387812755 9.98029588433185 10.972821254462776
Pd 14.142384534849231 8.410691811418204 9.159646323790737
Pd 11.129056666911161 13.900047244551233 10.480932437053644
Pd 10.775241859808643 13.069478274996502 8.056258714438734
Pd 12.584462819037684 12.394171881186505 12.038188500620524
Pd 13.157162209949348 11.610304151492114 14.660983501983766
Pd 13.611885800483948 9.239121811518288 13.6623291043673
Pd 11.759158052470003 10.61843417639376 7.731120121500725
Pd 10.444023497242247 15.510668838926795 12.503513156486756
Pd 11.81782251574406 13.86831109005205 14.109120184508075
Pd 9.270550954571585 15.634377905934445 9.951661814385483
Pd 14.31806287298896 6.784769325006847 13.32794284990235
Pd 11.221202268511467 10.319025568089115 12.91718342482731
Pd 8.027983031983384 14.509373204497932 12.015229203051252
Pd 12.77266261444674 7.3177149418997836 11.31978026324508
Pd 11.806851714740409 9.494437603664961 15.599636881810994
Pd 12.637034170193045 8.294451281132401 6.962141191956373
Pd 8.62515014367953 12.948917490341724 9.78798941599282
Pd 9.774208675946133 12.523138463226463 12.351740374727632
Pd 10.587947873904845 11.019191953202343 10.235760571748044
Pd 11.640451136045211 7.46989012444665 13.813627068180717
Pd 10.46280892156745 11.729670740905291 15.051426113955051
Pd 11.45718947100991 8.385089881169234 9.318400675184582
Pd 9.092870927568805 11.090850619097843 7.883158281236155
Pd 9.139229130077117 14.017753107735471 14.431395838774309
Pd 9.392111102877248 9.126475633767418 14.270011782031647
Pd 9.974942561013009 8.64813987095618 7.104277347202458
Pd 10.269452597600958 8.230807801037344 11.678379702045143
Pd 6.849211172910272 12.218381261078102 11.755471217436103
Pd 7.016100412258213 10.765643143573035 9.576615505367254
Pd 8.42370598818141 10.098069222382154 11.880505955552783
Pd 7.996113946357533 11.52811306137068 14.081840283325256
Pd 8.869099069066433 8.843349845078174 9.582932459856208
Pd 7.3831830630032504 9.197720901858244 7.439342153564981
