44
Energy = -188.83954356 eV
Pd 10.253930794025774 10.756118816410979 5.428464199954987
Pd 7.728943357174247 10.005883950414098 5.911552847381451
Pd 8.331223818035395 12.677910728985283 6.448941710067974
Pd 12.425828134402932 8.338914066865751 5.844092054433679
Pd 12.945184489176583 11.046706038269104 5.704723686091783
Pd 9.833280332587936 8.304672672202479 6.692265469058194
Pd 11.088134136743133 12.74024840378037 7.061013189776472
Pd 9.15712590512766 10.828947962965554 8.02954771658278
Pd 6.556625749899984 11.096730552715579 8.212563509385598
Pd 13.44118314773931 11.868728841732246 8.247024816233465
Pd 7.65263406534164 8.548990217828717 8.222879221128032
Pd 11.58869871967411 10.080687968369329 7.688238817250262
Pd 11.951102075709425 7.330470020716897 8.324416212903456
Pd 9.364713994232307 6.407405870294144 8.609161284318311
Pd 12.352183649684399 14.200247398612355 9.01675171610131
Pd 8.114969581180453 13.109931326282775 9.164277961643265
Pd 13.997813702084823 9.101438347567644 7.966598606153944
Pd 10.092698756882541 8.823469853052007 9.475633347861852
Pd 6.014204006527187 9.315402324832977 10.146206731698143
Pd 10.614965469635925 12.354297236817056 9.664253282772213
Pd 14.983186022336442 10.411312899760517 10.053587882361727
Pd 8.527189187285309 10.538652573183702 10.638107485071775
Pd 12.263519099595642 10.111729858459961 10.173123411902505
Pd 13.546041819326028 7.965882794920784 10.551302585152357
Pd 13.421283018058142 12.529100845238103 10.817759166399924
Pd 8.070193088862888 7.579714533220621 10.708260130484028
Pd 6.348606966009754 11.935930869083764 10.790567491196871
Pd 10.225486844924333 8.914982143050086 12.103098323346057
Pd 11.094266803793008 6.755930038669812 10.86296585464233
Pd 11.384256281046671 14.06695255565551 11.68352311509227
Pd 6.990493641975994 9.335807705285362 12.568429804683687
Pd 13.684851242960459 10.25854840414224 12.367417458338798
Pd 8.537315631538803 7.2155175924826365 13.263009683742155
Pd 8.816752778637683 12.991111410082457 11.830565793171704
Pd 11.096121657455898 11.431973509416899 12.05638128213544
Pd 12.421241198232472 7.994097590439984 13.055770374096213
Pd 8.991225163574011 10.783954152043766 13.531183454046536
Pd 13.113517738716599 12.719453279874505 13.461975094470215
Pd 6.687360067626294 11.926836974140166 13.358347200951458
Pd 7.784204604311861 9.050203430891788 15.090869130863604
Pd 10.485603276414649 12.928408555956294 14.144812943434362
Pd 11.928506179517814 10.464125952064414 14.351438188943693
Pd 10.35059350606896 8.430810154714958 14.780765899328541
Pd 9.838485119824062 10.817504402466534 15.993876689306438
