40
Energy = -170.96782428 eV
Pd 7.727522043181014 13.223927829005667 9.75827160301555
Pd 11.234179213357367 15.830573894481043 12.534042302365354
Pd 9.47859922977296 14.505189153123048 11.21127630251074
Pd 5.9285984938699015 11.60338338328124 10.9446746193753
Pd 7.779325548800693 12.887673344788896 12.46819959492837
Pd 11.674161540594392 15.047719608051999 9.85548520786814
Pd 7.263187309276723 10.785433514381815 8.744984123802817
Pd 9.70048277742817 14.078245194610139 14.042736231271197
Pd 9.799935860049235 10.187295887635752 8.492806164158488
Pd 10.297212703050416 12.63162477135988 9.394163488779325
Pd 12.419933335644451 13.345432264941483 7.815092961495631
Pd 12.410840762928736 13.799366171067653 13.77806223266075
Pd 13.584619032786504 14.889663222512871 11.764253616159776
Pd 8.753407712114498 10.956435512278139 10.97494611515939
Pd 8.39737185769061 11.821537119628687 14.791297396458114
Pd 10.716703491691801 12.419373686099506 12.27369334645551
Pd 14.301697241524215 14.656568764693663 9.219915574584034
Pd 6.697277971540244 9.041598844485218 10.706956374999379
Pd 7.005024316755438 10.299414053286617 13.061718246135825
Pd 11.37287106173484 10.21465753959723 11.009161055654147
Pd 15.132082562381866 13.76171589311574 13.65872909243082
Pd 15.31794915448352 13.02734899312028 11.11929136093478
Pd 14.635696496692718 12.030394469788318 8.690533799725825
Pd 12.691539452895512 12.686524130929953 10.533479469781843
Pd 11.06770678782652 11.738165114395951 14.843354253630732
Pd 9.190230765008904 8.400893278957865 10.246760423469379
Pd 9.620326439886615 9.972673749250083 13.325709377857034
Pd 8.150657665092229 7.858540567700864 12.596880732145753
Pd 12.306378329156058 10.788493758647487 8.506707389655956
Pd 10.815165985808076 7.79525546686318 12.221174007562132
Pd 11.828792999475654 8.258593027040565 9.413908809014547
Pd 13.867511040896709 10.751320687408237 11.804270317169138
Pd 13.727233478562688 11.600172065551565 14.272041923862567
Pd 16.49665963935087 10.869604554254188 10.227308318988934
Pd 16.14589486052182 11.262206430238729 12.98281804588522
Pd 12.149230713459096 9.597604848905924 13.67987235910092
Pd 14.317792319593503 9.44689429001527 9.603085277430534
Pd 14.69824749464804 9.08272508828117 14.000180486081689
Pd 13.371894388204465 8.092358531113446 11.76957120826667
Pd 15.948969196054016 8.776312568901455 11.68549806295948
