48
Energy = -207.46840398 eV
Pd 13.153773953051921 11.281523590035347 16.16536966005909
Pd 13.48897214021987 9.05536906421392 14.763005818963464
Pd 11.062441826224497 10.22492155592351 15.087856511990092
Pd 13.531418742109562 7.2989188703319385 12.788403955461426
Pd 10.902015630793569 12.739486028570308 15.966511903425452
Pd 11.113009347959265 7.866520673225945 13.818842894189356
Pd 8.764115214324935 9.033355521519209 14.430903796877889
Pd 13.384447870995734 13.530489737758877 14.911961528119633
Pd 15.331180829140829 9.215755015535331 12.515529114071903
Pd 11.615123867791713 12.48586494480177 13.402155621872947
Pd 8.934500146062259 11.69561022552641 14.213670925782456
Pd 16.400677320545952 11.621427908417319 12.166644606446093
Pd 13.040066696013296 10.302676364728265 12.605614667889236
Pd 8.679037150011025 14.06590016896627 15.213401511561306
Pd 14.9818471997453 13.656512841731844 12.879092238045438
Pd 10.416240363959316 10.233708415043825 12.488314816342504
Pd 11.525422222391263 8.095139471995981 11.225987511013715
Pd 11.021804824520391 14.981682312170049 14.40068765343713
Pd 8.984800524107419 7.867197905359073 12.047565499949325
Pd 13.292330535444929 12.666171075477289 11.248001262555889
Pd 13.995485905352005 8.165233447082455 10.282658237023185
Pd 13.393268332240822 15.693764069443857 13.391868204582195
Pd 9.16193839287573 13.919786394257514 12.621039294613205
Pd 9.741683428642185 10.026997935467994 9.945645175360044
Pd 15.658126868363622 13.23478648720631 10.165332113413415
Pd 6.860747396056777 12.637183509428468 12.854804111441702
Pd 10.67498836245402 12.359528903706096 10.900641969899475
Pd 15.027201592999482 10.637302232131367 10.20848004790378
Pd 7.7723476739791755 10.252089174523581 12.196669613590089
Pd 11.505647347855199 14.861981297782995 11.764912899712323
Pd 14.007772850489365 9.561075581741289 7.979780499935568
Pd 9.586172437343597 7.116484220086156 9.574087149954078
Pd 9.447721108038555 14.701358853438665 10.073027004150335
Pd 11.829136513271454 8.14778639661348 8.575487433969995
Pd 11.935352741410787 14.193055758211349 9.210305145314438
Pd 8.049808252612603 12.469677318426951 10.50461512429386
Pd 12.344514531173356 10.436962823439542 10.078186837397162
Pd 13.971989624368552 15.29255492165667 10.815515378661319
Pd 14.370763938561259 14.660532276944977 8.288804670707037
Pd 5.9764168755837295 10.88117023447766 10.378999863550257
Pd 9.750855001022718 12.632627545126493 8.416001527817285
Pd 13.647967465653943 12.177044753458338 8.424936552351078
Pd 7.488773794944882 8.713863809397962 9.91841064144081
Pd 9.37638412466139 8.907636675015423 7.628694036846885
Pd 11.537030454599236 10.623436593933246 7.566989820655737
Pd 11.76478762653815 13.124180420586125 6.79877391872312
Pd 7.625729109237916 10.907854775343525 8.288088152109806
Pd 9.333390718756373 11.205040774239112 6.266951951028716
