45
Energy = -194.00346774 eV
Pd 12.678814976131118 7.246647357153087 8.382194394351396
Pd 14.074960030560767 8.849181751955738 10.074497380105598
Pd 12.169744181443667 7.053585505143283 10.941758964519714
Pd 9.940392169982216 7.404313776790293 9.245013514826425
Pd 13.196693706777587 9.873411454065822 7.810208518561312
Pd 10.960158645558787 8.667438897604796 7.038808896076749
Pd 14.80187326795654 10.82938422469372 11.66518332053082
Pd 13.752109042511565 8.456570102452007 12.664736608822107
Pd 11.688466001000752 6.832652583865181 13.490646880587468
Pd 9.823376346637147 7.903537401058807 11.891113792088554
Pd 15.174201426141085 11.115409063643574 9.076186012771558
Pd 8.826384668348522 9.736612708792485 8.146517696592094
Pd 11.446950093251687 9.416415452851925 9.845134114477613
Pd 11.629566180265034 11.09172309291193 6.019551123693657
Pd 12.68995867584866 8.627264899296499 15.147217629967937
Pd 13.394705689333854 12.491544486265546 7.632649665474189
Pd 9.279377344828234 9.94072351370665 5.518505631942414
Pd 12.69235636744961 11.608979368673022 10.383767035597533
Pd 10.033089178168137 8.70391136651107 14.517428620698194
Pd 11.57925056864032 9.83439818533716 12.50735756772233
Pd 13.882946757285463 10.763447259422705 14.080273008405017
Pd 9.120481041020808 10.118662438220088 10.686004951231874
Pd 14.3836956799956 13.517383451467131 10.119553454092188
Pd 14.374424932415742 13.21660235233206 12.876347756971812
Pd 7.931269842893838 9.342039878792335 13.035610923199911
Pd 10.802613298258533 11.599528199712534 8.45375861720428
Pd 6.6051778188498504 10.733187713362167 11.118196584050477
Pd 11.378325564874364 10.873556048263561 15.159145672288414
Pd 9.486991173779302 11.517834026674155 12.932556189200472
Pd 11.936825010356905 12.429287680111848 12.929754153973931
Pd 12.319876236169472 14.616689693186089 11.47515601296274
Pd 8.902351536373287 12.196533668899383 6.749228436861754
Pd 7.978908515303261 12.089857624455936 9.294205255127173
Pd 13.14777196179636 12.888890119256057 15.439768274410566
Pd 11.143952671262184 13.672451961313918 6.549569605708513
Pd 10.258119557858073 12.830096968569332 10.708724198315524
Pd 11.943374653136193 14.17221605035478 9.01837124283577
Pd 8.69099726442654 10.966984313459974 15.306305498787916
Pd 7.733755080301144 13.128206662573284 11.745194194246901
Pd 12.285591679757868 14.97313368458109 14.046597936627292
Pd 6.521147146832701 11.472568949575928 13.66960356486558
Pd 9.349911669620099 14.188681077499508 8.493127607950202
Pd 10.483503449555483 13.305857973329168 15.201342282205582
Pd 9.92656796657938 14.448735537173711 12.785987562015409
Pd 8.018132910518764 13.502406329945142 14.379346481989545
