47
Energy = -203.09590431 eV
Pd 9.954133905305973 8.390333492442279 13.912825261125846
Pd 11.170007547193132 8.359876375443825 11.531844326979462
Pd 8.555592849281103 7.85388615047552 11.712825316510424
Pd 13.751659089085623 8.3293973500738 11.299081453765687
Pd 15.17362166124751 7.642461534711777 13.424224472910927
Pd 13.888913349743511 8.869793564975593 15.481752157452323
Pd 11.314721863207822 9.580591720907696 16.018909734601767
Pd 12.499123533613382 7.543569963627401 13.650092972869555
Pd 7.532174668159982 9.528872921226013 13.44117847216017
Pd 9.582410778462977 9.254413304347029 9.688536548047935
Pd 9.402951945331944 10.904268151294659 14.605907605847621
Pd 12.17286597590991 8.909338995239436 9.166301322532
Pd 10.074862118252629 10.898806922955941 11.86324012020598
Pd 14.659784793576145 9.944838391263461 9.273826446236109
Pd 7.370649600035067 10.119802440199843 10.827541443446824
Pd 16.228731713150633 9.17390203146726 11.34920747537253
Pd 10.978251172272053 12.240969826735904 16.197010712145048
Pd 14.712413776900023 10.22452193481576 13.280344765879523
Pd 12.837741005880693 10.849037207887653 11.200414188113726
Pd 13.45721899457135 11.477609597526742 15.431261907228302
Pd 12.048880112906717 10.146577061905358 13.599083773356291
Pd 7.837324683766405 12.080325669218206 12.663958935124942
Pd 10.427981478891631 9.773555834374118 7.272859051838144
Pd 13.988488958743343 12.748425070564654 13.155879096609372
Pd 11.314502953253074 12.716354204322135 13.550693654473815
Pd 7.8106028945949 10.48751115335725 8.210218857709647
Pd 8.97188967423726 13.548942582161402 14.561853903825233
Pd 12.936140281127956 10.778081646994073 7.388693327244782
Pd 10.514032081639753 14.828035669845775 16.320014500479697
Pd 11.090829734793367 11.55217464138046 9.290874271219087
Pd 15.469880390606358 11.736513568705083 11.160656661889217
Pd 8.563131529231157 12.352456568097919 10.021893228697754
Pd 8.573683834574672 10.746293449470208 5.673280538525581
Pd 12.833417529576996 14.080316639616123 15.240308574431822
Pd 12.057506249061104 13.413683666849732 11.12109026509579
Pd 9.495350046374817 14.001716197783523 11.847372749513534
Pd 13.857917141394106 12.530672137931822 9.15232378795855
Pd 11.090683431455998 11.654985146272898 5.571878319486062
Pd 10.72960656481531 15.433898433111578 13.777617729985785
Pd 13.179524964896267 15.283011085057959 12.930833685103657
Pd 9.400320551913167 12.52065289946469 7.470857418525753
Pd 11.985408650319094 13.355715912168524 7.39855707939963
Pd 10.21425186237688 14.303180207782368 9.280673977872635
Pd 14.72306040691727 14.2523451105744 11.006086061717795
Pd 11.204064143537964 15.990724213721009 11.198614051528791
Pd 12.855686457873514 15.069044921606325 9.13726261612484
Pd 13.765385548061271 16.774938726382647 10.897197237013284
