49
Energy = -212.53344398 eV
Pd 15.122244212841398 12.486805855474085 12.655723792968105
Pd 16.122401043324846 10.973540417270524 8.635806383607827
Pd 15.569837853590217 10.33304289561282 11.194835244167912
Pd 14.618572753361605 9.98931224793605 13.630370941099704
Pd 14.911691448963388 12.882288266926128 10.050006468844616
Pd 13.57211317998799 12.122825584298427 14.862647242371475
Pd 15.252141723410308 8.460851919439692 9.27203166833144
Pd 14.527257279254435 14.61083872635734 14.199678302341708
Pd 14.340424294108756 9.700033162682676 7.015670125515336
Pd 14.212905711579582 14.965484772895604 11.485113984148665
Pd 14.0517900019968 12.390224828191341 7.561567563890622
Pd 13.366907799543888 7.6920952639559 13.743801794072471
Pd 12.812519541954366 11.048841278251016 12.028267587656943
Pd 12.413846842409901 16.117082841993632 13.377749839321334
Pd 13.53161608609337 10.58416784562398 9.498344667478884
Pd 10.895520414969269 7.434831077444587 14.76397728558523
Pd 12.271553223528887 9.791341483744967 15.0813645826693
Pd 10.943590534284178 12.037242241520644 14.430535825618179
Pd 13.402190490547857 8.484245005858622 11.234873880125724
Pd 12.053243463162696 14.324071034985716 15.342977933570927
Pd 13.33003439967523 14.803931297943024 8.848896495939385
Pd 12.498919057968248 13.48511399617545 12.751498090375243
Pd 12.122933093050284 12.83083656620552 9.989094073601045
Pd 12.590870142372811 8.207438196054444 8.654236600915613
Pd 11.510403342404677 13.110434478149967 7.369222002719961
Pd 11.896050406829781 10.509221606749476 7.414940609835473
Pd 11.29049452241434 9.119563322528935 12.714833947372801
Pd 10.861881540843973 10.396328151371515 10.019681081929793
Pd 10.215670631079217 12.377678445361958 11.773940780741293
Pd 11.568813317298346 15.327970136234399 11.042609584236255
Pd 9.561093454648823 9.739598200349842 14.653632964518147
Pd 10.788853588281173 7.701645181171643 10.58600526301472
Pd 10.065228110607505 14.52778808783432 13.40430817505839
Pd 10.562076936611389 15.196576701510848 8.67718806232215
Pd 9.482542167949447 12.789075273476266 9.080388954975994
Pd 9.00707513176787 7.525855501630576 12.83648185501959
Pd 9.94126841863003 8.67765697998935 8.173499779791994
Pd 8.939863716289189 9.999938914003259 11.843954764286973
Pd 8.991023016441739 14.76227067824826 10.825580273783357
Pd 8.425806643832201 11.955757876202892 13.81275545584461
Pd 9.475198422471326 11.17894251852602 6.971966767255228
Pd 8.190390630101573 8.001690272641246 10.170628243438033
Pd 8.196574424062561 10.498838495246119 9.16975298665837
Pd 7.618275507713987 12.385799245318811 10.941469066435658
Pd 7.107247725314141 9.507582470152721 13.676275475856112
Pd 7.450129019204713 14.203358034433903 12.89078178412663
Pd 6.4665308869424125 7.492909925012392 12.089685980013412
Pd 6.3771807585683336 9.950937766902129 11.056967317266603
Pd 5.943371834454204 11.842488249083697 12.914009283154748
