42
Energy = -179.9694007 eV
Pd 13.592156057240018 6.488430635751197 10.572560772112363
Pd 12.838166334153222 8.139352770037496 8.740351121862078
Pd 12.071794015771992 9.75962053251089 6.824907887540833
Pd 11.303075755104144 7.824222386184611 10.948606668309456
Pd 12.657747171971483 12.40634425972405 7.0240414633643375
Pd 14.539636286105829 8.974638483068533 10.790314408443791
Pd 10.63886610729689 9.690490412850325 9.067630884903235
Pd 13.718319080080738 10.610993240865854 8.810578244884283
Pd 13.270197119731773 7.806962604382552 12.85156676406731
Pd 8.847519649237228 11.677881014423091 9.58639092744932
Pd 10.088949379524694 11.580638091750219 7.237612885445988
Pd 9.290873657528673 9.470209845964373 11.351503053433824
Pd 12.27835671511137 10.24964706632184 11.29983191030404
Pd 10.761353278559405 14.099719135901923 7.835044781233869
Pd 11.625653419635633 12.165326433004173 9.497364470664172
Pd 10.941332983428273 8.978559571035328 13.417573350958566
Pd 14.300100421242998 10.282176059791693 13.237444752694936
Pd 14.869752137110313 11.63583749191676 11.031274891270973
Pd 14.410132337296284 13.139172742197973 8.85386010117551
Pd 7.300843953414858 11.179824909140805 11.76308352300139
Pd 13.016580736971864 8.888537735459204 15.181005517050206
Pd 10.72191183112479 10.16792292653204 15.870553590039371
Pd 11.953702118074611 11.433775811838453 13.888174107475043
Pd 10.176643454911769 11.870061558185963 11.925761242479274
Pd 12.770180876908896 9.92119985761798 17.579499235845297
Pd 14.94847730404826 14.359037552013048 11.160018629803053
Pd 12.543175358485186 14.720313809391415 9.705807184715017
Pd 12.704450253081584 12.949521007388178 11.809668815509433
Pd 13.906592746059669 11.42443292490634 15.684550165348407
Pd 14.696140605800098 12.92641720748957 13.53934048531993
Pd 9.95956088271103 14.132029811071208 10.362632481528342
Pd 8.915913206458896 10.634449704057719 13.917421376233811
Pd 7.411124214145803 13.641778438094185 10.75428606467709
Pd 10.011353845384265 12.733407213030842 15.209011276331243
Pd 11.788443977754374 12.301651265784129 17.152960316167157
Pd 10.729917089441019 14.301253517152755 13.182784013305927
Pd 13.778804030472932 16.720422109752594 10.867281787963716
Pd 12.588429107283666 13.730261870336733 15.050486572819203
Pd 13.239355631659503 15.286803551526685 13.055693053656963
Pd 11.248782098315656 16.248774590101178 11.4617088135696
Pd 8.283063246893983 13.220726112939184 13.234640365973542
Pd 8.691985736007984 15.655503512467154 12.098495721822637
