45
Energy = -193.94178621 eV
Pd 12.3257554792017 11.996178418300104 6.982035208154001
Pd 13.55458120815884 14.45072503459963 7.602587293545506
Pd 11.009459570192995 14.42034570262318 6.946170087863363
Pd 13.347696672215065 9.919042416341874 8.258871251419638
Pd 14.572803182565325 12.274957417693965 8.57475833111646
Pd 9.68984704069656 12.250435155703139 7.533902746591577
Pd 10.837149094717287 9.761073590240636 7.623504495580075
Pd 11.687354172317415 7.307500258919543 8.557609358394
Pd 14.414954743426785 7.769472874204019 9.152831560473492
Pd 8.152659962446082 10.167780499911265 7.740646858734784
Pd 15.549524697646023 10.16847015629713 9.941605609945242
Pd 11.72647164946999 12.891336987380498 9.33929939246977
Pd 13.758306717729504 14.331508380160896 10.302067080431767
Pd 11.82125614281628 15.788930746975524 9.162965306584516
Pd 9.536600562037783 14.409779957517994 9.214321806309101
Pd 12.002291858259934 9.016886137447706 10.419608468383979
Pd 7.776959731332952 12.374518555034818 9.44924213878711
Pd 13.26172006715297 11.260751699769848 10.69606056831759
Pd 9.292985858257214 8.374192095558177 9.350293338101975
Pd 10.022864768912617 10.899734549658712 9.913429870465068
Pd 12.977809057244816 6.281719236852461 10.787492573204643
Pd 14.279329949934448 8.433962731910508 11.730654911148937
Pd 15.672906392414939 12.712876657883287 11.002023969773315
Pd 7.172437634960682 9.88025999225564 10.155940865029915
Pd 8.798708138817966 13.609856514977137 11.567928312720014
Pd 11.34733052717071 14.499067419180019 11.451296684097574
Pd 15.2474227190172 10.728411213543634 12.65995950328535
Pd 10.96902350379443 11.91236932980724 12.151909401489677
Pd 6.216997170991557 12.309267882506212 11.746733987222598
Pd 12.148607316275791 7.502481902482783 13.038967033298531
Pd 10.374292971361442 6.68172211520275 11.046137265412929
Pd 6.012607954372068 9.512140774170119 12.447399104957944
Pd 13.428326691174188 12.928470333043649 12.715932435190236
Pd 10.160633697483778 9.215771910854757 12.173766009634981
Pd 12.740069728729777 10.107076857322527 13.121482070999205
Pd 8.379316979536748 11.037835971207198 12.156879995753865
Pd 7.691956705545966 13.513543629409355 13.88278901845629
Pd 10.379634986199182 13.946362768248628 13.828173227443589
Pd 7.972399409195486 7.760046119533713 11.650130632779215
Pd 6.600923491268202 11.20960319959474 14.376417228199662
Pd 9.623112887403229 6.913426191975697 13.660042251669987
Pd 11.893391339289117 11.914969147371503 14.799227339378438
Pd 8.13424556228025 9.068049325725326 14.058501946243995
Pd 10.800009062693814 9.232174456979696 14.751969419347612
Pd 9.31974463218003 11.493170776966094 14.552514239482717
