46
Energy = -198.6658725 eV
Pd 14.158910625476178 14.511833588963384 7.975594753619681
Pd 14.610886397254477 11.891378258148812 8.47085425145957
Pd 12.823884538796316 12.67647626835254 6.4828372674721075
Pd 14.229031378421755 13.61363989036556 10.510348461169494
Pd 12.41551106237691 15.522984652688898 9.859960107797258
Pd 11.519483021256711 14.927421031397133 7.255002443662627
Pd 15.446479128778883 11.159827709689528 10.950330408806558
Pd 12.351404907253817 10.566083182876433 8.031566824083646
Pd 12.618581789231529 7.93656283585582 7.9067023662517855
Pd 14.380900281285482 9.334109981198827 9.303073550587602
Pd 12.101433272324615 12.995353335371856 9.061272052380493
Pd 10.206856993461633 9.448128937125313 7.272905902133597
Pd 12.77551952667809 11.12082506146952 10.783763964911113
Pd 9.960963812325467 14.66384100634424 9.346127456513672
Pd 12.671465838332297 14.73336927886375 12.434997896390767
Pd 10.182275676527013 6.828149233189438 8.093369750285877
Pd 10.15341614786365 12.417577068097701 7.384649602590991
Pd 14.69043851587509 12.853124500963098 12.927903819102525
Pd 12.035051545371733 6.320869562936859 10.054929078524914
Pd 10.023653252118484 11.093717853760019 9.777974158011554
Pd 14.077675092185412 10.256681959674399 13.082478796331424
Pd 11.162930052355238 8.784872351138272 9.932908182761281
Pd 10.95891206619036 13.150389950865195 11.369027722021377
Pd 13.358939515564463 8.284427236276104 11.41381701813766
Pd 8.090802366719531 12.89366056133121 9.427390919980297
Pd 8.468007494621672 8.599736117225724 9.071843599742124
Pd 7.981633971835952 10.851162150495641 7.739841005513077
Pd 12.219797834244275 12.323125982260331 13.58165336048117
Pd 9.252355289905951 6.570584812505541 10.61083964877212
Pd 8.864057524897527 11.710265765164932 12.133358162969989
Pd 11.367553731079601 9.953188039977807 12.608413123582297
Pd 13.013285326874131 7.967545552571615 14.039731367129752
Pd 9.118738876684306 9.13512755611545 11.701031107855128
Pd 9.90150070167912 13.677780815405761 13.780180626395547
Pd 12.379140414828525 10.241750465260923 15.250503789122638
Pd 8.555888560198595 14.413044429194356 11.565104694917942
Pd 7.144154810882124 10.537639976241728 10.229136980751516
Pd 11.08354342669585 7.185788850984886 12.392512396433553
Pd 6.865768474359279 7.965385549013082 11.216574251842037
Pd 6.450773386942923 12.731709840466888 11.631203680688118
Pd 9.964564700497702 11.17330087321125 14.631503022315
Pd 10.410314270770884 8.457414208144717 14.645014286215382
Pd 8.510924439168036 6.951561098138495 13.217475550387022
Pd 7.43002287743232 12.046566584909858 14.248007430616356
Pd 6.105520113045744 10.23223485214193 12.598210279051816
Pd 8.028770031193766 9.414912339492014 14.054330566356448
