44
Energy = -189.7038296 eV
Pd 13.518985632163412 11.049669436347402 6.685130014590257
Pd 15.547358644497722 10.55370037905263 8.683530844864242
Pd 15.045757880182745 13.046950767264082 9.285617337098643
Pd 13.850046066185477 8.657250683249565 8.05383625802726
Pd 11.017809276353063 12.043385557434211 6.739175259274921
Pd 11.339869428536435 9.541227440835955 7.422186693335027
Pd 12.865300393847788 13.550054272853048 7.791250443690414
Pd 11.661159663665154 6.955054126794067 8.142314670767071
Pd 8.770120247156363 10.656357319121682 7.258368879668188
Pd 13.011441816547583 11.202676080813747 9.190054513121675
Pd 9.215342346587242 7.962414016420762 7.837402101741419
Pd 14.44858464657092 11.90178961180848 11.611648545393223
Pd 13.70519404840955 6.841916659326568 10.068089374218541
Pd 14.477208441186535 9.385132332911338 10.860664236697069
Pd 11.995385148531101 8.88483876949134 9.995324739374945
Pd 12.752182223847555 13.682750971479967 10.507282901096136
Pd 10.567723537745431 12.340005827220093 9.336319392236065
Pd 8.884088478260905 13.389207931122295 7.587814944019337
Pd 11.049428065961024 6.500658686925097 10.674515937000075
Pd 10.807194030947581 14.870145983294849 8.992527127760159
Pd 12.823635027029148 7.9067093041093095 12.418907647570583
Pd 9.709951000547925 9.953044771232642 9.670456007367116
Pd 8.677473796595168 7.509961617415485 10.364648120274799
Pd 11.745693092184316 11.086773644228039 11.476826982575522
Pd 7.685567367530035 11.79449873418241 9.428843344871984
Pd 7.110278548924632 9.22484799569248 8.991449323266934
Pd 10.710821293185662 6.40410120052401 13.271232720573678
Pd 8.367988670516958 14.28001048458178 10.116885527989975
Pd 10.310172554178704 8.949766301525178 12.121518613758996
Pd 10.631597048714918 14.625961518299066 11.683637472891867
Pd 7.9858394826868135 10.221779293213652 11.599571616399626
Pd 9.438633578935558 12.325062780840597 11.73778965166707
Pd 13.240833982047006 10.351826694272988 13.445843091429335
Pd 12.53550224506943 13.02977233185421 13.126712041714129
Pd 6.297775489028588 8.317851487685147 11.547741647437373
Pd 6.707616166068205 12.714500612868953 11.711786042402194
Pd 8.30886452370588 7.3315397746839555 12.93263749362084
Pd 6.225056704132214 10.49882319460568 13.408690873402307
Pd 11.270398643425303 8.73267292881492 14.529749877344397
Pd 8.161975427263519 14.693829804963523 12.776324731351473
Pd 10.715882431395006 11.27127055763893 14.014584073909093
Pd 8.63150951344478 9.609799395468169 14.211624539885712
Pd 10.26243450379213 13.905995777940172 14.202099724838833
Pd 8.147240663541915 12.239811103865325 14.046045839724474
