49
Energy = -211.33765018 eV
Pd 13.358795370997916 9.126411237028218 6.299257583775651
Pd 11.258064432928299 10.872327260629891 5.5804670464909165
Pd 10.82135058514858 7.819448424358593 6.205804847124584
Pd 8.82519981335831 9.78790525721168 6.206330799945746
Pd 8.403857342123143 7.17754414842612 7.180630247111635
Pd 9.034523516674057 12.620234300262219 5.71264711708933
Pd 13.32848476271584 11.677282345494117 7.3077868485066855
Pd 12.738432025921593 7.146927503767006 8.187663290248283
Pd 11.440967748925388 13.80458709875287 7.003852754182274
Pd 8.505895872544347 5.390439936852744 9.441729173536139
Pd 6.521861002686058 9.00328811138277 7.670844508058975
Pd 7.310454389270702 11.611873683051684 7.656707397147531
Pd 11.440148868674894 9.66080345506853 7.9526720549166185
Pd 10.123541164542873 11.847241429878258 7.853722593242605
Pd 8.808420195952976 9.721753138727594 8.83349261349897
Pd 13.786356897013277 9.451151203045129 9.100299351880006
Pd 6.121397351112458 6.34766109710291 8.292087676140065
Pd 8.627030091793262 13.980198599327966 8.305714771456653
Pd 13.398259053746076 13.983541153407312 8.84612513215891
Pd 10.556436388874022 5.379259692806375 7.6017621817505585
Pd 5.07262243289982 10.868896391970006 8.931786405452012
Pd 10.923016792139784 14.1273385182946 9.830203095123089
Pd 10.276794403249765 7.543786290880037 8.993969722660431
Pd 14.76920530351892 11.855278705264812 9.748112875052259
Pd 5.080734362309631 8.283295235592407 9.999417936172085
Pd 6.594878037711215 12.86226555926362 9.970166140078115
Pd 7.6442620276661986 7.835649610116232 10.001761028123576
Pd 9.009381273355311 11.906648169016401 10.173714158626476
Pd 13.402229720527357 10.311541041030674 11.596781177110786
Pd 6.184423476336195 5.770771375488623 10.909614703713494
Pd 8.607734035668416 14.358488865764077 11.089071027917058
Pd 11.14453523649195 5.431013834238009 10.379566486698884
Pd 13.110277583844587 13.129671033824513 11.599023329655422
Pd 6.4069350739598345 10.336316165162978 11.078943292467327
Pd 9.786845284218476 7.513251409742662 11.48024429710676
Pd 10.991171969220673 9.736242607835823 10.561430196139906
Pd 8.810714347550316 9.863112350954367 11.886423778322602
Pd 12.617875127251128 7.677953012661999 10.934462871700182
Pd 12.06476960647275 11.798197405044016 9.624637546840729
Pd 8.461098201350621 5.550095242259429 12.326566872556787
Pd 10.572347695308016 12.510292167717052 12.143926040544253
Pd 6.763283977917516 7.866382507268018 12.447197561602257
Pd 7.79101683694381 12.276599995088535 12.562638375356403
Pd 11.23109990408132 6.250061575898197 13.113820687773744
Pd 12.331423527347567 11.497060703873405 13.74268311584725
Pd 11.52075830690413 9.027706955182335 13.095223338330516
Pd 7.1051005148640005 10.0537505756223 13.898893994375912
Pd 9.06113079259524 8.026037159276418 13.980450968493335
Pd 9.733519695024867 10.801078880818118 14.138333409628942
