40
Energy = -170.91884731 eV
Pd 8.593271703577189 7.613159895966648 5.578598499957171
Pd 9.94834233400133 9.665461919158123 4.482312026526969
Pd 12.243534316254687 10.117069991998923 6.030562823757928
Pd 11.213516093850554 7.595909575945588 5.705336855204125
Pd 11.051156072303305 12.353636058376395 6.898005717686227
Pd 7.543888801767039 10.066761337674048 5.624697666384957
Pd 6.501495758618387 8.135555630995198 7.099503289667508
Pd 8.343849067634203 12.075306976689456 6.983939207492746
Pd 7.670465732016254 5.6221396930355265 7.194336587268656
Pd 9.904388993741263 9.726468329844495 7.117573203035889
Pd 6.04816133057135 10.882014707448219 7.797092637865364
Pd 9.451947356962636 14.071996118490336 8.403492197375437
Pd 12.259245186645128 8.183677415805953 8.02483742384516
Pd 11.234189449442145 5.619362890639424 7.5106765496716275
Pd 9.395281477019747 7.3019738127699645 8.130316130882024
Pd 12.311391345498551 10.734671757094846 8.679124837135989
Pd 11.809458288388523 13.282411798873584 9.431493576744199
Pd 6.887596938700124 6.855806873736593 9.457580625721592
Pd 9.753711544697044 11.48481449941561 9.127123893214716
Pd 7.865591660000039 9.414747266283182 8.946288085594164
Pd 5.781378020513236 10.929865274585179 10.548121309777292
Pd 5.01716322815795 8.780920098875574 9.225485941337167
Pd 10.389979258944853 9.03162758856302 9.86299793927167
Pd 8.915753982808496 5.183455962188341 9.596637881262224
Pd 11.514457065151896 6.5921897330799135 9.989727054590523
Pd 11.235996307367438 4.012506507486076 9.660086702976328
Pd 12.89861081357887 8.938779253985457 10.637700079039583
Pd 7.433716186989408 12.621973412382076 9.471750086384287
Pd 8.901463889635547 7.393164549578971 11.29535657919984
Pd 11.461148191555521 11.264493329055362 11.21411118489397
Pd 6.118200442815901 10.459676771576769 13.18804324418285
Pd 8.467181469213 10.429442787848643 11.262493314469005
Pd 12.158775964206159 7.0150140918679 12.457317161868225
Pd 9.630474737080696 13.264223892248477 11.126717887281943
Pd 6.470166846758999 8.481354957777597 11.448937596154442
Pd 10.726662684456478 9.112445160384736 12.567725767800045
Pd 10.261570239726812 5.23405580952932 11.9161869594324
Pd 7.262659722501658 12.586424604158934 12.159966409088195
Pd 8.25400819982873 8.94671290522596 13.465814092037213
Pd 9.6585299808523 11.507107443191618 13.27031165775235
