40
Energy = -171.27783572 eV
Pd 14.258224525836587 15.929592949270596 10.628507959617716
Pd 11.773178503806752 16.807587145311235 10.893237443318977
Pd 12.32012115524348 15.135412886911784 8.801773465269028
Pd 14.943738659948972 13.96364028751726 12.230521515348416
Pd 14.26683307586402 13.488538741091686 9.65289627463603
Pd 9.74588124278029 15.65729993321038 9.600301722969446
Pd 12.899751045361018 15.60334928402282 13.04741998734984
Pd 12.113172212548994 13.943247313911845 11.205224754385199
Pd 12.68299673981776 12.55179493718227 7.690185771729829
Pd 10.10958365928049 15.270097794163037 12.24504710262468
Pd 15.900610773896327 11.99700900864968 13.713759235341909
Pd 14.827616859672744 11.106525406764986 8.665039212845935
Pd 15.258564413398338 11.512648878115877 11.203526927600796
Pd 10.509701228400512 13.189876312567236 9.12034699352949
Pd 13.892877589918472 13.705140452226583 14.654497344420037
Pd 8.471009618577058 13.64967440341358 10.773609045381392
Pd 11.25883021954089 13.639291455099672 13.989499816860269
Pd 12.767414181108055 9.609824156499075 8.00599430731043
Pd 12.35452042591765 11.421668725903535 10.130421694990153
Pd 13.102837214296903 11.949913347134814 12.744660449711686
Pd 10.311104266300982 11.924435596231703 11.937666827648034
Pd 12.150918313866722 12.743502015455025 16.392595613478328
Pd 10.510496959898836 10.921570186068548 7.787850543336736
Pd 9.514535171539952 12.614721740583642 15.7536431883661
Pd 8.569407868560573 13.483216999710352 13.429130976748143
Pd 13.858809804579273 9.245254659136569 10.443846111325662
Pd 8.86870547048097 11.144502242171864 9.80600648202418
Pd 14.656084438617398 9.675554291569627 13.037931981490006
Pd 13.889388668095012 11.034972630201606 15.26282549250643
Pd 7.270555355331056 11.55863065224754 11.848975572169682
Pd 11.818321659265424 9.664424617428745 12.267552033996555
Pd 11.277706949667753 10.91855488402708 14.70123989237454
Pd 8.751921976419377 10.83938458947324 13.927419145246775
Pd 10.839201252731925 9.181948182807279 9.808436078595875
Pd 8.931980998757966 9.341801762093487 11.738006700106164
Pd 13.333601452074335 7.430609544319075 12.295078986802014
Pd 12.771613207117246 8.708619240348291 14.655037906724447
Pd 10.078763752375309 8.59183535180093 14.039535899714513
Pd 10.702116150412513 7.297796236867652 11.662388368228946
Pd 11.589029617662137 6.424426648539909 14.026475805144035
