48
Energy = -204.32368827 eV
Pd 12.899765631959877 10.52622324632533 8.515934124008675
Pd 10.794042758258913 10.679903263952356 6.9061215986764894
Pd 12.305542187222926 8.468837337499737 6.909698232580973
Pd 14.93040547498747 7.11632663904473 10.945219973955695
Pd 13.008260218313698 7.893100333283136 9.357880563881084
Pd 14.956400847143058 9.617034362883677 9.867705227854968
Pd 8.267538732992875 10.275178717422255 8.484067968978405
Pd 12.71068407521416 12.886031509970843 9.394009558128646
Pd 8.96720111499381 12.546727744164585 7.33980193785979
Pd 10.53201662751055 8.738256266704772 8.852211217309875
Pd 6.713440173690427 12.451002450565031 8.930415490720211
Pd 16.50448860984541 11.945367638215808 9.84707817211835
Pd 12.44827043085378 7.433814216713928 11.858561465190034
Pd 10.42253267841644 11.56558848058471 9.389561711455015
Pd 16.44920183291216 10.466924936309423 12.03240348421374
Pd 10.885826228256873 14.253278012926975 8.191616856849002
Pd 9.002486547509562 9.427284431198283 10.837309007711333
Pd 8.49865809483262 14.338991205368341 9.292008722700006
Pd 15.00917232155228 14.076105611865872 10.22106566311516
Pd 10.199464037628001 8.31087602393726 12.842526298172283
Pd 12.430722138020016 8.456202537650483 14.313625159894084
Pd 14.305900996840364 9.191489515946689 12.519897576538385
Pd 8.282197802997944 11.944361591331369 10.977712263315286
Pd 11.79472063824621 9.968437344545297 11.036328849783224
Pd 14.851248714050113 11.578191839655602 13.815128964273137
Pd 14.065895938492808 11.681442763603727 11.168391569397745
Pd 9.755109026124085 10.959810676782476 12.86911396396918
Pd 16.406844791766307 13.159547855888627 12.294324727850022
Pd 8.962916228630043 15.543418864788528 11.615563811757044
Pd 12.273415224630279 11.05984095704505 13.402451752992457
Pd 10.595749686249153 13.72079274895241 10.852056595487493
Pd 14.739231933431423 9.368669367260429 15.180643238433385
Pd 12.732178055291588 15.276817050844459 10.609182794092819
Pd 6.784151778065263 14.039813542663847 11.341043713075427
Pd 8.625679350923114 13.320342021484773 13.249878026708828
Pd 13.7650454526181 13.83812625227848 12.607763921240668
Pd 10.21115253958092 9.577001498534926 15.165212507681193
Pd 14.943806109246543 11.746373145690603 16.486707991576434
Pd 12.52440985818405 10.535620725130531 16.08648205202388
Pd 15.479499757198356 13.953120468127144 14.787369091463395
Pd 11.437879937469143 16.26191018984837 12.639368505151776
Pd 9.351047465236265 15.849327059628452 14.14961371730222
Pd 13.252431124546606 15.589150332804733 14.517540255589775
Pd 12.968661114864682 13.022683555574789 15.293996889088762
Pd 10.383491402782866 12.157000118890142 15.305284817958174
Pd 11.237556012804081 13.752482185626985 13.361303039763524
Pd 8.599535493461927 13.957528072338981 15.862639642865185
Pd 11.08099011733215 14.820512601325357 15.823044598427236
