48
Energy = -207.7911473 eV
Pd 14.928809336686491 10.540256367937827 8.788706777275303
Pd 15.507489164889815 9.917254005345098 11.305372245491043
Pd 13.068690541025353 8.947889437041367 7.65964800420213
Pd 14.150260631481872 8.085274529312143 9.98495570187304
Pd 16.05917258255901 12.462831806331112 10.47742128657055
Pd 14.710889584599302 14.921491168887188 10.46101687896588
Pd 14.69336250403537 9.972013096388327 13.924780594068595
Pd 14.201480419678287 13.099629359720549 8.602809006268155
Pd 15.933902783596196 14.14551999732446 12.672156039916683
Pd 11.54873999688893 8.32373438021985 9.624260409829988
Pd 12.68965493263371 8.229450597214393 14.207078774107748
Pd 12.772504125485641 9.618038678126032 11.88852748375344
Pd 14.746950374220901 7.6479728381061305 12.559695497806517
Pd 10.036324109270343 12.46046657259176 9.923619906985827
Pd 10.752257124385613 10.56481430783043 7.883415263880287
Pd 14.302511202922606 12.658090007464986 14.44644517399564
Pd 12.530485769935908 11.040835704478418 9.725798643172968
Pd 12.446889074540854 16.34450459498786 11.001011758417741
Pd 12.352187065279574 13.632878307326992 10.441190470582674
Pd 12.212850748342936 6.985122361402945 11.821938911771088
Pd 13.122141937155602 11.457241201339718 6.881346190812006
Pd 16.5575079572394 11.622149797821203 13.067027245085832
Pd 13.945731397914614 12.06552588783266 11.917481270789294
Pd 12.921924269789985 15.461168787035932 8.476557983972066
Pd 13.3346516467237 14.56906468369714 12.844433592529498
Pd 10.280071570017009 7.053371243281366 13.846767777254023
Pd 12.303868969047329 10.869352344062648 14.57249826324699
Pd 9.713975307777325 9.924181692819479 10.275188649178771
Pd 9.593231677583661 7.4255780655999 11.267035128921883
Pd 10.36357452128785 9.494939830743222 12.859712918321145
Pd 10.368202424736877 15.219682821421726 9.536509049239724
Pd 10.592736870697491 9.023704336180941 15.666318544697003
Pd 11.43972636337883 13.279995562285313 7.8381554145002506
Pd 7.670134425548426 9.2332458887329 11.820603573663512
Pd 11.581944537840442 13.423300387104478 14.578240127719482
Pd 11.273234482269814 11.957203816126622 12.2839766887133
Pd 8.268048818090943 8.91171523844115 14.3673816672927
Pd 8.306014861985643 13.753105382845094 8.505287266614088
Pd 7.579877398192937 11.27436712739134 9.618181049546283
Pd 8.598162968040127 11.757766076721735 12.099354070367193
Pd 9.72506140300032 11.37889444602771 14.747021343557405
Pd 10.759901925564547 14.757657759713053 12.319152451832245
Pd 8.425720128069583 14.31117995405093 11.187522676164882
Pd 7.115029293861212 11.275075092033171 14.22278883136475
Pd 5.903259629099416 11.204288532598222 11.794047861553311
Pd 8.95711639807379 13.727310625641202 13.882390811415894
Pd 6.179130191121266 13.388938965575793 10.185304880866124
Pd 6.480541250783986 13.550807978775335 12.907677420208378
