43
Energy = -185.28558889 eV
Pd 8.499594283348431 8.499571045899325 15.009658327765612
Pd 10.682867210315397 9.912532105788813 14.466232119457237
Pd 10.939366711520805 7.265996512398475 14.735657061909807
Pd 8.229297641162454 10.941346181167214 13.876462090621812
Pd 9.65420883092409 8.127833244793585 12.585695033077998
Pd 7.073732781327109 8.792676607990497 12.787226267128634
Pd 12.860796928367623 11.372117058762843 14.26186580011872
Pd 10.448086077294857 12.466733693430433 13.828740490641522
Pd 12.169151640594057 7.13200521485369 12.298469737968675
Pd 13.126870954029751 8.679288357595977 14.420265139476372
Pd 15.067200449049997 12.859284031779987 14.05982135695018
Pd 9.76616453980941 10.710629164083974 11.739720088075051
Pd 12.659344690318607 13.99914477459133 13.81214137037748
Pd 8.265467876685333 13.20486398781637 12.418093140711509
Pd 15.286513586654483 10.166837195350823 14.15517649641381
Pd 13.388122762634515 7.4573392416349416 9.904222035314508
Pd 7.109503272579023 11.014620487682894 11.31055969697816
Pd 12.233313773495002 9.778817123995328 12.091957284739443
Pd 8.20700332048365 8.68189043611411 10.42567960289451
Pd 10.848584981230216 8.222009141174455 10.20962598886138
Pd 14.592930118396648 8.582804169400593 12.060773955467539
Pd 8.709935412992545 10.905106536633575 9.081655765926486
Pd 12.159442278333506 12.42848044116045 11.681822669357851
Pd 14.677462449469203 11.402768651526774 11.909684149162075
Pd 10.475985230253269 14.758172824979416 12.453187368395993
Pd 9.363293138006044 8.57475663907781 8.022329411992692
Pd 13.96162837671489 9.985596639399114 9.858768328439536
Pd 9.95719092226292 13.03552386291878 10.343607893532477
Pd 12.76063799159336 16.15544215223193 12.279700738320717
Pd 8.415863827189945 15.329576307617595 10.782407096762757
Pd 11.423064069920482 10.768232804409605 9.599848291759915
Pd 14.430952541589258 14.08939511360376 11.748895862933828
Pd 11.961180140745732 8.591293229086162 7.803373981175843
Pd 7.36663327365359 13.140014397251408 9.709578147088047
Pd 14.54655753734938 8.616906716714583 7.699268778723173
Pd 10.685102479481964 16.780424050049888 10.690136323870876
Pd 13.910288235811741 12.633803706518394 9.57001646990307
Pd 12.291412196423407 14.704758892838202 10.140064962076856
Pd 9.038984588288464 12.99156774237592 7.511934904858525
Pd 13.272181724144673 10.989049097264395 7.506549319900411
Pd 10.533421219696466 10.777685703198532 7.048797088574901
Pd 10.021565881079622 15.117023472798072 8.690724296333295
Pd 11.652524053471952 13.039947444293501 8.146463969610126
