41
Energy = -175.19953364 eV
Pd 14.450852487431233 12.020077883607383 9.16133877243503
Pd 14.684597305506779 10.747379778605678 11.421262926236762
Pd 14.68123163258378 8.403142184331367 12.5143667008732
Pd 15.132405087342788 8.549765019525733 9.864889943415138
Pd 14.218480047966972 9.740679664039025 7.51951485941869
Pd 12.309252028735079 12.082358280583012 10.890837796618165
Pd 12.621246775244606 13.999218255038828 9.02098693985044
Pd 13.26695405233063 9.234127928442701 14.652580615993639
Pd 12.22596691512675 11.539795501541715 7.898614394704555
Pd 13.136753542272396 11.602994369028353 13.399426458132933
Pd 12.935727104954891 7.130465301915341 10.81094486533225
Pd 12.82056679453356 9.626437487068314 9.700645900255605
Pd 12.791973846314285 6.799459433186354 13.487474708345909
Pd 10.728645884030644 14.427691704002223 11.035706029354921
Pd 13.048125078265242 7.369353384727311 8.173566323872235
Pd 12.220917910823893 9.426341395522936 12.228369770587593
Pd 11.249241569377192 13.67207409624193 6.644822303703054
Pd 9.73815924376776 11.327788398604444 6.898004843072486
Pd 10.38205759869282 15.430032807798046 8.542070480615138
Pd 10.201538669451365 12.732110272450544 9.119430124607597
Pd 10.781493218114738 8.235904940277857 14.549149145209519
Pd 9.780716446095353 9.91042497103555 12.711646515568948
Pd 11.203283698883856 9.163186013372936 7.4085387673201035
Pd 11.007193791387591 10.898696415856474 14.862769406375419
Pd 8.626697318474145 13.872713012639657 7.1515685101973485
Pd 10.33108194029549 10.244478166178418 9.97036782206367
Pd 10.714657875521564 12.658968901372903 12.909578196042705
Pd 10.610066392284052 7.202117732570894 12.040698270559501
Pd 10.582872102057484 7.608464113584035 9.437472829919667
Pd 8.243785977635747 14.417649918978775 9.806349337465425
Pd 7.72237563668861 11.840345620820488 8.555734933909564
Pd 8.660611924285417 11.838106394679222 11.239202986508941
Pd 8.484198445077055 8.330795851793992 10.94868445382348
Pd 8.445516431868967 7.506806416779744 13.533756627454594
Pd 8.576905382096008 9.267149531922636 8.394520728950983
Pd 8.38555668018837 14.072897627390986 12.489332845745729
Pd 8.526149939224704 11.830590544407942 14.178091497194071
Pd 6.159275217136975 12.920136486581946 10.336161618044542
Pd 6.769716114545122 10.243768754876966 10.399739120009082
Pd 7.166918024366945 9.7360998891851 13.027944129355385
Pd 6.331110969430717 12.22349041821886 12.806410480395037
