43
Energy = -185.67428411 eV
Pd 14.110321768090367 11.55630524023428 10.021778613249666
Pd 14.004605711562418 13.94852048233855 11.528178127405228
Pd 14.919451969393412 9.687935734796906 8.316727433218684
Pd 15.518975236416273 9.336408856187806 10.932615739894594
Pd 13.052678921290767 13.688302607095693 8.834174056829594
Pd 14.876091608925762 11.488992845066393 12.589070244862459
Pd 12.951193527779848 11.353652528898323 7.614657495437142
Pd 13.57903522354766 13.086914219227502 14.212570343770112
Pd 11.49055524480014 14.684761634447183 10.664721310966824
Pd 12.209484867192243 12.09198010309031 11.855895090774181
Pd 12.626930540869793 8.792519792722016 7.1549755278782525
Pd 13.42657994205494 7.896974599255968 9.564791462074815
Pd 11.703812385405444 9.98245085209344 9.70523324299799
Pd 11.761080870486062 14.625315495739743 13.196283832716354
Pd 9.705880351728949 14.636289251805668 8.706539445101354
Pd 14.120254857499441 7.05916502478179 12.0450878791885
Pd 10.8318713278852 12.387780975626622 9.443987073790632
Pd 14.90197679467663 9.015198186400404 13.70386129058358
Pd 13.116158047191151 9.555791508549557 11.807587719961203
Pd 11.028057053028736 13.017354519144783 6.852438104152407
Pd 10.3847862960721 10.299357229153838 7.437619808929389
Pd 12.785433903774694 10.578661780362152 14.289223302087397
Pd 9.051874399110345 15.213261696126729 11.338204870932202
Pd 10.536842830944417 10.01116288454616 12.21809977375025
Pd 10.743768684357878 7.751867299767832 8.743375033891631
Pd 8.621054569803386 12.229841129886996 7.698136884668481
Pd 9.591675845221587 12.62833226483951 11.87768160314423
Pd 10.879780213835728 12.31527957197454 14.284484104522146
Pd 12.228728739920369 8.045322118504416 13.901218815316058
Pd 8.93558897305791 10.649402056744508 10.13496933739521
Pd 7.787070530064789 13.238783095763 9.996396318940931
Pd 9.247873837225317 14.43534269841952 13.911960740707466
Pd 11.528990678112836 7.405703509313832 11.35401557876588
Pd 9.065322266195157 8.010141605137697 10.776778727487107
Pd 6.5798527884433495 11.045915063757908 8.887143020593646
Pd 10.113772887770876 9.760764633171405 14.755687416916036
Pd 8.045819207877232 9.41062990678981 12.88447941803847
Pd 7.048097836109976 13.81700982167999 12.553787307954975
Pd 8.304761980982901 8.88034630497243 8.345660991118603
Pd 9.7123972663644 7.433313071169742 13.310947621184722
Pd 8.281812340026987 11.803901599886343 14.025415963709404
Pd 6.796106587079028 11.371287637031518 11.678893557800228
Pd 6.631236444218212 8.978158749911753 10.58760868114292
