43
Energy = -184.71124285 eV
Pd 12.114758131910477 9.364921332973974 16.458940048506612
Pd 14.090798316417997 9.695250440235055 14.610208969361727
Pd 14.193189465221174 7.278936960468642 13.215757034685536
Pd 12.067000041643816 11.538924566313582 15.043985954574119
Pd 9.821084749679674 9.607057064606803 15.05604356337782
Pd 14.967102055839403 9.471455501377413 12.044962656395686
Pd 11.836725472409775 6.391477288142814 12.253642057402995
Pd 11.950960261573867 8.34376635275685 14.073996122231415
Pd 13.517650122360479 11.551501697291924 12.783147745979061
Pd 9.522566004407004 12.25317466945792 14.52941198835111
Pd 13.774427090237799 7.21810586493364 10.521021610947955
Pd 8.167291634327876 10.326735129377676 13.063776455415221
Pd 12.336017183186364 9.090855040973885 11.534166313546727
Pd 9.713680111646612 8.041964643072392 12.682265155491724
Pd 15.226665251044775 11.837558192266675 10.792752635944758
Pd 10.832921791972977 10.678257059268203 12.823953532965266
Pd 14.08638065149594 9.785068458629487 9.546501660536807
Pd 10.808474802116395 7.4247945145478695 10.066504644256838
Pd 11.75236228476822 13.42393907004568 13.243651431161313
Pd 9.317549872993618 9.624496281444777 10.665093642054634
Pd 11.952405772617308 11.668849041862106 10.614103620950651
Pd 13.341235722279395 13.829597051033762 11.079569848259059
Pd 9.58925378554555 14.787326289126156 13.839053959664598
Pd 7.480233725521854 13.097920132171401 12.962772630989102
Pd 9.668442406742539 12.78374997729229 11.588426845449575
Pd 12.778320859043792 7.786602897274247 8.119185224998832
Pd 13.605147851574197 10.223636759682298 7.017570641750838
Pd 11.451940916798181 9.849044042700836 8.865474392935948
Pd 7.354165129387088 9.952325637260264 8.741105490971545
Pd 13.694505470157015 12.397798656265673 8.714042009922935
Pd 9.606945563902457 11.750296704758338 9.128965651378644
Pd 9.394180504447368 8.459441643448594 8.096170851717718
Pd 6.470745516507296 13.899137955471817 10.46462003357361
Pd 7.411233404857285 11.500843120914462 10.838569870954448
Pd 10.930003869753813 15.110891943853826 11.358149833537679
Pd 11.205059580831119 9.253610379109345 6.2641062100971086
Pd 8.227621947242639 15.469094695501132 11.745872770427962
Pd 11.46214196463876 13.852807904191597 9.026465841348388
Pd 11.569256946147712 11.870026464854192 7.13593914965042
Pd 7.247163335923426 12.568418283094307 8.227579732455158
Pd 9.000469422349326 10.832577885632874 6.760715951127049
Pd 8.909620688365887 14.392336975646495 9.512261162106396
Pd 9.535821762438085 13.562034573019478 7.05958197889112
