45
Energy = -194.36318604 eV
Pd 15.48086673931119 11.509020428646881 10.217155890387021
Pd 16.361793969432476 9.14104989019362 11.213572309012934
Pd 15.00710688362651 8.322832612934873 13.326110746244419
Pd 14.150976096359758 13.758632573750807 9.423702376013141
Pd 15.777609171869512 11.003747025226996 13.026146624084063
Pd 14.170796271913654 12.943899894410947 12.04560992328136
Pd 13.989645179763167 7.508348480252488 10.824013989234462
Pd 13.565531420958074 15.471109983083965 11.430506518560144
Pd 15.137042562946622 9.191324785737983 8.908723725882432
Pd 14.484930634930588 12.721898596499098 14.656599831080653
Pd 12.583060320531539 14.33331658950586 13.677539708453425
Pd 13.85541909925232 11.356534704405938 7.922382728534387
Pd 12.095187484545098 15.630029025538038 9.232655823329152
Pd 13.491476429491417 10.30098678135679 14.318939825923408
Pd 12.534415312355618 11.78790118872458 10.102312664037354
Pd 13.710272196477012 10.014576266488836 11.543826550654902
Pd 12.368860157276306 8.201991399462438 12.971976264921242
Pd 11.83626201088908 12.254804674905786 15.33466268394761
Pd 11.802210017489045 11.754585697892397 12.70340743386473
Pd 11.932137464778261 13.31144723823305 8.016110780628656
Pd 11.326189403946467 14.038094120248568 11.252606029418713
Pd 12.57617898841817 9.062880716478197 9.056154757799577
Pd 11.126190111940998 10.806980815831091 7.670144961599347
Pd 10.6478770644872 15.358000224487919 6.998160402161396
Pd 9.514794334897806 14.65318377988806 9.262145565843877
Pd 10.897902169109505 9.85866532471691 11.042628187557108
Pd 11.261608807302057 7.207039556422535 10.652877101440486
Pd 10.918499295378613 9.822378352055722 14.47957838951692
Pd 9.984659261265463 12.023584581599474 9.794547886427203
Pd 10.079979809899307 13.58707351444776 13.711836584385265
Pd 9.75766581373853 8.167346973301518 12.736463661317874
Pd 9.9695538742436 8.656147022026015 8.775371423957882
Pd 8.458972608860556 10.57044280048932 7.673335169966979
Pd 9.424586763903658 12.963691620281438 7.175848682222404
Pd 9.112645628438356 11.046131453798486 12.723985506363256
Pd 8.656739479886816 13.621693443219813 11.488986218781367
Pd 9.124480070719448 11.611286080507794 15.335814909593031
Pd 8.14943731460271 10.062441257774694 10.219172533185146
Pd 8.440028037561916 9.007129400476636 14.865184610536051
Pd 8.448560926190154 7.449808726369513 10.579254431528502
Pd 7.491428221981469 12.636199096408228 9.276153569605107
Pd 7.496319941791936 13.258936831474273 13.814708782384491
Pd 7.226677146164099 9.033941311776905 12.456175356952674
Pd 6.690581087721513 11.69598710164156 11.727292381969312
Pd 6.628615592953836 10.835452797919789 14.310330795607715
