42
Energy = -180.55016766 eV
Pd 8.20217199663428 13.212000448337855 15.177509449960429
Pd 9.887228545601142 11.368765539675945 16.189667602878174
Pd 9.002237251139826 14.977891613661113 13.275866226854195
Pd 7.188736634819878 12.938905074542696 12.753479629871482
Pd 10.736424208674242 13.154219779324384 14.353832762764887
Pd 12.403531790457428 11.277708624989378 15.340294020627127
Pd 8.795105570399029 10.979808744302792 13.777413852679668
Pd 10.590224148322042 9.23054229611577 14.75631806590228
Pd 8.063140011863297 14.697923785791323 10.816166421021842
Pd 6.345872764736556 12.676296176717441 10.2700690114193
Pd 13.292436234017737 12.96743507151088 13.457031966948255
Pd 11.519606263573083 14.819284943785524 12.427179025904845
Pd 9.688784274065801 12.796208689839688 11.826170540016717
Pd 13.1411231502566 8.719721825457494 15.26741001120266
Pd 7.855059084444592 10.707061650008542 11.297757794504292
Pd 11.429144981398933 10.935859287485771 12.86189233768939
Pd 9.576052528345096 8.878976197401391 12.284036441549395
Pd 10.527541456991118 14.519652597875394 9.801207915303355
Pd 12.347031154363375 16.34356434034284 10.392729584004588
Pd 8.790719610963436 12.584351205024538 9.225346156204239
Pd 14.120758316822073 10.405468177084476 13.449539262705356
Pd 14.751097455457195 7.791905252705878 13.294175264251056
Pd 10.465394178171401 10.646283572650537 10.316773271203447
Pd 12.177528073353397 8.288894872221798 12.783518440572594
Pd 14.940186841801362 12.074341259697656 11.53838203669044
Pd 13.107518046381259 10.049799962737566 10.864401538096782
Pd 14.019016462495648 14.621794417007598 11.457609881779467
Pd 8.731587820751999 8.673373053112297 9.737895049727168
Pd 7.098490802379582 10.56035270780785 8.742509733465322
Pd 12.277092584751 12.654397872208772 10.887503866970487
Pd 9.570167861222169 10.413309342585649 7.768190463691058
Pd 11.28672374154882 8.011220712125397 10.297597288575767
Pd 13.059535290245543 14.308239495447744 8.873151521159532
Pd 11.314044010904265 12.380357582492929 8.283391681522815
Pd 15.663748887464436 9.423585340122568 11.418684724899737
Pd 16.372021949366435 11.095013096060216 9.503678828356747
Pd 13.85053321941088 7.445799491976656 10.776056642164567
Pd 12.145701935998336 9.780206254272603 8.265513685965914
Pd 10.354043284948784 7.886322085635088 7.806099201733607
Pd 14.659474564334703 9.096559725815661 8.862207938985405
Pd 15.56922221756753 13.691814131363854 9.507307442295357
Pd 13.883959238097797 11.721925510194634 8.814229695147954
