40
Energy = -170.90248863 eV
Pd 12.397631796949748 8.666364887891508 7.347055009133426
Pd 12.96909245686363 11.470401044951616 7.673334672089906
Pd 10.906246941759026 10.555252421491543 6.22167921899323
Pd 14.798857778926342 9.551219513838872 7.879894213898572
Pd 10.52356473601576 12.604194126832333 7.889375832779088
Pd 12.443943084798674 14.371426806029566 8.389178552956224
Pd 14.740730132668846 12.011320798820002 9.710725358647759
Pd 13.34278657557473 7.248629810080233 9.312365468273919
Pd 9.758277407310283 8.378202654777358 7.258690012043076
Pd 11.03981932339942 9.979375500515214 9.119145415824653
Pd 8.59997236583839 10.844714000642611 7.7013833577179955
Pd 10.101430412960912 14.346751918701148 9.846997373544966
Pd 13.554871465784283 9.716635765297488 10.107286833042359
Pd 7.958442994489205 13.258251328689934 8.70306847004807
Pd 12.185526685383945 12.430289699480028 10.043598485019178
Pd 13.733850070818136 13.41816358590989 11.864094115797666
Pd 12.227236244953998 15.35538072249619 10.94901958249983
Pd 9.525461396293219 11.622126738956117 10.371945525117257
Pd 10.706187919348526 7.340175208791974 9.576544174349822
Pd 8.361253088986595 8.961210041406686 9.442395129203694
Pd 10.537783505805178 6.141731793302865 11.967540679953812
Pd 14.354278972581852 10.86877288581331 12.306362990774142
Pd 12.360999077118096 8.00529958483717 11.728193558744568
Pd 10.828991649371229 13.04566126426806 12.26894530366236
Pd 8.298710756055794 6.659744349009506 10.600853300945573
Pd 9.683666639922256 8.907103368497602 11.713534890147164
Pd 6.922973316312619 11.159369678938944 10.100668676811255
Pd 7.970393196744188 13.579233574317692 11.385535553940324
Pd 9.785151752757347 15.415067415254414 12.330455872778549
Pd 12.809648003437704 9.459492889272585 13.989521043402066
Pd 12.191976410598564 14.79559940811044 13.607832952151284
Pd 12.642469406587093 12.131574035306745 14.039398185676456
Pd 11.69091414830521 10.603257192029545 11.823145060194125
Pd 10.605470690599809 8.036373884087757 13.971459620307785
Pd 8.274755964864202 6.89423066814453 13.218661382096377
Pd 8.897201083206225 13.27193654069036 13.944164075782282
Pd 8.09935175569379 11.19564074277225 12.559289446605552
Pd 7.005633751710748 8.891003853192931 11.756334815829264
Pd 10.307734450595161 10.818741838614121 14.078569414882633
Pd 8.171541875951329 9.276762266617567 14.296164197802302
