41
Energy = -175.91620561 eV
Pd 9.73859563775492 13.76228817173272 8.38005675877956
Pd 8.103648827918535 12.802240137061519 10.223058925855959
Pd 11.680614041729966 11.864210343260003 7.5081044706727695
Pd 9.69640201149023 14.76806630711783 11.133602058160113
Pd 12.24911116133374 14.444726820591628 7.357288839078852
Pd 11.18678970021194 16.0139409474937 9.323867729162718
Pd 11.138253426139498 9.246522194017123 7.508296002258613
Pd 9.814400549519883 11.082806919756111 9.13740747510533
Pd 7.041506730039951 10.356588565694196 9.931488618789196
Pd 6.463554636569572 11.998033411150864 12.048844068405106
Pd 8.401320488005078 13.45871114007605 13.104631471797555
Pd 14.03654585691446 12.757480609124297 8.492123688274203
Pd 10.226376320321103 12.133878851120045 11.688302669360063
Pd 11.770382801293835 13.458993450914315 9.891180729731623
Pd 8.833861831171737 8.58101994486338 8.858415537348415
Pd 12.557392422060252 11.1395464499265 10.447012596581084
Pd 13.805007612725785 15.28596110466908 9.454318467153222
Pd 10.717680954876533 6.683471105655296 8.656152036072783
Pd 12.405317720043376 15.197891256501046 11.753864543582807
Pd 7.204673020083339 7.677867019721396 10.738404229489813
Pd 10.690269683010563 14.571464411999278 13.667542419568283
Pd 13.19969872030516 7.537154639943786 8.532384001417183
Pd 14.269194294297941 13.243956126444981 11.171864313715202
Pd 13.632072029259056 10.120243497057578 8.223619119350392
Pd 6.27043600393835 9.39857365263501 12.489932388213093
Pd 11.338456729051838 8.892685402742908 10.09076340060819
Pd 11.456973831756917 9.889781563220886 12.551982970480603
Pd 15.391292879884295 11.073922546497114 10.075586508710602
Pd 12.438923441252753 12.706111869771627 12.994632732243678
Pd 8.265891809217994 10.766928775474227 13.569421407793907
Pd 9.708976379660312 6.947841241528764 11.08890992413727
Pd 9.065892039715134 9.687348731946683 11.365787352928574
Pd 10.372507235057002 12.058956772647015 14.545328683555875
Pd 13.99734911689233 8.87565302213274 10.697719921050366
Pd 12.444750609763432 6.727336157486771 11.13228359306826
Pd 14.317387605560075 10.849059163058826 12.551331995123325
Pd 8.466976734813828 8.005213851880079 13.285520534155028
Pd 13.477748350804724 8.342498744432838 13.251028341163398
Pd 12.682976850208817 10.578381405454873 14.737409235430402
Pd 11.051452143641447 7.366213326577358 13.344348663201364
Pd 10.207162233537948 9.406135579228808 14.83237874999824
