45
Energy = -194.49257534 eV
Pd 10.335376042709095 15.920947518140068 8.954987280608732
Pd 12.479285881001683 15.515575075733542 10.496291644826576
Pd 12.079521677257622 13.769561359705687 8.490883937606743
Pd 9.992720548791763 16.14194887614609 11.61198112551009
Pd 14.568567146724721 15.11663615059675 12.053184842492305
Pd 11.895069517961767 15.397362476179065 13.350809008818242
Pd 9.470729646638272 13.613704414894332 7.961984190331277
Pd 8.118202192309923 14.796138245717616 10.20670094282017
Pd 14.222905851266924 13.299372793904443 9.963654756984798
Pd 10.415010139591917 13.668973498141847 10.60474216268086
Pd 12.535659727442937 13.286208801597057 12.023536078966691
Pd 13.9107455136218 13.91128970013778 14.385604572926495
Pd 11.242553331848237 12.177787822687403 6.582878048842141
Pd 9.531355071467356 13.973639272433903 13.094737171245605
Pd 13.536021925074612 11.357645229623156 7.974772781632783
Pd 15.15555537961594 12.54084496544293 12.420137270470326
Pd 7.077117995340511 12.866661297387601 8.738668499514107
Pd 11.482921451053961 12.780315111083848 14.44129142957788
Pd 14.654513639728226 10.602711649602245 10.395371429948417
Pd 8.66925852566238 11.15706927063007 7.088428342680231
Pd 12.067643015859822 11.450315430420758 10.048922602747512
Pd 9.377869057872836 11.467592046562114 9.596548818949556
Pd 11.01052346444176 9.965004579246175 7.807300192873355
Pd 15.527634876877688 10.002790482245336 13.059815494344845
Pd 13.051042422694735 10.79841175024056 12.569175092443945
Pd 10.648408413608687 9.286067811382038 10.44563692528743
Pd 6.731676583475244 10.571161734139356 9.899618900053133
Pd 10.49096283251978 11.36241569297099 12.193030022581903
Pd 7.918288394092689 12.461182161803437 11.60260055931241
Pd 13.803349295366438 11.324822457265302 14.957381810275049
Pd 8.957454470834415 11.535350510266229 14.209789326291105
Pd 12.992694419506805 8.836015958281944 9.208886684973729
Pd 11.306918582478126 10.221547333998787 14.923766447962043
Pd 10.676429969828288 7.42039777914935 8.482007168950462
Pd 13.641394978470737 8.701803153199352 14.478962638937535
Pd 8.271741055985233 9.775708224422706 11.80045461518843
Pd 8.51895684482635 9.004041844319795 8.753038213171076
Pd 13.966547146618174 8.285820136280321 11.68329586553255
Pd 11.532280586848174 8.685306964350756 12.733337206703094
Pd 8.992957692622957 7.378021703754742 10.828200149821733
Pd 9.256292461493045 8.794108554203808 13.949450253548413
Pd 11.849094478113134 6.828505495812883 10.801501522956766
Pd 11.311899831407851 7.527402821478037 15.213567702062699
Pd 12.89812068718772 6.37491515018829 13.286606162638385
Pd 10.181484235480266 6.415884640911436 12.994161320543023
