47
Energy = -203.33480224 eV
Pd 12.8112312942584 11.896162850496884 6.896031450223702
Pd 11.921224951328236 14.1961889002649 8.401541082482076
Pd 10.298310159579238 12.98044940785507 6.731067967985497
Pd 14.220109000349552 11.157791946722984 9.245920111872145
Pd 10.515027572428497 10.35870373310094 6.83346528515778
Pd 12.832647077663598 9.36223786850148 7.885684777897556
Pd 9.186696452929286 14.477468700813365 8.730893395193416
Pd 8.620879858581656 15.337234906782054 11.290019089621762
Pd 11.43381036309572 11.470231290835146 9.106068844138953
Pd 13.087477795803009 13.205716363339512 10.655378870553367
Pd 11.157410352635283 15.749762281003523 10.52424855863358
Pd 7.619109517008937 12.916467631746054 10.722546356042214
Pd 8.765008262499915 11.801628148859086 8.53567023834751
Pd 12.73420816546209 6.867448184158823 8.947956276505346
Pd 7.07290137001901 10.37131733676699 10.168412458015965
Pd 10.446562579941592 15.52636569342662 13.248490026057484
Pd 10.366180340758488 13.303521065569758 10.68924402175703
Pd 11.6577606191264 13.249254093500085 12.88581201109883
Pd 13.05803400352564 15.477661881869366 12.456939326139338
Pd 13.76540304887524 15.563578559014234 9.860351767564747
Pd 10.702747498371554 7.730291437380306 7.402549645227496
Pd 7.743623533870339 10.712720442885692 12.842354467064101
Pd 8.844837003028363 9.1615251599176 8.557991402295649
Pd 14.492456186130628 13.56002249794263 8.171538622273168
Pd 11.101692701155425 8.961899897322036 9.954372896081438
Pd 8.83233784574625 13.237881833937994 13.039395521586318
Pd 9.590744035577476 10.87015895847024 11.03290571224478
Pd 12.935641377636191 14.166645661883084 14.919522909732876
Pd 12.176405428766703 10.877957685509392 11.663573300689604
Pd 15.683493190527471 13.019826477236307 10.601828842057541
Pd 7.706090393613538 8.089783224506668 13.444389115775888
Pd 10.37543628063655 11.316164825234916 13.979171860203943
Pd 8.719012615395693 9.780736655470381 15.173281316363788
Pd 8.47379792594808 8.27316035554479 10.978820142803043
Pd 14.522106012066013 13.317832138168695 12.970735053879459
Pd 10.273781675481931 13.644313112250126 15.242094732982757
Pd 13.122827428345161 11.383192474235948 14.272939270852739
Pd 14.77614144951308 10.85898884623578 11.962135452865098
Pd 10.137122588006504 6.509554518748106 9.772812229620412
Pd 13.783495046220509 8.878251890364046 10.454329321671414
Pd 10.379021923967477 8.93879992991204 12.818854180679665
Pd 11.563519918634189 9.270868154284514 15.187044925919173
Pd 9.63807695693321 7.277204802351339 15.08962529521158
Pd 9.693171656638736 6.391039867902861 12.495265073461951
Pd 13.269606920447956 8.929930244837387 13.106950562583146
Pd 12.151794137093171 7.0098797978115615 11.519265918449
Pd 12.012195544250261 6.820588541584457 14.088985589296083
