44
Energy = -188.82284249 eV
Pd 14.0703712532984 12.920709105280771 6.7732503137831355
Pd 13.31227214762831 10.27667270572511 7.084123847905214
Pd 11.425854371266356 12.780128440714643 6.481828081437958
Pd 15.677151476096517 11.243739711849397 8.060718615287476
Pd 14.54856883080241 13.188847151026513 9.429045400161169
Pd 12.570951910790752 14.588906793250587 8.232602181740551
Pd 14.379130908352087 9.497723474959974 9.446586150852323
Pd 10.046191958495575 10.944017052589421 7.899500275524409
Pd 11.755492959805213 9.364405660224516 9.332079037528338
Pd 12.316301956375746 11.887608635398799 8.794541087743818
Pd 10.000777425483012 13.78672207624573 8.57492340966408
Pd 15.952231249624184 11.314093631251952 10.789364772177594
Pd 10.932958026343101 7.368329486653943 10.923059169462988
Pd 9.444965534711645 11.917953919942994 10.29652517241073
Pd 13.489263945205662 15.330325878278792 10.669273104761295
Pd 10.971807043637641 16.035516179167903 9.778652668654908
Pd 10.96630468453729 10.097020009226782 11.774239284434795
Pd 13.26428595735313 8.504768491593108 11.562825780209742
Pd 9.131371578342605 9.315829876017117 9.9630357228558
Pd 13.363682425186127 11.247295716644416 11.183137054166316
Pd 11.692232059383715 13.429708802415538 10.744905646750757
Pd 15.147326244067838 13.644378479354696 11.989701695023179
Pd 8.962178094997924 8.218646625710747 12.466453589054511
Pd 11.487702560638018 7.916713808049863 13.538241698428871
Pd 9.156481840507578 14.48839045199416 11.115824610535766
Pd 15.268125060163158 11.326649132998678 13.3705732680346
Pd 8.167973686376662 10.752892992029711 12.279003276756182
Pd 13.820832545264993 15.614250454430785 13.313963485328257
Pd 12.938532246069503 10.153088163024904 13.631031796610737
Pd 10.251793695596902 12.480259300962585 12.781673950921533
Pd 12.850913530207741 12.982953989390145 13.100016061430502
Pd 11.314159885628188 15.517078595872832 12.37466560697386
Pd 9.894486162797884 9.9894501093766 14.226053103909017
Pd 14.753531031739312 13.568922521462962 14.777980783947372
Pd 11.845629463900888 9.300054876656088 15.921542006613496
Pd 11.50395544983501 11.965040642345084 15.099980236493613
Pd 14.020061376290014 11.176815185306195 15.831927366072433
Pd 11.799066313130062 14.749085629141584 14.819298116890428
Pd 8.383162440006632 12.170882501406593 14.631422612973568
Pd 9.261371580158148 14.617902141723167 13.863767410124511
Pd 9.618947370764497 10.880245830006135 16.705448817183463
Pd 12.997325579891308 13.536861594840815 16.76010136862962
Pd 12.046585586065314 11.25804163713694 17.726591101329365
Pd 9.92403495382574 13.6041987198298 16.337824089048837
