47
Energy = -203.1227478 eV
Pd 10.565904079699072 14.517588368007617 12.587921658249522
Pd 12.103198196683788 9.640655684182583 12.352697934188582
Pd 10.884426165196691 10.960073669360208 15.602777163863635
Pd 10.358239193865474 13.761606144288828 8.19505291540177
Pd 10.120234760003372 9.61414564687823 8.371577779924168
Pd 12.190817591744517 15.212377731632861 14.61432154175278
Pd 14.445029132048074 10.379186684520487 8.383937214036672
Pd 15.453604718470848 11.569188836358016 12.848259697193651
Pd 11.530034639676252 15.090227555670383 10.159610521093262
Pd 13.29454586561884 7.606498809969214 10.995955606984746
Pd 13.137385469380032 12.179263787606798 11.76465376224642
Pd 10.81379905572399 12.49423721943009 10.594934077764993
Pd 7.289469562604592 9.895261172527013 12.842814198158445
Pd 9.670031802726774 11.635757332512359 6.680644540802465
Pd 6.214255254142524 8.080965133352505 11.20574134954715
Pd 12.126994896055528 10.363524923886494 9.873755496757067
Pd 8.517957230806623 11.649640992521816 14.365672516399563
Pd 10.726212953120088 7.803080502063461 10.23946544810784
Pd 9.684637835566798 9.283572082208995 13.897540829990232
Pd 13.30905687357736 11.160221048785107 14.493397758812389
Pd 12.607821816375132 15.157876001066347 7.701160355491207
Pd 11.878336755529553 13.070243296248941 6.163300986853506
Pd 8.678419673871815 7.656918891212998 12.028876996933556
Pd 8.189625147440292 8.206110979818337 9.437722087581387
Pd 8.911299849209584 14.418511350393276 10.455803633057803
Pd 9.61815155306174 10.101303649425317 11.175121960901665
Pd 12.920723392834688 12.677308653331524 8.686892443358232
Pd 10.146370023714786 13.624984612661946 15.127286639486107
Pd 6.9372728869594145 10.397366614550013 10.242661571050101
Pd 11.101067903098894 7.19735345365726 12.828342839299731
Pd 15.696672050535215 14.1075460175435 11.96135186226276
Pd 15.195710013186034 12.26906095412675 10.090725275787163
Pd 8.631657168341022 12.03034460053556 9.13379977850928
Pd 14.6095188196468 9.13491598081019 13.428091592199625
Pd 12.505432209153575 13.057091345902679 16.138123296990337
Pd 13.57740260605003 6.783500370494729 13.516702933179431
Pd 8.138247506253375 12.239767232081839 11.776438658462046
Pd 12.682660899082586 8.270778592807547 8.463129695873995
Pd 14.308616825740069 13.582778663434345 14.22848060662455
Pd 10.864693180749422 11.860847795150882 13.135961049028909
Pd 13.139362615469343 14.747328774449775 12.208168925823045
Pd 12.192185612599124 8.742151230008124 14.84121042093582
Pd 12.175974260309538 10.631299587664722 7.079309334447939
Pd 8.146692664819478 14.197447144943288 13.466516055958238
Pd 14.642309944566628 9.817076163569597 10.9302405025732
Pd 14.178427670757632 14.737783124950003 9.807107638789665
Pd 7.633952529433758 10.129672448898042 7.621181702766216
