42
Energy = -180.21035246 eV
Pd 13.793732464878316 8.18227107365489 10.903118523927438
Pd 15.022635810529586 9.300422458944416 8.653836805508428
Pd 12.442204929167236 7.412949026569436 13.141963049462685
Pd 13.693032839462012 9.77812385725073 13.064323742910116
Pd 14.900747477759218 10.711756252724621 10.909538934992222
Pd 11.433222535073126 7.28925674688816 9.708747237587597
Pd 13.579165510767755 11.348306311655469 15.213980928060236
Pd 10.440463528145887 6.23464542577563 11.828828295461815
Pd 13.978231777617971 12.525876327580908 12.746733594308388
Pd 11.761206123850737 9.323204202205641 14.97789127918829
Pd 14.263393994000124 11.910533244605713 8.609406063413507
Pd 11.770544003969759 7.973178353361949 7.1053996379485636
Pd 11.353088207574384 9.252111815128842 11.528540773132695
Pd 12.500888039609286 9.628106810787054 8.999800220402308
Pd 12.425547393940175 11.591592103449656 10.735781103737427
Pd 9.867692266718255 8.16952680300571 13.479312980704966
Pd 11.560058441813354 11.367846365775527 13.293418249441553
Pd 13.14668756944255 10.308839168553181 6.601556065156813
Pd 9.379382509776622 8.093944236965793 8.176190668412243
Pd 12.321332629242315 13.674926091676406 14.656279923911724
Pd 10.991740245410575 11.740077032190403 15.98309809835576
Pd 9.213592368811394 10.543612495209008 14.474749723703384
Pd 10.30384428722576 10.24999996961849 6.759531602798593
Pd 9.676685728516874 13.141055376747117 13.937389365797836
Pd 9.391692408200784 11.043377146246517 11.808026096636858
Pd 12.86443561044702 14.019156215656048 9.704462769585298
Pd 8.904826108790358 8.248544917462263 10.888590952143288
Pd 11.771713189334546 12.189896545270035 7.8901905522947935
Pd 11.647313452094593 13.863696092484203 12.136344922273446
Pd 6.948601167843784 8.072017009809855 9.0879705386326
Pd 7.777750015916678 10.412356980688086 8.008007264292408
Pd 7.501057862407224 9.249085916010904 13.011704181220326
Pd 10.002815300764837 10.394897173244651 9.375409404944428
Pd 10.32124034019581 12.991760795317113 9.963803429026013
Pd 7.289499115429883 12.146857592713383 12.67236919169391
Pd 10.926894639018471 14.719011943162892 7.876792425948694
Pd 10.728444531071055 15.66407650971861 10.420932109047992
Pd 8.785178684555142 14.210819193126923 11.722719037169453
Pd 6.982770847656835 10.170050785072926 10.637558198144708
Pd 9.15431100262845 12.65215971690167 7.510910879124614
Pd 7.734051776831977 12.48432511548569 9.880025773351292
Pd 8.507305777172505 14.884226771105308 9.048413257920622
