48
Energy = -207.69212816 eV
Pd 14.049245599885971 8.065424412911 10.675041190508509
Pd 13.885078304307047 9.881343920855322 8.751092970448239
Pd 16.030428255174378 11.460658354342717 8.871160082571976
Pd 13.968861295281243 6.410571585361919 12.798735557833389
Pd 11.402296625762041 10.85296048271459 8.000932849055229
Pd 15.044804418202986 10.477418803302312 11.123832743885762
Pd 13.722452444486656 12.438649070074595 7.920051977675896
Pd 11.742973825107466 8.570920191367618 9.467089579261431
Pd 14.92184875843948 8.816575071391934 13.172628722208866
Pd 11.699105848955536 7.165188500166266 11.750740383038812
Pd 9.392931501935168 9.066687363142648 8.273181483395577
Pd 11.428274434321702 13.470216396872184 7.172544459958466
Pd 16.99204159490371 12.241974885622245 11.418531701362507
Pd 14.789560640638639 13.236395662716586 10.371516582128846
Pd 9.375668900229492 7.907388299962449 10.768476916727991
Pd 12.584224974882929 11.66401191529918 10.324141258044309
Pd 15.872856616574248 11.236520312336134 13.64380958242479
Pd 13.556165517656208 12.213388656856928 12.737167211394162
Pd 12.446566470101034 9.790989416195611 12.247374129538107
Pd 12.488442723639967 8.049989659749041 14.310792099375805
Pd 7.186621511153716 9.036125801579706 9.83595829084379
Pd 12.57366075569393 14.388538826005039 9.386968537854951
Pd 10.250516553821194 10.409572414770379 10.650986588916222
Pd 13.619966971534641 10.39918790649006 14.884082756733555
Pd 15.521708506794694 13.928754508021541 12.981176004612283
Pd 14.54099097923721 12.891613187760848 15.321655174475923
Pd 8.208109519181578 11.279155339654377 9.088965914765852
Pd 13.759129996495712 15.257634546168118 11.578460251535274
Pd 11.480223412347183 13.608877931488916 11.94703060766569
Pd 10.294741233758323 12.860869221543929 9.483371650799914
Pd 10.156059260651038 15.435461631215807 8.71084428620959
Pd 13.03050275508902 14.770459619264338 14.133006705115378
Pd 7.9863367174053925 9.920690278621317 12.170441911227188
Pd 10.101101627137538 8.592185802649691 13.240051796299634
Pd 10.227919232359204 11.387862488098088 13.139744035710349
Pd 11.03681283604468 9.999531909827924 15.377190236771396
Pd 11.958817810030896 12.448047318681287 14.888165641117167
Pd 7.8948559688261 13.949130916030217 9.163394264283648
Pd 11.532313189784226 16.458269273601903 10.79858311048742
Pd 12.877761352163706 17.24537841258768 12.983715157297393
Pd 8.462166189456964 12.48992281832562 11.428202421086342
Pd 10.673939357602203 14.584937805740855 15.602464901139298
Pd 7.336273981104538 11.934738829804523 13.822775268182824
Pd 9.28134322220936 15.017475757760634 11.182207017875017
Pd 9.36669067352653 12.161527935229167 15.66822644867793
Pd 8.428665668215137 9.782518486339095 14.853263923486628
Pd 9.112047466599751 13.871833412038875 13.586910858746643
Pd 10.712450746544986 15.877980904713851 13.298871002498716
