48
Energy = -207.08643116 eV
Pd 17.035294415075686 11.133951912656874 9.03924258234446
Pd 14.683115601976592 12.308183203010016 9.199884687789499
Pd 16.12018620751695 11.247849301808929 11.500227254463747
Pd 14.841134178426493 9.683767490507934 8.692353664164687
Pd 13.02138621868894 14.333147226670548 9.398979351241122
Pd 16.787316593535593 8.912078439567782 10.461980201451421
Pd 14.085953758712318 12.960293391991259 11.694753910954724
Pd 12.678466134351563 11.035880697990159 7.791071170886412
Pd 11.863471026969943 16.739000376358945 10.078649990008076
Pd 13.770151870718488 10.127834460441894 11.094044438268613
Pd 15.288757124082052 8.768028442608658 12.717802392472748
Pd 14.611650836868003 7.478169848751759 10.21562882676565
Pd 10.627644497809623 12.812759639441431 8.236780211709195
Pd 12.762561937581728 15.190192735573497 12.050009698032845
Pd 10.597218834467386 15.425693815508986 8.0850568988189
Pd 12.401749696515822 8.709656160090695 9.138105546648083
Pd 12.11754368294401 11.852765305712843 10.209259296457935
Pd 12.85397133998001 7.765866514163382 12.153430748985517
Pd 14.669635389485869 11.273832927852851 13.73244186669832
Pd 9.148333205992488 16.647376539891376 9.990666373470912
Pd 10.35873790118827 16.449617812729233 12.365025272517256
Pd 10.294917127715804 10.230217747039658 8.78835104568349
Pd 11.821222061945857 15.840042041296881 14.481486135556487
Pd 10.683542180540528 14.334004041908404 10.582099391615722
Pd 13.284762622894485 13.58433185908244 14.135806093282518
Pd 9.652003568619438 11.95648758310746 11.068343584997066
Pd 8.106800487940307 11.690838999614956 8.493511531623698
Pd 10.697373886416196 13.52957205993543 13.1164006901707
Pd 10.891319316760285 9.506645006877655 11.373003937233465
Pd 8.412304097726985 14.163235671027959 9.208441654066736
Pd 9.870934828125492 7.681248268587939 9.823125467539693
Pd 9.155165696073885 15.201756180051532 14.44866459931183
Pd 8.32443070537918 14.774378402749917 11.802052419402614
Pd 12.671465760165999 11.430289325024912 15.640584282736732
Pd 12.19426671367836 6.26264732573718 10.112823896040034
Pd 12.019569279608415 11.302890286036556 12.919826212173984
Pd 11.122428502519927 13.592088021256098 15.749626735561712
Pd 10.552511562169144 6.563039882947152 12.239000273404184
Pd 8.454206070646531 10.415521909971181 12.879970523769
Pd 13.06447566697748 9.210883467254575 14.295277842436448
Pd 12.045423823080231 6.7893476493422735 14.469203692520024
Pd 8.126906296958309 9.775654864063398 10.303907585925009
Pd 7.1402643921010185 12.419157392600166 11.003995496454985
Pd 8.355305312580219 7.917289187150175 12.149204147721715
Pd 8.091774598738624 12.858796845290914 13.522940979448695
Pd 10.127611336963495 11.238920376802936 14.783784394325446
Pd 8.594381069294036 13.05931579096345 16.042075935608047
Pd 10.393751690066336 8.787337045723648 13.843764152370463
