46
Energy = -198.17411768 eV
Pd 15.411095449921087 14.51727777963875 10.453243078818776
Pd 15.50989025744196 14.69350332957801 13.124922977943516
Pd 15.21251533855619 12.309406743605946 12.042480126069076
Pd 14.68177901772077 12.129869154574077 9.428549387275545
Pd 14.367154366782602 16.723816828020734 9.366582899381225
Pd 13.62623391583838 14.423232614245045 8.351078172733736
Pd 12.843746962152569 12.14383347807368 7.388604986485015
Pd 13.702973782392858 9.774307515875707 8.466950659569365
Pd 14.312250744089681 10.023607500145541 11.04431261740957
Pd 11.979367848049463 9.854316177651075 6.429100910771896
Pd 14.597941787375955 10.220377048417609 13.698594026652684
Pd 12.91479767998144 13.747929671719097 10.873972525425032
Pd 14.70988328060372 12.69201790853835 14.729929322937629
Pd 13.640688516429003 16.18883211049783 11.815475875328636
Pd 11.807892576092383 16.01050714930692 9.719359419477698
Pd 12.041969682530823 11.282866516380723 9.848356712537154
Pd 11.837204535637655 6.100986682477674 11.615524151136409
Pd 11.027937145252455 13.680930262878183 8.651814746459413
Pd 13.441313176508599 7.9822828894033 12.779013251400603
Pd 12.65833483651966 11.751782206657307 12.634361254498675
Pd 14.028026142819831 8.257545334298985 15.3735427199426
Pd 10.194439820769958 11.292392382828362 7.795094781065936
Pd 12.953410802376604 7.882541008421591 10.148849048956858
Pd 11.071566049821898 8.866460010358914 8.648002297931399
Pd 11.458934918298722 9.50844734776863 11.64234531230665
Pd 13.61906100497418 10.75803980735367 16.23882200149494
Pd 9.372318561703153 15.111017714195555 10.255305533782925
Pd 12.99769605731709 14.383600897154535 13.632466238782332
Pd 10.456980460517956 12.79856537811575 11.297385984665734
Pd 9.847377347730063 7.621996035530069 10.620600131041941
Pd 11.97040321000529 9.588115296298174 14.494235862784969
Pd 9.35712142120569 10.280812972995989 10.135206143390446
Pd 11.075031890105974 15.504122856359801 12.218842624965331
Pd 8.548817984897175 12.697450134188733 9.29087275243798
Pd 11.967946519010246 12.502553224947174 15.104734814872531
Pd 10.1394051641218 11.093919176326649 13.248300405935295
Pd 7.053889884395851 14.12573485170538 10.972909277046403
Pd 10.597446108090365 7.651225366973596 13.29266111983619
Pd 8.41876020078443 9.145513755878303 12.37105191310432
Pd 10.70568008773108 10.765593349085469 16.53593576946641
Pd 8.851098052723698 14.092091610783413 12.930064890272249
Pd 10.63022013938716 14.77110037967322 14.719642717391134
Pd 7.891905331911967 11.787750497282461 11.77732437863993
Pd 9.275289582296844 9.220858546848714 14.960377557382406
Pd 9.222238265142098 12.572649863358949 15.107353848012718
Pd 7.412473838031112 10.910728379630253 14.168354518226979
