47
Energy = -203.08543385 eV
Pd 7.117868787026273 15.06207816467439 9.581307033396158
Pd 8.045747069330927 12.458604642666621 8.120411935443984
Pd 6.119514996103823 12.705975925493926 10.191609703222202
Pd 9.306534354201856 14.890986858869248 8.164585768539773
Pd 7.258731077291715 14.281187641207717 12.151393681274639
Pd 9.33140532218884 15.76047075859999 10.949331880986904
Pd 7.800068659349975 10.67761054171733 10.09658582983401
Pd 10.767893279936635 12.666739845009161 7.769910848579536
Pd 8.963938746742528 13.100482632650017 10.450985787873124
Pd 6.924068527182699 11.611040907831004 12.486075316766087
Pd 9.6826443732335 10.233057471176197 8.221555430808918
Pd 11.269300907967727 14.376856981550182 9.806399506712083
Pd 7.817854057614076 13.066252946870247 14.47825255529383
Pd 7.5793835814198225 9.070953325245345 12.274212938648928
Pd 9.540307834589548 11.2321708843271 12.347684672555097
Pd 13.251826486013728 12.843780441538883 8.899892669101613
Pd 12.414318817200586 10.467706898755539 8.081293957995713
Pd 9.859009208334063 13.935986938201872 12.890945611863463
Pd 11.088541280020852 11.502204619194618 10.18861796657065
Pd 13.787663426834674 15.182668801868008 10.164860114165814
Pd 9.742852584995054 9.04508546787349 10.633527050119216
Pd 8.460362371441496 10.324898617967104 14.550171251504738
Pd 11.835242867314193 15.60764230290854 12.115184196078893
Pd 9.978617115221875 8.55230048426865 13.20533232363049
Pd 10.238719597155482 12.278643197863525 14.966068535586906
Pd 12.701110768123302 13.018117264560242 11.62498247243051
Pd 11.289170847482922 8.086409454390916 8.748850730361124
Pd 14.389338377875134 14.739829682918536 12.754516176475121
Pd 12.215480917213261 13.868955588508165 14.14782075005806
Pd 15.292304687345952 13.052220892285971 10.632525781740254
Pd 14.713211404537695 10.680585790171213 9.492972187490125
Pd 11.94838003014449 11.06770254467058 13.251002691764818
Pd 13.918926367078875 8.260900512974866 8.637068328687441
Pd 11.249363292746182 7.009543202302675 11.33332924115892
Pd 12.596701589183304 11.912638879856114 16.005146692564292
Pd 12.544055005940885 9.448441403558771 10.771591298520633
Pd 14.302376529860066 10.937986915086856 12.121313829790536
Pd 11.1719091913008 9.664160764996755 15.298669643412008
Pd 14.484847302774243 12.490044594847785 14.251659405643359
Pd 16.618260641460314 13.123978402887776 12.893595623546828
Pd 13.872536371479464 7.216151021837044 11.093757345762091
Pd 16.802366684178864 10.926111676225931 11.330819707825997
Pd 16.042348846868766 8.559469645228909 10.33942049786542
Pd 12.569072722284725 8.328422525306589 13.249211050310688
Pd 13.936760657748433 9.910431653996467 14.861397835150107
Pd 15.237187391650549 8.647981568397428 12.867914637203054
Pd 16.446988592689475 10.668027763367403 14.035688712216615
