54
Energy = -235.3194038 eV
Pd 8.157788142761083 10.311482812283565 12.995822639007628
Pd 10.08539820751181 8.546654123475474 12.541577403502394
Pd 6.275644045792405 12.083367816362895 13.591432225740396
Pd 10.955655717027112 8.218402430618678 10.045254648295623
Pd 11.763764938335145 6.517821775539171 11.937042626338267
Pd 8.032876628509529 11.208481091639646 15.507052774990013
Pd 9.506098523417748 8.929962973014485 15.073537837622556
Pd 8.964279870889708 9.9490657194024 10.523979347563646
Pd 7.948672745997992 11.43887460835559 8.492192520137284
Pd 10.224586400966292 10.697201472617843 16.97904836814153
Pd 11.581216057143356 7.238567865421299 14.460223968694875
Pd 6.9826371616437575 11.699295740564464 11.006709104593915
Pd 7.031647755374815 14.257496227997038 12.04742467597021
Pd 9.496155299924084 12.522255368749775 11.670691840440773
Pd 11.493711800311209 10.785273087961999 11.18685479469932
Pd 13.521568217113813 8.088541968666448 10.693046179201321
Pd 9.314431345050208 13.67901534418725 7.364080725571666
Pd 8.484338540843574 13.416972988749059 13.97607545351883
Pd 12.064916464930745 9.629199740717516 15.426135406133804
Pd 10.077396492371694 9.668006109709571 8.054430635347739
Pd 9.73667623459025 13.174441335101786 16.27081527165284
Pd 14.118379340373032 7.0216739894449685 13.153086436882674
Pd 12.698164725358204 9.763529184161937 8.805853099186407
Pd 10.42011866098948 11.268479046075264 13.984924893184935
Pd 8.069624513113448 13.847277538906594 9.723862711173773
Pd 9.321005906804723 11.351972895861369 6.1724202561659665
Pd 12.636015385885003 9.199409854161274 12.936428465208852
Pd 9.59637133095217 15.193228909237995 12.093689273573583
Pd 12.247952014911506 12.281287989684555 16.014204752896855
Pd 11.091801230085617 13.82312035288724 14.08208882877583
Pd 14.394879240698865 10.721210120430658 15.47961457958727
Pd 10.426484280619185 12.091893206697652 9.162612048194452
Pd 15.228709742035392 9.54051854852222 13.391464105286376
Pd 11.84246750231952 11.456215193552037 6.893561938910793
Pd 16.027935458279778 8.073262654955391 11.441075857030219
Pd 12.965711461656207 11.845058332043736 13.378857509843357
Pd 14.163578100400649 10.858636988101805 11.251456937934465
Pd 15.35951900178391 9.53208616260423 9.315475012299645
Pd 13.027638463980235 12.392133184596446 9.41861653400715
Pd 14.444870272352114 11.195318320502432 7.375761006587632
Pd 11.981676990818844 13.820695912636978 11.59183225477897
Pd 11.529872811162509 16.744853458773797 10.839311025638057
Pd 10.493215202107917 14.749196378911918 9.521091744768944
Pd 11.775422516335135 16.249016262684574 13.386368609251225
Pd 14.759661143646063 13.275152435826246 15.75606809584865
Pd 15.64363926202247 12.244138556810867 13.411177788390916
Pd 16.797570737822802 10.763325188886256 11.442610164653104
Pd 12.005678441636006 13.980669729191924 7.442701957696404
Pd 13.24234007944009 15.160280653827842 9.498850510326957
Pd 15.857327063212189 12.24449558427212 9.440163680708475
Pd 13.737576638439036 14.421615234815187 13.727685755022607
Pd 14.649775999405263 13.838755201687801 7.7171758129683585
Pd 14.670306678788418 13.60898760589451 11.320009482846771
Pd 13.925200690470495 16.185583513048073 11.820440901474944
