54
Energy = -235.31090258 eV
Pd 15.810021233237848 11.089196652286509 14.916444227082872
Pd 16.817592251231872 9.379748115413902 12.976172071433979
Pd 16.155387386054443 10.145616328167609 10.535805564269404
Pd 16.693829656109685 12.080662582233126 12.457250847288586
Pd 16.23936040806944 14.54392639461875 13.437232839247441
Pd 14.07843206540459 12.99483175223129 15.511068383415921
Pd 14.706134896720206 8.497653548137249 14.387663738317618
Pd 12.312185272374936 14.743155423952299 16.49926792733039
Pd 13.989160101955559 15.515394614852392 14.495132423688407
Pd 14.83258076665054 15.227775281322492 11.273022854367225
Pd 15.062953694712956 12.661765537419017 10.39651194352579
Pd 13.154761555314272 10.534229797556627 15.129692979016214
Pd 15.255567135698557 10.9124883890215 8.171882565379871
Pd 14.441093108880251 10.676769089499023 12.739286486336086
Pd 14.650179563425445 8.142316330735571 11.591546928683874
Pd 12.467780841961035 16.025121973273727 12.353045350898803
Pd 14.727491271410143 8.425265275389892 8.94369353739188
Pd 14.44850974023026 14.6428108710539 8.683695194052142
Pd 13.418932918110743 10.50158567102214 10.390130115538808
Pd 14.071543143264039 13.210433039687926 12.936557340688873
Pd 11.705101881550542 13.978605383780177 13.808380423941905
Pd 9.751285177103554 14.621012235332065 15.476720472644178
Pd 11.362153562587503 12.352523576327103 15.810586154384687
Pd 13.381917380551277 6.517417553465191 13.240696611739356
Pd 11.554344111741468 16.641658572223573 14.781634907374585
Pd 12.903870933575362 16.414656060591856 9.798713204238531
Pd 11.819291465431853 11.578748431404577 12.696564301138505
Pd 12.32222271209857 8.974980916703684 12.694432095126244
Pd 12.467798659905238 13.640537867704737 10.825461448009273
Pd 12.190265821398047 7.947506527305899 15.200407858942427
Pd 12.226114147012078 8.203695815303185 9.955912337177907
Pd 12.646332613948049 9.87074230472192 7.854010422389065
Pd 10.617992279741605 10.11995432554175 14.647186817029207
Pd 11.668864089621552 14.480531448126987 8.309381534277419
Pd 10.491261370568465 15.513561186824372 10.467216002458173
Pd 9.77385627204745 15.781124072198015 12.984912001247055
Pd 11.056624227421626 11.480114068392965 10.106560871819548
Pd 13.178718154675101 12.40147576476756 8.391868880673464
Pd 11.239527749621276 6.563563218541985 11.738699256330394
Pd 9.095428370030621 12.260978699323113 14.373102157539899
Pd 9.949511165711346 7.781351788363828 13.710773451449596
Pd 9.751518465581604 13.125513393525159 11.988907404574086
Pd 9.343082369697491 13.472032262674057 9.223450513693573
Pd 10.088263982579267 9.478989568992935 8.720952107559135
Pd 10.057694399368925 8.958809504032384 11.314348110909737
Pd 10.740394968549623 11.915974956015983 7.511937786516776
Pd 8.406539629259113 9.966892670676177 13.157001197574326
Pd 8.049866224870241 14.944788881277617 11.140969104227693
Pd 7.626849830962369 14.46165138073803 13.855400882320392
Pd 8.520502981588153 10.961199434308242 10.698465991524296
Pd 8.18418035983219 11.367680826079297 8.11703287358838
Pd 7.082414578445495 12.153109992554722 12.5999768737588
Pd 6.813018768159065 12.85954233242384 9.962631103021035
Pd 5.682968385548457 14.24548715624717 11.97042760625734
