52
Energy = -225.38537727 eV
Pd 16.215608546790527 13.339480243916402 10.94803572902004
Pd 15.436336306396948 11.428519025263745 12.627709011377279
Pd 15.299923731524911 11.205818276919192 9.737397768996079
Pd 15.694277711796898 15.645781944292118 9.45458198395051
Pd 13.947178303707856 13.537751430630916 13.038229705466463
Pd 15.603827053139929 13.316337594286022 8.219423620158295
Pd 14.927229776682456 9.153806733556085 11.313287873184679
Pd 14.500608271129751 7.223922257892732 13.02010343366809
Pd 15.33075366766094 9.365782102330641 14.334004132620949
Pd 15.460363763875757 15.583491622992627 12.123120282602658
Pd 13.919208656501038 11.593691945234209 14.933840032914482
Pd 14.236923812677261 15.792740852315033 14.468348413002264
Pd 13.783077209288399 14.118139185941658 10.387421010637453
Pd 13.847565010321564 5.668779079418119 14.982461762706295
Pd 12.549774664273096 7.908819165855156 11.272964177061697
Pd 13.392891100068292 14.92275017239531 7.907025344679801
Pd 13.008247917661674 11.561999226106746 11.263158536409424
Pd 13.13395399401099 12.307698123686592 8.509008536914221
Pd 11.677463342971889 10.293174932560401 15.65397544876061
Pd 13.184891516216554 9.649562211994416 9.373844765381026
Pd 11.60556574395791 15.663466940151354 9.750921322000153
Pd 13.068522672579073 8.107780775246281 15.2885018177263
Pd 12.882486741272396 16.05399167004841 12.142609272398222
Pd 12.993720011058068 9.705149896764878 13.171623902010884
Pd 11.482134823009565 13.797533332411412 11.676133865758137
Pd 11.976172883270577 6.231130695064975 13.261287084678527
Pd 10.659283455106804 10.09446315619038 11.867306473024907
Pd 12.49634120113982 13.92874728263303 15.290940740563073
Pd 11.634950587337347 16.37100073348789 14.465680641971744
Pd 10.218033014233606 16.15867399375626 12.048271673239874
Pd 11.575433131541697 12.019063343109206 13.60253225268833
Pd 10.688838454691734 8.403754256781905 13.990951262886423
Pd 11.427545868732238 10.511091807859449 7.660094599576136
Pd 10.689524274522343 11.828280807457546 9.84011696619399
Pd 10.316610421200373 12.567107724631875 16.0090739578297
Pd 9.277633469446975 10.62600958072867 14.345397871816093
Pd 10.883438910705967 13.731991302800518 8.022005048009714
Pd 10.688624487125914 8.798070567930415 9.571312096860819
Pd 8.386205350886664 8.847955868417925 12.520760617102699
Pd 9.276591171490285 12.427733796148631 12.181086975701662
Pd 9.246536800862705 14.43096489049362 10.171753299426465
Pd 10.07665160158224 14.362509607459339 14.061840116455652
Pd 10.07562874853439 7.053375325449156 11.589692131056294
Pd 7.934938641803957 14.729812423817586 12.546996376893269
Pd 9.720778228729555 11.954031632112963 6.391123239263317
Pd 7.937245978098017 12.94407294564208 14.585453521657577
Pd 8.407219037161543 12.51278703541468 8.544141087649985
Pd 8.821716723507205 9.89562357825932 7.98706286556897
Pd 8.167774414971355 10.582446531091529 10.454056596043642
Pd 8.186386337123981 8.02657594273571 9.921560650521757
Pd 7.03171507866834 12.977807295281323 10.760435666266277
Pd 7.051271547578862 11.140271501942205 12.837742804031517
