50
Energy = -217.53898864 eV
Pd 16.001862488659196 13.068164567659482 12.241221414848455
Pd 15.077653413132806 11.433236778847554 10.135555340288677
Pd 16.419937961487996 10.47635211605001 12.648396672530392
Pd 13.754526031529018 14.005518054098463 11.197190787793662
Pd 13.497645717916338 11.276040416647401 7.667790168685408
Pd 15.458753131254372 11.99023260090498 14.685066149273439
Pd 12.540588931915304 8.803200006572231 6.880734402802167
Pd 13.71402297486119 9.152564032421399 9.237426237902481
Pd 13.656319274195667 13.7353882291812 8.645874074085508
Pd 14.06767650083307 14.187553726297455 13.77405215480009
Pd 14.593979091798024 8.952494459762425 11.663956201885604
Pd 13.834647260755366 11.415728503714245 12.573346389967016
Pd 12.482151278739199 11.85217595020904 10.271416118691244
Pd 11.238157594702429 10.968830879836416 6.066015133896496
Pd 13.28907733358847 6.923497887159956 10.64605072837162
Pd 11.700158745238749 15.555360129352467 11.86419755302454
Pd 14.364092794148883 9.51338274119751 14.311693810207395
Pd 11.208346508806574 12.850369663589664 7.974451749890772
Pd 11.147800494754469 10.237505640936742 8.752200998824357
Pd 11.350769127480392 7.624974372131873 8.954884548816885
Pd 9.731061945798388 8.898378236202378 7.104662363850366
Pd 11.910643646470914 9.496140866911118 11.331654358697307
Pd 12.830944292215946 12.320640438273161 15.230115100985092
Pd 11.532037138837817 15.347926165949751 9.066747676182366
Pd 11.772576314967942 12.8798225550375 12.786647014622616
Pd 8.897553252475983 11.719046579869497 7.071984178855795
Pd 10.051813521398389 12.657433251531335 14.837386519953796
Pd 10.765639913815045 6.7582338370147665 11.334211974798484
Pd 10.527713305938372 13.52528703319058 10.615995405511013
Pd 12.635288702480874 7.7078760265052315 13.181014667895413
Pd 8.893958928379345 14.149564044485075 8.502642865689479
Pd 11.582285251653863 14.848435804922927 14.539534605863317
Pd 9.252081619676437 15.84729224270146 10.596402285273399
Pd 11.765178648275068 10.180687933190493 14.02375111534246
Pd 9.197953744134013 11.598563514330628 9.697303688811756
Pd 9.27930832588331 9.11510539531859 10.655240599948712
Pd 8.665726023017061 7.2113570758408665 9.035741249453686
Pd 11.040937528291542 10.806594253410399 16.452383189942967
Pd 7.643137368764989 9.787055771846964 8.505722134774182
Pd 9.83017698561983 11.166982182524944 12.264083458712957
Pd 6.7869999025942365 12.41757284704365 8.606781044479723
Pd 10.003053505642256 8.436893354424665 13.231512791573435
Pd 8.219594611352665 6.867801971344579 11.893713382803178
Pd 7.73714331584318 13.563066888095376 10.949348824174107
Pd 9.38785748315699 14.354157649953702 12.928512522904661
Pd 6.5975666611445005 8.426379657185393 10.520876595695555
Pd 8.996518844855812 10.254790634438626 14.854707570746523
Pd 6.8878980874513305 11.053410494876506 10.920285888325543
Pd 7.520207576818898 9.414820023121242 12.851828373514717
Pd 7.7058188862828585 12.184423567478216 13.296189593829682
