52
Energy = -226.63031843 eV
Pd 6.811547427643344 11.768669822542911 6.604505450801454
Pd 10.590571796062513 10.466783203044805 6.753635174720915
Pd 8.396735100541106 6.881327593408126 6.485971249442867
Pd 13.286208663065633 10.1104741169416 6.5378779522285555
Pd 9.52651478997654 12.841812545519488 5.947891032805209
Pd 10.970738514078066 5.55770687236395 6.816730350826735
Pd 12.204291778304505 12.65471574208802 6.643586084344423
Pd 8.10843037129589 9.464627643459691 7.31008595210475
Pd 8.764031410543609 12.024798636814497 8.28496021653762
Pd 9.902629147956613 9.952899553026095 9.341500729567056
Pd 10.33713619272764 14.33921112850792 8.06091390834101
Pd 9.026918305972236 5.546754384751376 8.649457556753353
Pd 12.411210750746452 9.480496834802448 8.874508871769656
Pd 14.993113227395243 9.05683750873502 8.470076125409383
Pd 10.455611842997822 7.93056753815022 7.7440347101175995
Pd 7.641940698330929 14.282152748091134 7.37672973752053
Pd 14.048951761189803 11.688785588315408 8.636497592191278
Pd 13.066299558781887 7.280788443008905 7.56565198455883
Pd 11.419881361783624 12.079889256380039 9.043428483347936
Pd 6.373445013304127 7.428322255341119 8.15190418319859
Pd 5.604616699190477 10.014886141176445 8.321673495824758
Pd 11.648649159356472 5.746920894009103 9.373874863632308
Pd 8.405029413932986 7.876457445430941 9.70053688537828
Pd 12.984103047531828 14.22575968047674 8.823621003497218
Pd 6.185800592912439 12.669311139993768 9.103165976683785
Pd 8.32996175421672 14.238774099064612 9.974539267617372
Pd 7.440897979951461 10.454561959368712 10.091719613101885
Pd 13.699294416004372 7.4518804949467565 10.275386547115946
Pd 5.832727608085625 8.379472273580495 10.655595515062952
Pd 6.928525124839593 5.7995844865763475 10.352413396298882
Pd 4.9293029210831225 10.984088963245359 10.868971313681664
Pd 11.028179792611315 14.278058243084566 10.733978099691873
Pd 11.002924400084256 7.937510229874707 10.645532154496344
Pd 14.30108315386903 10.098858387115229 10.896314427391752
Pd 9.472555458237395 12.053449083529467 10.97070872607211
Pd 13.281618913510437 12.720071776135223 11.08869886036233
Pd 9.543423876176208 5.733605553806712 11.300395234937291
Pd 11.694903765813589 10.544233927436808 11.277682245263572
Pd 6.906982940853895 12.618213227335868 11.763620046614202
Pd 9.182239033179679 9.507929994484805 11.8909535723479
Pd 8.996446280201571 14.215715606375042 12.572236791072639
Pd 12.211412646987275 5.955201759697891 12.021838993069865
Pd 7.687135816937913 7.410628323326631 12.443897162443688
Pd 6.653988177060687 10.018959574600366 12.749611100894809
Pd 12.910863506580297 8.494287692731653 12.665200382874614
Pd 11.248156099926057 12.711178174026928 12.979469534056479
Pd 13.444309631324392 11.08753912863166 13.2841698626741
Pd 10.315729891357087 7.401875443192165 13.291691586536992
Pd 8.732917633537307 11.69048936662125 13.5932511125323
Pd 10.978993051185487 10.156429533680829 13.914488133517978
Pd 8.554437482574723 9.085415580110352 14.474560133580221
Pd 12.032015082660221 8.106463465510398 15.10568967955785
