51
Energy = -221.6131188 eV
Pd 9.599748506800648 9.411894486993392 6.416271648813664
Pd 9.84070922819053 6.747186621588135 7.070400134164538
Pd 11.86829792896723 10.956084217550947 6.356366814212921
Pd 12.07589670621462 8.26085401929987 6.890351886171386
Pd 7.4939084853739315 10.850744525068906 7.460648582664651
Pd 7.742850473653622 8.207824322794853 8.119426514112039
Pd 14.317993566098178 9.794721967427257 6.804390479063006
Pd 11.386965628321766 13.44581201533825 7.3518546993035345
Pd 8.703012448140193 13.605245332345879 8.011545549614835
Pd 5.7641706405272695 9.65619417708246 9.308197147456738
Pd 9.967126254187201 11.34692529146001 8.272013913525187
Pd 13.83151025896166 12.329058876955605 7.757729782646626
Pd 10.222905992190562 8.67427474501052 8.930832608974118
Pd 11.811512378043135 6.406981460186041 8.911390380761517
Pd 9.1514101286546 6.2479034098772805 9.6502614196868
Pd 12.496649225069033 10.186863233792957 8.828462501034767
Pd 14.082437610782298 7.905993357283895 8.768592786693585
Pd 6.7600658141590095 12.522962007154305 9.431685583949868
Pd 8.181283904024427 10.269088238873682 10.084914520529795
Pd 7.082801117916222 7.665625389681353 10.687741229903859
Pd 13.279428882271093 14.733800666358249 8.881576755392691
Pd 10.56295168846352 14.908289633588106 9.534389884713281
Pd 15.094188653860426 10.404017126783772 9.284656637037681
Pd 11.922200346476892 12.613758610372983 9.853238986371322
Pd 7.9158177318157215 14.851150624126303 10.267484348976023
Pd 12.511094350898329 14.553407778212195 11.504548633080491
Pd 9.255359353265684 12.686831859274598 10.746877146525364
Pd 13.277186434931462 10.861235024215558 11.649677823451995
Pd 14.544861496729062 12.897710030194068 10.38346198127376
Pd 15.91059410531958 11.030348683583103 11.68404589795193
Pd 13.742332787660853 6.136251749727825 10.813292029388684
Pd 4.72160306782124 11.61791795925414 10.801861374751805
Pd 6.882904702289496 12.45904448504672 12.14065786812403
Pd 9.964697813912059 14.789286764038943 12.220990393716983
Pd 12.205746511178129 8.356744515010076 10.815531684765997
Pd 11.111703858494813 5.984368335271552 11.568019637260301
Pd 14.792706472528694 8.6081735283176 11.359669277282757
Pd 6.259873814298952 9.87875427196358 12.001456982851186
Pd 9.550014624010664 8.284113212994825 11.54448402654735
Pd 8.481462452145008 5.919045413284545 12.23947047042565
Pd 10.744257176378797 10.51915857399628 10.790297146988513
Pd 11.291936935207472 12.388488462093854 12.677096347288831
Pd 7.401066554353457 14.91002006193805 12.848009828756377
Pd 12.924683039247851 7.414150563674963 13.123716527039628
Pd 7.029073452149546 10.829646621732026 14.398547855032383
Pd 8.893034945670012 12.941801441581712 13.906921736961348
Pd 10.30539121366512 7.32260369426295 13.858887426190693
Pd 11.52174465995519 9.709903209344343 13.324123345593796
Pd 7.690576483446674 8.246906742499515 13.507396894876152
Pd 8.983444213133486 10.647257129510127 12.696369575694348
Pd 9.44700474742046 9.60377439725738 15.060362157681958
