54
Energy = -235.29709751 eV
Pd 13.97548917397117 9.242876650942732 13.04957489934235
Pd 14.674913018056507 11.438890281030169 11.77037011209175
Pd 12.135324249962025 8.98057589088517 16.285656917157244
Pd 15.734035789647825 11.336859571729471 9.27010521092887
Pd 13.920260971727556 10.650400580363787 15.227453144103285
Pd 14.397096003833456 9.182942743753781 10.452970594745608
Pd 15.220768715944647 13.725025161112978 10.68568584370922
Pd 13.800059144843948 14.773501061366707 12.740936634716721
Pd 12.274794205951576 7.431933170018949 14.105678869559524
Pd 13.858455104864175 6.8522075553067205 9.119547594886319
Pd 13.003713675528543 7.194826266407319 11.59597793875636
Pd 14.379012932252795 9.096955126969782 7.806655168299413
Pd 11.595491734872548 11.689211892822536 16.03268382019634
Pd 13.181562785412462 11.353675699076486 9.026663604958708
Pd 11.779230973482525 14.256859206572205 15.044934837497596
Pd 9.63744916928017 9.829970869030172 15.707519839014658
Pd 14.171801869829014 13.65431015848348 8.227487710478291
Pd 11.978644790301392 10.673098201000187 11.409819940552524
Pd 11.178139581289212 14.75260786487194 12.492169920500547
Pd 11.550997649015873 9.961093481015691 13.86732938180371
Pd 14.593802655004627 11.495967983239307 6.699752266586558
Pd 13.30621990943468 15.573444214042452 10.098202905661283
Pd 12.973641353253257 12.382802446887533 13.500154365411946
Pd 12.603334754031163 13.191927764635786 10.831159566916902
Pd 11.909147182095314 9.003866490910985 9.375784641649458
Pd 11.226923316615798 6.460974992987004 9.644976463160459
Pd 12.00799965328093 7.508061204438006 7.239935673317565
Pd 9.788393383017235 9.203245381885274 7.681719314851958
Pd 12.193383733805048 10.099207150973173 6.727411024963079
Pd 9.412946147359271 13.207638296953773 16.175492579624773
Pd 9.651392404193237 7.717511933959806 14.117989300624425
Pd 10.25466572194272 12.417034767124473 13.77747918191856
Pd 10.6208392071597 8.175580394836588 11.722633444641959
Pd 10.054348903206197 12.64508022219818 11.137972646522654
Pd 9.130481233709547 14.900464817140307 14.151330001434824
Pd 9.144466247407403 10.31079576363284 12.839446716960468
Pd 7.339377689785599 8.89605332226045 14.53432645617823
Pd 12.205507670916319 12.704050624743935 6.409106930858137
Pd 10.693510314021403 11.740302525975073 8.549213899144068
Pd 9.485854068497286 10.174336013015925 10.259373028425367
Pd 10.612580900557917 15.827787307924492 10.23438268779337
Pd 7.717007777220435 11.478433529226487 15.098950728535797
Pd 11.58284274331246 14.248172702767379 8.445536194518983
Pd 7.899139302646424 8.160417973098209 11.98440549050634
Pd 8.886039207394145 7.656088336542008 9.567531130109446
Pd 7.721730832278373 12.959757241015751 13.048019468942105
Pd 9.926695218717706 11.120917562872672 5.850432277816287
Pd 8.487804433563197 14.854352948413558 11.502868357448056
Pd 7.474220587598169 12.22514685513757 10.495155191266576
Pd 8.952585797357257 13.965715118712046 9.084067758726695
Pd 6.592958067191431 10.609252848542324 12.495732907382493
Pd 9.65743004422914 13.586077160505244 6.631897897349893
Pd 8.121963243575788 11.413457674779183 7.985822328095205
Pd 6.970950478398184 9.652550921752828 9.879117843006881
