50
Energy = -216.56563628 eV
Pd 15.57759439474863 11.25178716238098 8.901096100507154
Pd 15.930802867487687 11.238749758221758 13.199396362163792
Pd 15.117677728630905 12.515929021961693 11.14006278618538
Pd 17.102061133330217 10.372112431968443 15.392257234503303
Pd 14.348140336703896 13.744762472998875 8.859132024211291
Pd 15.151841408659095 9.549085436224347 11.021995633722941
Pd 14.299140435363567 13.375824255276086 13.47582336353929
Pd 16.46590181334153 8.688466211520579 13.289317947917445
Pd 13.478128994057467 11.655528098491926 7.268335642118114
Pd 13.61997484272995 14.723967435151438 11.279585438626286
Pd 13.569452722211171 9.597738527125095 8.845012423268996
Pd 15.18302860762093 12.181254320155752 15.667690104379087
Pd 13.097073201916249 7.54286995992037 10.525101715584418
Pd 12.738824483075527 15.902738989834871 8.964929917037033
Pd 12.80367256031751 11.930532932256684 10.079008030680107
Pd 13.363611108934242 10.55993750800457 12.621590967314736
Pd 13.2081024715483 13.98466233420273 15.852993570201033
Pd 14.619440225212822 9.613266915573847 15.074697721695735
Pd 12.635367011899392 11.553499729001466 15.014581630301535
Pd 11.830291019845056 13.570571308293266 7.768321155739894
Pd 12.301964499168232 15.221491969833126 13.645140344020906
Pd 11.83031441429016 12.769520885663827 12.54078028481001
Pd 11.587392452863567 9.644691242523379 10.751156140502522
Pd 10.819020405300373 17.725782154670995 9.255078563944222
Pd 13.94270225087622 8.022382521209325 13.027510560640332
Pd 12.106142282618139 8.948523987790471 14.952692376356145
Pd 10.347251232367888 15.727735762758066 7.59377685414238
Pd 11.20133159337653 14.148896763193619 10.281859930219243
Pd 11.395314807467816 8.29107239220334 8.350961453181643
Pd 11.663651190938147 16.57128627144419 11.466445780602047
Pd 10.97168676262157 10.999266427452495 8.240742787708742
Pd 10.673828452061395 13.446542959971751 15.002841597482158
Pd 10.027738699473822 11.799247198318804 10.668504246585274
Pd 10.172858305854264 10.75389418760882 15.639682886555345
Pd 11.379075637274433 7.71424258019105 12.713996829271254
Pd 10.646295151218503 10.341074388589767 13.070039391302117
Pd 9.850695512025977 14.875921046604539 12.48577273205465
Pd 10.288226693781747 7.02870135725122 10.413996384568135
Pd 9.11829143037449 12.49547292390507 13.095181801959283
Pd 9.270605469248139 13.514457303362999 8.481129824677293
Pd 9.191076021945767 15.791134894702129 10.055537373512406
Pd 9.183198125195961 9.29137028482121 9.590105764543926
Pd 9.538914634727888 8.242225840965716 14.721700931466378
Pd 7.9082346817065385 11.403058126761133 8.793562158238949
Pd 8.138748281209605 12.47249969935229 15.496193430674438
Pd 8.849719476115377 8.487381211891572 12.16990318652963
Pd 7.937417805828212 13.494492679825296 10.865367815739713
Pd 7.941479948866779 10.23322268429829 13.994327202635544
Pd 7.664264819526073 10.725406592030245 11.33287112770029
Pd 6.544176769920175 12.362341675248711 13.11885245045192
