53
Energy = -230.75956745 eV
Pd 10.905347878121928 8.239427101125942 7.552724449781262
Pd 12.981846696764208 9.935196769117692 8.019694009745365
Pd 14.848206618629588 11.659276415956707 8.802496439621322
Pd 12.408868442926215 12.537566816905516 8.055449038682099
Pd 14.394371875144538 9.542494285481412 10.36517838530194
Pd 12.686304584726269 7.674258124637718 9.495946824000514
Pd 10.382435512900066 10.786307671307501 8.052113283912915
Pd 9.84448876488065 13.370168889101075 7.70912496719792
Pd 8.289541209939095 9.067731081178707 8.39162758127975
Pd 16.534019770173046 13.527510328121114 9.7792709726996
Pd 14.321285239708788 7.2075429438555005 11.638652578220215
Pd 7.833270994830584 11.696857969409225 8.16474426275778
Pd 14.246959548854589 14.405629783382464 8.757827616313065
Pd 10.266584700759449 8.516511275901378 10.064538259495295
Pd 15.808414325614644 11.553547518661011 11.38633738650015
Pd 11.87656898601422 10.70440342387558 10.333126671528964
Pd 6.521227130906257 10.336162283225542 10.041695417295754
Pd 11.756871245527 15.11784485302313 8.061739318725467
Pd 10.829948909007735 13.242781426258773 10.217805387390246
Pd 15.463333047785238 9.25084476783361 12.841158193719014
Pd 12.050742429598213 8.47069858716566 12.042031087328098
Pd 17.014287640596965 13.637407064543188 12.475363846511726
Pd 7.791125486261405 8.138493455867994 10.868323191035415
Pd 8.145440191265603 13.783647160380372 9.706845179397904
Pd 9.064914283267841 11.084141695908436 10.515946455688283
Pd 13.457495431877664 12.809241650912924 10.769030851913277
Pd 9.89597276691912 15.749368465769615 9.933163792269797
Pd 9.644750171249932 9.344171413688827 12.477395296888163
Pd 13.330527101320836 10.808113944471147 12.645291731815842
Pd 7.079876327018835 12.39995161542966 11.659498201872537
Pd 7.914762551335664 7.465603615580282 13.448726662623997
Pd 12.523030428624741 15.589908483939825 10.52934410307976
Pd 16.342968453126293 11.465182911560747 14.023695596632864
Pd 13.377423077317237 7.871511905600171 14.188258691322645
Pd 7.082231807391437 9.971780216086506 12.74655818233046
Pd 10.807451274078739 11.670620621294137 12.606427762758372
Pd 9.127716387332889 14.045500267754381 12.18819844604042
Pd 14.193236488878377 10.199412903976015 15.109563934676208
Pd 14.9764250520597 15.002751585592428 11.356192117461317
Pd 10.562605318582326 7.366953705239076 14.033055558677194
Pd 8.528557660387861 12.022430403944044 13.836718879910276
Pd 11.496659753864067 9.756882257290352 14.614150978565466
Pd 14.543310672000477 13.29443886223647 13.365631340785102
Pd 12.024209329599449 13.936578620153082 12.69733838456598
Pd 8.737036544336904 9.501816258953964 14.947614982909979
Pd 14.802834569814632 12.656690549546013 15.934279291190837
Pd 10.648011862869083 16.19589914026895 12.398659071364754
Pd 10.05567771815261 11.596386069862874 15.899749836399137
Pd 10.265319044399588 14.011782187249773 14.671589618823996
Pd 13.3512705347639 16.176681793750365 13.073358191805884
Pd 12.393434284041698 12.207958708799447 14.856964809496818
Pd 13.128598765344499 14.665617570787576 15.272170584475628
Pd 11.302406340238878 16.45839635400332 14.887531522222808
