5
Energy = -14.51964489 eV
Pd 9.60481814185204 9.966751500300694 10.25879109451558
Pd 8.390755634832349 10.115880124583079 8.045795652463788
Pd 10.769261080336545 9.206665105277555 8.124625838080505
Pd 11.9907687077004 9.114750622884664 10.351544792067465
Pd 8.400523712518984 10.685700614380204 12.281003974213075
