52
Energy = -225.94237745 eV
Pd 15.593153322941063 8.51419695960986 12.416277003387892
Pd 14.994228929691573 14.046608705904418 13.210660310222053
Pd 15.529583566920724 12.906008973235792 15.593576189667314
Pd 15.59809073339396 10.735390409986307 10.86922633351764
Pd 14.803193672861221 13.05070458596142 9.461175026334857
Pd 13.814424345273238 15.058866985292525 15.421883470375743
Pd 13.62629328258931 14.85140021062883 11.067537413787067
Pd 15.180412986218503 11.033546358759999 13.582640059967675
Pd 14.39959650832986 8.355338426279184 9.989361799578706
Pd 14.23729517664545 10.646428724140307 8.524772000957972
Pd 13.89299609102514 8.634682803472764 14.426540184350735
Pd 14.069941273777994 10.734888727934157 16.093071093333055
Pd 13.066423006819281 7.210944923087179 12.2152337821231
Pd 12.342900402654205 15.463688067133205 13.306311347611338
Pd 13.636639304604968 12.293800069097545 11.726402044902542
Pd 13.503849042239448 12.850088011742567 7.146837455687568
Pd 13.306349785740105 13.094669837077024 17.128385217297204
Pd 13.222902563533756 9.778711717577012 11.993272823381407
Pd 12.349638237821594 14.721868246447784 8.732990299734766
Pd 13.05939280740202 12.60217512672934 14.373588153440371
Pd 12.118542771508157 12.313005503214683 9.655080814814266
Pd 12.027181137079774 6.972169834871043 9.629152706797079
Pd 11.12146594101191 14.039899487728826 15.311972683539876
Pd 13.12455880119789 8.303899583414319 7.595551893098521
Pd 12.249438131235722 8.851361854968234 16.48089635169234
Pd 11.847438480340234 10.356928517387242 14.126774015266918
Pd 11.350025241268076 13.264527662984365 12.461617695545105
Pd 11.054152094076747 15.46077545274586 10.961324780102723
Pd 11.203847299995742 7.844687010570432 14.141150531279369
Pd 12.004429813925213 9.626712515673155 9.719246812296625
Pd 11.979285310900764 10.64416402984455 7.141142510854286
Pd 9.733407114583489 9.483999138961595 15.839364923882838
Pd 10.643446671031196 8.133714187063685 11.50600026554647
Pd 11.356671543200179 11.488286605991032 16.531677196921976
Pd 10.742086386672533 10.902229241072257 11.694000234292885
Pd 10.82969220770858 13.004503102126945 7.317296837910973
Pd 9.610699985166415 14.993908330567773 8.650964463617312
Pd 9.852807917977277 11.077419575750609 9.074647242836168
Pd 8.478120950184582 15.766184381100517 11.059155128493273
Pd 9.094380174959813 14.23905680090348 13.270966608898023
Pd 9.124637447343186 9.383606284081596 13.278287179486295
Pd 9.716210412481953 11.890709920406586 14.481581275535792
Pd 10.295764941622602 8.608166666118901 7.928982001249631
Pd 9.381731726757895 13.234787601416857 10.534664165528001
Pd 8.475383125318121 9.495544131168433 10.678020640999444
Pd 9.492944613683184 10.75485370325111 6.322620432753875
Pd 8.225707187611203 12.670382942669429 7.683040684590138
Pd 7.033191549988499 14.418820615552095 9.227485941218804
Pd 8.223203799117409 11.675525846673551 12.389448912992242
Pd 6.82656014122452 13.794313523339952 11.804607835266491
Pd 7.733398351870546 9.819516684661991 8.129642261407325
Pd 7.109345852539505 11.762510178217829 9.971964304793136
