54
Energy = -221.9086633 eV
Pd 14.41190643184998 12.192000171135259 13.464209315426563
Pd 14.199812643730265 12.71333779289976 10.81720736202468
Pd 13.51611722569746 16.002431796451443 11.472020525628396
Pd 16.636489658677025 12.593078957250526 9.743711574401178
Pd 12.083654152852722 17.659518167586707 12.942426574707728
Pd 9.331479447954326 10.16864832413605 17.584380264304833
Pd 17.412584617481507 17.63266667033911 16.803393307076426
Pd 12.967457731562998 12.289935890023441 17.97216676061325
Pd 18.17657462791311 13.412981675167202 18.553210770902677
Pd 10.819429360076722 9.4290070488109 12.614562289252515
Pd 13.808381045583934 19.63747575264548 13.505570529676179
Pd 15.703904163927412 12.878474131305946 17.920859036298676
Pd 12.393449551262625 16.946293158198575 17.062698315914556
Pd 13.394834022438875 15.372553277988022 14.225175395036908
Pd 18.05254518223752 13.023341130353938 16.01032607633818
Pd 13.037050918984614 10.540996173054165 11.650061395834086
Pd 16.819205056066874 16.257785743119122 14.551195714886664
Pd 11.019242508901847 16.350951256450326 14.973440627160713
Pd 15.603223123704852 13.878237919661055 15.1737538966756
Pd 12.303118673897627 10.85891400310323 14.35446059299366
Pd 6.795486247287258 15.459202415487022 12.153031404083311
Pd 19.316036493282663 12.0341525494059 13.910614526966313
Pd 14.849827557682119 16.92411352413716 16.335264962466244
Pd 15.729990743569175 9.182978674999223 13.507824774766073
Pd 18.19583707760026 14.426930837238798 13.727119358497266
Pd 12.618655815694018 6.653637743890728 12.220578218540348
Pd 16.75959455764983 15.181102194602401 17.23189932669932
Pd 10.813437566137036 11.93067520237808 16.440005178940492
Pd 14.503934136742314 13.221883925419226 8.25754248047108
Pd 9.887876954284009 16.454526880612082 17.439850837682066
Pd 14.824694913421041 17.340341472613627 13.195100706714046
Pd 8.72991244549945 14.012762550343778 12.741644147042749
Pd 12.887522894877236 13.211707741214273 15.38984984515024
Pd 15.60470985918813 10.556609798389292 11.386389766628819
Pd 10.449263120210576 13.819757216590581 14.669940143338481
Pd 17.36618483275394 14.815142059283087 8.565964939696377
Pd 15.19988949407235 15.054975187549443 9.882833914801317
Pd 14.647422986835265 11.354219774711481 16.0229746378674
Pd 12.332716809262882 14.226300260796782 10.089638805408638
Pd 15.543640385230644 14.761981419004233 12.604783275928416
Pd 11.100644386632629 15.06381984835733 12.365555282156297
Pd 9.00285025798837 15.925148252099408 10.957722782021222
Pd 11.369802516179785 14.424826915231538 17.21170386228316
Pd 15.87415117063963 18.878437171120247 14.989134807306952
Pd 9.543952197507119 11.636224816829577 13.472895105000948
Pd 17.747340143671337 14.854535541558791 11.144374627647265
Pd 11.474025848502729 20.090259624506437 12.587717491877985
Pd 16.8235818797416 11.142566967357453 14.671983249827813
Pd 16.98814226698481 12.551645919978515 12.383844567420764
Pd 18.015424974817698 10.098734553202624 12.450631320665925
Pd 11.39883479388527 16.849262416602375 10.3117428686901
Pd 10.038202845852725 9.77622247035421 15.13812774152343
Pd 13.990202428337662 14.815105228910213 17.506481673764387
Pd 13.322519863585706 8.636667965878113 13.397695534549753
