50
Energy = -216.82648292 eV
Pd 16.044921348164685 9.19678510878004 12.892409316966122
Pd 13.969853613482202 7.260188173435701 12.966845019178699
Pd 15.034045518536598 9.354965423529595 10.578584105236509
Pd 13.271201803160443 7.20563990409157 10.091339576702941
Pd 10.887181729063125 5.931324403733312 9.57307900963649
Pd 16.379304252027016 11.939548516677938 11.557955131892614
Pd 11.355443781835492 6.791823508785875 12.049917577187228
Pd 11.78112327724302 7.580999826010687 7.71139799263342
Pd 15.909721199862346 11.411663760128427 14.319560654925505
Pd 13.885474593630358 9.603126618876615 14.384797051006373
Pd 13.276480194079753 9.440553456265603 8.681565479850748
Pd 14.698431333202896 11.718613460707367 9.364952691307233
Pd 12.687285174266664 9.168975278021266 11.827645842598358
Pd 11.712437428822957 8.220042153089212 14.295643766225249
Pd 14.020898990402689 11.334568252477045 12.232543551418184
Pd 10.85933533590705 8.755536447371945 10.118766583400543
Pd 8.856265665713368 6.938723718685221 10.941587324661183
Pd 9.176521208484772 7.698895187873011 8.297398845835762
Pd 10.627428009053647 10.097965550534472 7.890761687756118
Pd 14.545478945869114 13.950773920230674 10.84582946593395
Pd 14.978718420432301 13.720911378761125 13.433165847500426
Pd 9.68032274583614 8.877098859781409 12.612609759829057
Pd 12.948349121216527 11.527680133819977 7.216743764320684
Pd 13.391931457492445 12.094234607462203 14.860769433349127
Pd 11.433454290026992 10.946193713566894 13.242941901655243
Pd 8.200494051121469 9.357323205692461 10.06852567992932
Pd 9.95066959074416 10.039743379792288 15.258677610795573
Pd 12.173462948517841 11.402658822144407 10.139738512470863
Pd 9.773447517964733 11.264219689269414 11.090428447263845
Pd 13.047972144090668 13.714151617416178 8.682311792971465
Pd 10.926697708986566 12.563215967151502 15.313537255847574
Pd 13.731168021751555 15.912522527991412 12.608696389624766
Pd 12.377754108953372 13.350926156102117 12.285436630769045
Pd 8.351857231311103 10.949888466318907 13.407863636652065
Pd 10.70085759521028 12.739181811759034 7.78076479200583
Pd 12.520202245682972 14.625627417315549 14.648558410706487
Pd 8.463828464667117 11.702950209353794 8.892901364205319
Pd 9.78503110077798 13.222466683808147 12.934150158489736
Pd 12.472257833986829 15.71944809090872 10.329317817698268
Pd 8.354215012577695 12.506372020969284 15.53582859971626
Pd 10.714132618190591 13.65768908655624 10.274943103108082
Pd 6.985840085346602 11.37566143242064 11.208351517930254
Pd 11.103129512121216 15.444219195833092 8.087734425326456
Pd 9.70771092520797 14.897437068772968 14.944181240581656
Pd 11.032442318245153 15.70444896114696 12.655460881687006
Pd 7.1150631319582445 13.286582990273375 13.255996817803805
Pd 8.054524288688215 13.766710779405997 10.840145546635348
Pd 8.682609074765491 14.345047741917426 8.379332146335365
Pd 9.658030281557457 16.050314374140356 10.345676792173304
Pd 8.380423862853494 15.640640746332473 12.723834096003431
