53
Energy = -231.72422542 eV
Pd 9.474204245131517 7.3244806477780875 7.648044620656503
Pd 8.4963973937628 9.447357134401377 6.395464364819985
Pd 7.223494630333433 8.625786050417902 8.781537778410252
Pd 11.139057306135163 9.283167131109119 6.904230250765938
Pd 11.491205773263651 6.642236033724891 11.344176500111324
Pd 11.696893179334241 7.865245877426149 9.073700450672424
Pd 9.22220394888684 7.540974485400455 10.256011731092176
Pd 13.45596415387591 9.599162796237916 8.188283107019323
Pd 13.702182700532658 8.344446338794508 10.957490862675415
Pd 12.165920997496602 7.929069213577305 13.481306377026309
Pd 9.445081271926252 9.885089957425924 8.995853767392925
Pd 9.925635210791695 11.777780931654492 6.829059601280975
Pd 7.423203473746468 11.461761985913364 7.5940543641479366
Pd 9.635438931166693 7.960923672425662 12.798796430557184
Pd 6.687032507612412 10.97293491751668 10.063578359059028
Pd 12.549717441287559 11.426254521808088 6.2862804465244695
Pd 7.188422791696119 8.7042795014816 11.599203209863791
Pd 13.424452562714286 11.022356297924247 10.541186968372587
Pd 14.256159222989718 12.220333918363988 8.182975281433581
Pd 11.528856725724479 11.439576489826383 8.89472120706272
Pd 13.131984763737467 10.329262535913232 13.058307439530248
Pd 11.23114831103773 9.508621019041318 11.119836771598811
Pd 14.78394105280717 8.15716406731028 13.497988782807393
Pd 8.878773159313361 10.684022432596905 11.579159607325211
Pd 15.732216443114995 10.200981308964085 9.414428601862037
Pd 8.001813106214199 9.559458118256519 14.057584247582112
Pd 15.60317503543758 10.308202605441437 12.054650974192763
Pd 11.842664924118955 13.703343963231125 7.572120599987313
Pd 6.616286411341882 13.522934227410353 8.942219022566384
Pd 6.373075534432132 11.114572301809186 12.73460808263499
Pd 10.37383424087122 8.840588980098468 15.345890361044058
Pd 15.594933777061133 12.658789154516779 10.554096146235395
Pd 9.083150412126697 12.504231429139715 9.605873953390779
Pd 13.16431124955566 13.79891480794814 9.969966067297088
Pd 11.030503114033623 12.320118277249955 11.46187153267353
Pd 9.084350218682058 14.212015182937899 7.684423086525846
Pd 13.14236540214139 9.416611321414173 15.497116771949273
Pd 15.607226525857092 10.398180281367106 14.695171225260454
Pd 8.87120167181463 11.046625770498402 16.00364780512713
Pd 10.637477893197584 10.658074557340383 13.552024215235665
Pd 13.43801095611593 12.78857686613774 12.462770395129448
Pd 7.348121776578622 13.225215341908143 11.53303019401339
Pd 15.824016484275255 12.80468984010481 13.348684886679285
Pd 8.194770611934713 15.301821562629096 10.127789191498447
Pd 10.717289749795627 14.650172096158599 9.819857092209276
Pd 14.886930291099967 14.955971101162781 11.82905082308753
Pd 12.134245027268811 15.124643425952668 12.065006688824761
Pd 8.609599408636942 12.416917394845525 13.763731135092058
Pd 11.40312949578423 11.41850992769308 15.957100333089643
Pd 13.70620965424532 12.186877800382298 15.059705687729306
Pd 9.610311235435125 14.44551589918406 12.276705364462732
Pd 11.254733408385858 13.323706396195895 14.099881780343832
Pd 13.676956849591337 14.725089320650884 14.288760671136647
