54
Energy = -235.45033348 eV
Pd 16.70894626808538 14.742690196371008 10.56665055958429
Pd 16.51647790526841 12.536910152803108 12.179211083619128
Pd 15.543335469811204 14.937220603953039 13.013685544276107
Pd 15.984361251640491 12.968956057242707 14.81608633941357
Pd 15.321598218487852 10.540490516841919 13.882039067346906
Pd 15.039196839360812 16.800735432201428 11.118575375128131
Pd 15.619130740902902 12.575246623296652 9.544045989930602
Pd 14.826915089912521 10.664042682240467 11.25816654481851
Pd 14.34301110009898 8.382236173404058 12.627172310641713
Pd 14.120178059127017 15.609220031314633 8.637154605083731
Pd 14.087579741815162 14.26256559802363 10.784751544728293
Pd 13.334968040712848 8.074004235227866 8.253296098418332
Pd 13.906657652413829 12.698135812086315 12.913814733262603
Pd 13.101993558650939 9.156897771987344 15.085083927487046
Pd 13.29295122861046 16.43877076122789 13.171910998966018
Pd 13.753783390685873 14.466048466524466 14.919269289095759
Pd 13.665663946913678 11.783538596659271 15.572781597381812
Pd 12.588054345755067 6.681309334063238 10.597504779310235
Pd 13.290706266053352 12.87247870312727 8.16333255623236
Pd 14.43123867902766 10.452208442484915 8.659938958663433
Pd 12.482992853014204 10.42904272949375 12.9213829934775
Pd 12.435172244659011 16.702799786470397 10.667226155843583
Pd 12.543805500562891 12.039466143500123 10.592770958909815
Pd 11.920235030290177 7.570230807226866 13.062176861020342
Pd 12.690648298515175 9.268954737399241 10.530845493213317
Pd 12.122485764251616 13.626247299403074 16.79749736530805
Pd 11.893008786696972 14.44744384716654 12.216856191457424
Pd 11.695340450606022 14.655225208646682 9.289053127308508
Pd 10.04526433584981 13.196400010435504 10.818353442107952
Pd 10.380306449127586 10.693326655689727 9.991900753467188
Pd 11.92156672420906 10.395528673037226 7.857243419566122
Pd 9.339128366182774 7.009619837421017 13.552572715574552
Pd 10.426399480195483 9.292940508590927 14.483284744356787
Pd 11.135679960261164 11.130515547953202 16.186713162117595
Pd 11.523313207641642 12.715821465721342 14.18015310803255
Pd 10.822027843635787 8.10155557394324 8.917981994868816
Pd 10.086022337857672 8.747498521290884 11.627373356836303
Pd 11.245737876894074 15.394849494125477 14.688709234103095
Pd 9.029661516526561 14.77845754363785 8.82626536750848
Pd 9.954250733614668 6.307101144227598 10.875858409024563
Pd 7.981520755741044 9.44670395160665 13.301321516726201
Pd 10.511025069185306 12.618594654943744 8.077973732911685
Pd 9.893846316967778 15.881893885716636 11.1913938848273
Pd 9.62062164232474 13.621106289525375 15.989585401656786
Pd 10.048261092159578 11.266008349317609 12.523872245124219
Pd 9.099862384839934 10.12914538249006 7.843475645192354
Pd 8.747399567192314 11.49351311640234 14.784615972820857
Pd 7.552513611573179 7.402821867617372 11.609666040303845
Pd 8.310831195588602 7.807139430827317 9.114301529008618
Pd 9.265237250763896 13.975905048515134 13.302654711183006
Pd 7.844096774490579 9.922716914578153 10.583205249726166
Pd 7.628745531916977 14.344480919330609 11.11008468819579
Pd 8.063916257689465 12.251183023735923 9.357511971352512
Pd 7.54996726405648 11.954985980733264 12.306925613652963
