54
Energy = -235.02822197 eV
Pd 16.711432714911197 15.010916427480725 10.509670368748939
Pd 15.470159627564659 14.092615931937686 8.214454605054076
Pd 11.601596249205572 15.940203687025514 9.68860936548149
Pd 13.944488236966949 16.802791580291547 14.24231926820215
Pd 10.25164327591393 13.753503850535257 9.654109798129312
Pd 14.186830260469875 15.676137225595204 9.955857344131415
Pd 12.721919920771729 16.494379124062544 11.970135733473331
Pd 14.955156007228888 14.932981756566313 12.649614598130272
Pd 17.193227677460275 12.483527997251853 9.624002031808898
Pd 16.847274300024225 12.985069372929038 12.26268583220917
Pd 12.769214993867307 13.509765835625416 8.734269500119938
Pd 11.42889716953464 16.045593058462362 14.212259814945124
Pd 14.679336176382664 13.176091797384883 10.653743222524346
Pd 7.862529849672961 14.100242226088284 10.736142613781103
Pd 10.072498698389039 11.976908985937566 11.52404055411627
Pd 8.207243084814765 12.236004697549602 8.89727149144216
Pd 14.886518216782388 11.489766429664105 8.629883793672136
Pd 10.035304608342354 15.225939536093614 11.992856157460599
Pd 10.537973269842709 12.387650798090343 7.4851289871977
Pd 13.39437064324431 14.27639659452843 14.711881733391795
Pd 12.306567773477687 13.914234084863919 11.639446348811193
Pd 7.563518564415494 15.856533504762124 12.699215516523736
Pd 13.909004444475338 12.136208581283169 13.012965962778699
Pd 15.692600707935531 10.778305886059607 11.121239914515904
Pd 9.05913258936487 15.23982702502631 14.797074367159057
Pd 12.449385558053123 10.731866603028122 8.100207288342293
Pd 12.605782974010268 11.40537833369535 10.698216845786316
Pd 16.55716062414607 10.703464168422897 13.573294626513398
Pd 15.717250549405295 13.0269310325548 14.700266806166416
Pd 10.112499658376862 10.392496181769399 9.3292024231848
Pd 14.010967450194315 9.244933260641867 9.823451168303846
Pd 14.01339273494117 9.390164767315548 12.648569643045256
Pd 12.428997626476663 12.002759209753485 15.66704527231753
Pd 11.201992343371778 14.417922682914112 16.274557247668834
Pd 10.893619259781259 13.247231829516624 13.79779320042627
Pd 11.52482324564077 9.071884642831174 11.260357476012159
Pd 8.130676941348277 13.322513069439804 13.250879951770887
Pd 7.521517189402289 9.708734500523542 9.458151799799984
Pd 11.781501682429441 8.255476940042831 8.71388037619788
Pd 7.490447554144061 11.486672369588327 11.455275423032713
Pd 11.675186074385962 10.678102322076024 13.36026569294301
Pd 14.529293677643283 10.611329633393822 15.152046779215766
Pd 10.706717357502693 12.235700017368002 17.683477602362316
Pd 8.891438515263077 9.172633603469398 11.691625399828135
Pd 9.262207665736927 7.716296816474542 9.493066804837053
Pd 8.874790299341699 10.841283881730277 13.705985276633351
Pd 13.150700176490057 6.950797585506196 10.81151079982073
Pd 12.500116176544163 7.301831983125435 13.308203104335316
Pd 9.061347594804841 12.691636740646508 15.667153375728068
Pd 10.31431573396375 10.333709746259688 15.91189085558096
Pd 11.106622733733372 5.8398897213769985 9.497846051208255
Pd 10.334572800547228 6.803392370805274 11.826525449805256
Pd 12.519489440500852 9.003748146140047 15.28072825339768
Pd 10.176884362847158 8.477806795761591 13.942391371607659
