5
Energy = -16.50239127 eV
Pd 9.280006016725567 9.553167282959985 8.57532185114889
Pd 7.386755571724248 7.849132112337934 9.468876582232628
Pd 9.825112564090938 7.026923635770445 9.025140503066964
Pd 6.809540951419154 9.751460388440057 7.735725513586394
Pd 8.28102014575276 7.706905075742587 7.007515199802601
