51
Energy = -221.45738476 eV
Pd 9.637901976633456 10.00964050535314 5.54744643066805
Pd 12.196612323809624 9.091853444957405 6.68875096651892
Pd 11.740742954286254 11.816284746709478 6.224511562599591
Pd 7.530351141407861 8.390698254430564 6.3186898799227516
Pd 14.22502704410819 10.963748296836194 6.821101958438035
Pd 7.472907725268486 10.779413053033593 7.3382313140996835
Pd 6.975677149457285 13.277511712510444 8.194300215099473
Pd 9.880450761846047 7.698698292949074 7.144044817347592
Pd 10.25673888475792 10.476005171148715 8.000484769217893
Pd 9.20527740342451 12.652537608472446 6.729083324000999
Pd 12.108829654896399 6.454922899228104 8.007395996907437
Pd 11.116043228280379 14.510608320238596 6.700685153935059
Pd 13.975498225973784 8.347135652671106 8.6601172545029
Pd 8.480604559559936 9.044981376557914 9.245534712548583
Pd 8.798808021796868 11.85655103789861 9.676761598559267
Pd 13.409285493406372 13.463084999690714 7.7225648948999135
Pd 15.127531692992214 12.147349662722563 9.304374371267837
Pd 11.361910238023173 8.61145646058117 9.274529943573217
Pd 5.948825080979691 8.853087455932728 8.472433295734774
Pd 6.266751166861372 11.286681819276536 9.75637014599713
Pd 11.103052276790459 12.772825890915392 8.778789043407402
Pd 7.629057340796949 6.611541365350125 8.32936791130733
Pd 12.929159512506361 10.824802899096053 9.018568075477113
Pd 9.171672362272904 14.619767768537457 8.806109496815406
Pd 9.900965821594156 6.388032096585032 9.647442319117404
Pd 11.835543372476401 15.278333891826344 9.198141469454345
Pd 7.777814553906601 5.022995490290313 10.603436745467073
Pd 10.418587646985328 13.92184056030009 11.120904908085832
Pd 7.787225467297358 7.537870745341865 11.248166019074333
Pd 11.030111622555305 10.960832652075014 10.936043372193595
Pd 8.315296214418042 10.083635601959282 11.735977883260352
Pd 5.595388720010701 6.684127356318788 10.073652390057728
Pd 14.073914577282094 7.404992408887653 12.858785085362296
Pd 7.500667530822192 13.583117530245456 11.002672685545322
Pd 5.628308105341479 9.161976883082131 11.049518063517548
Pd 9.798738036306574 5.907412235691393 12.340468367224958
Pd 13.225861170157877 9.114604767694955 11.09939347237524
Pd 14.253132438417547 11.392393058813221 11.713235629223384
Pd 13.019077048723357 13.31642237017613 10.549803121066493
Pd 9.167449127451809 12.353580098916302 12.739018868706912
Pd 12.26209199549654 6.574029244797878 10.957678293734544
Pd 11.951171423886661 12.400716545962457 12.90354846148195
Pd 6.288824404948114 11.482124142993975 12.468826834176603
Pd 7.24465771684542 5.991610893730163 13.233987454080234
Pd 10.362208125013662 8.451557951301739 11.615115426696486
Pd 6.434871953271241 8.74636687689163 13.448552759333765
Pd 13.051524476144127 9.88079935155205 13.557467714023817
Pd 11.608266090393657 7.52515682748758 13.685303817667512
Pd 8.033778520699562 10.61430520208148 14.45854074025107
Pd 10.505625532948292 10.212558402147675 13.686849797933505
Pd 8.95337326223699 8.02060929351942 13.880412343808363
