55
Energy = -241.05927109 eV
Pd 8.793706053758497 11.574954382459135 10.760623794718258
Pd 17.941967920698534 13.96063851418858 12.982101810250606
Pd 14.902755712576626 10.943225979367336 14.73141489470196
Pd 11.480804971680847 8.603749902165433 12.968845876514147
Pd 15.664188547844574 13.733051638722602 14.37035781997166
Pd 11.65969056598547 11.347152118981542 17.026765801424997
Pd 13.533405030768543 12.867993282908541 10.520677356760608
Pd 12.903973551409337 15.6427748963906 16.990326781641578
Pd 15.921838694932864 9.788092048911334 12.460139204486499
Pd 11.156708556898776 12.26337805218284 12.069168954821606
Pd 11.017523254982244 12.38487758907941 9.33680511813168
Pd 12.135882018101437 10.969158472206512 14.316863921353542
Pd 8.644554954604146 14.406605563818882 15.393976712152368
Pd 8.639781929200957 12.971688949090106 13.061265453509124
Pd 9.5658766753302 11.866452537077688 15.41121823084891
Pd 13.028631972366904 17.020522736237407 10.79978945209434
Pd 10.339802391744627 16.745280428967693 10.790031989690975
Pd 16.892842525846117 14.811050590212337 10.71913431654474
Pd 11.596973238746045 17.259370488220465 13.135224929575632
Pd 13.94173430024874 8.569883007431704 13.726233563202966
Pd 14.682624826157275 15.01927887093436 12.109915214660575
Pd 13.215894616085707 9.34938675932059 16.148645552058564
Pd 10.510000061194933 9.285678489975462 15.463621807270982
Pd 13.198977218428261 15.345721910385402 14.300891767959957
Pd 17.402283038469076 11.435629707918705 13.809653741898515
Pd 15.97487121415167 12.455192127890365 11.753091153821195
Pd 10.713296909646902 16.170766124333767 15.452053449526787
Pd 13.301573095964258 13.097008681433731 15.776936640028815
Pd 13.550370150234258 12.874438394065777 13.161004726556406
Pd 14.491927600717084 11.409894477935888 17.400995777420356
Pd 10.791929543065844 13.897731981684048 16.968861954982653
Pd 11.123892143922468 13.682353582201463 14.29195220773817
Pd 19.00184417817456 13.013844898507969 15.19556933277521
Pd 16.665235412316623 16.29060329859517 13.302811364687317
Pd 15.694450063209818 17.24389329882566 10.891565690629392
Pd 15.24751577275996 14.294175909843998 17.157159845355675
Pd 15.174102096671326 16.500731019244903 15.580892818036693
Pd 14.29132385329981 17.614625237802915 13.171176756263684
Pd 11.746314994981322 14.982826682508506 9.272580925981497
Pd 13.416836655551382 10.610100690135308 11.968540140069647
Pd 12.816043319120098 17.886820382258403 15.455990761891877
Pd 12.91213732167418 10.568089411802875 9.018198501074426
Pd 9.544515183751775 10.41135174567731 13.138816202985462
Pd 16.745816116091447 12.244542077825534 16.30571668231139
Pd 15.302659204584886 10.483736448827221 9.982774638649945
Pd 14.433595162181668 15.203246639150137 9.393784973243605
Pd 12.963376853537236 13.38130270778135 18.47085537873921
Pd 13.26276525945874 13.092867303650502 7.935787996574267
Pd 12.0047648388871 14.775821092014894 11.877093528536927
Pd 17.441471850213897 15.108608354083026 15.66154823668627
Pd 15.79609777084249 12.931086801791077 9.074623478279369
Pd 9.539219128548071 15.533050638842688 13.096828871721904
Pd 10.961140501362047 9.956352398884917 10.733833742908821
Pd 13.199644542372356 8.394625613910714 10.775875761659076
Pd 9.548470746957015 14.154339173646404 10.759008506929824
