51
Energy = -222.12746799 eV
Pd 9.553942147764046 8.910678591027528 14.573545469547085
Pd 7.883162672559141 8.062215022620686 12.715466627471708
Pd 7.265256612793006 10.663612296978695 13.808021129208164
Pd 9.123120049534382 11.204894929338485 15.921808701473116
Pd 10.574719421293967 7.792384900664734 12.215312156148565
Pd 11.219627815804666 9.461740788447381 16.476021462078112
Pd 6.813734425288391 9.940308576096093 11.123516221273968
Pd 11.635927477584694 11.948749193964286 17.14680100443161
Pd 12.25115058711666 8.733309579909848 14.152030331052472
Pd 9.371229120399342 10.296349241075813 12.402009780469257
Pd 8.80981670728566 12.928093989576608 13.900768514938092
Pd 8.917315875332948 8.433635179680817 10.256335007101937
Pd 10.163868762250736 13.767820486668152 16.010694668970395
Pd 7.307806136494303 9.541453916014735 8.433027389872095
Pd 7.508310390578521 12.464775747961035 11.6877250137051
Pd 11.207975825285587 11.494799480771643 14.324904234275749
Pd 14.66960087872128 9.619334137086536 13.29083246156635
Pd 11.504034552292596 8.071873432704072 9.690278046010858
Pd 13.20254857294962 7.837706039716095 11.756614649941858
Pd 13.46753420987899 10.700947486315606 15.578037885162285
Pd 11.944643112457394 10.227726164795445 12.000979179425704
Pd 6.449821474440718 11.878020304542389 9.274602323787242
Pd 10.588213181328607 12.54527159680114 11.835596328503117
Pd 12.79361516016198 13.539372840349952 15.321730495390389
Pd 9.847522566661079 9.349277874779249 7.891828741204713
Pd 15.835159966778612 8.170954864908124 11.263166961844515
Pd 13.681396349734644 12.024031426060533 13.297984120004
Pd 11.71476247944522 10.672254301808879 9.45259576293206
Pd 14.189548064140219 10.272141020949473 10.68361054367776
Pd 9.128831641228102 11.12709580739865 9.953937346136662
Pd 12.292248295608788 8.893926192090568 7.215679650910629
Pd 8.623150108524616 11.816389371746295 7.478557984119327
Pd 13.080880941751223 12.6349647377946 10.859362662957587
Pd 11.01596428172727 14.487662838019471 13.614676023543012
Pd 14.111112993493474 8.096025325692217 9.141443515176993
Pd 8.235721646458744 13.757418761479263 9.38408286278911
Pd 9.058465678985907 14.692131444091455 11.790327803982835
Pd 15.622003438049463 13.217808785118283 11.998537610424487
Pd 16.56588883735113 10.767030293416928 11.678840923280562
Pd 10.830320923098041 13.188749176162652 9.319105149592193
Pd 13.597897317587021 14.654462493856089 12.932406060080917
Pd 11.324031364316198 11.61393665870109 7.015826430629067
Pd 16.35919212756261 9.730971887033139 9.123689253264912
Pd 14.0750508532633 10.622351040141073 8.023369538362665
Pd 15.567035876281036 12.346612843162323 9.493975247144657
Pd 13.27885291301337 13.065359071196097 8.19998437037809
Pd 10.029498542175947 14.138395187709808 7.107145620593303
Pd 9.780590494598538 15.830601843887132 9.398880937556978
Pd 11.70319329885624 15.108126143318291 11.126462069519855
Pd 14.31591943995551 14.825443091962345 10.171643193676747
Pd 12.235124081308019 15.411288822893399 8.494054907900471
