50
Energy = -216.56327835 eV
Pd 10.827323585992056 13.198324809004253 17.616775882460132
Pd 11.430474770970495 15.043866145862605 15.76796085465527
Pd 11.984808270684848 9.557638283726998 17.346180837829845
Pd 9.09359305435615 13.274252464564757 15.615291931546217
Pd 9.550669471735102 10.879384572013084 16.817538903464467
Pd 14.21233691192161 10.980478406452278 16.913504381239008
Pd 13.424703447429277 13.510963477544589 16.6732988387266
Pd 9.264442906591817 15.545648418718892 14.233908484644315
Pd 11.738511199577347 16.162635792591505 13.316085012619125
Pd 11.792839228184723 11.655321243390238 15.728160607905634
Pd 10.666870854224337 9.09038867703654 15.108283336123487
Pd 11.089940859785685 13.340733464741838 13.824637705012119
Pd 14.193345053557023 11.969451639642397 14.429404803669442
Pd 9.296933540716573 11.106924216694678 14.092013718178764
Pd 13.448294804592736 9.23348637858738 15.057620495325567
Pd 8.295170028822156 13.297522567876475 12.997466384386334
Pd 13.60981470275568 14.575708517604589 14.261801491469052
Pd 14.18619257451187 8.947891771631685 12.503672994651664
Pd 9.981027227531758 14.883898405882075 11.76123289496516
Pd 9.994578557749229 9.173501098338747 12.470722358604563
Pd 12.119340846240249 10.73485474476014 13.287528434062166
Pd 12.054776129342018 7.736997665012446 13.291798596215216
Pd 15.518149451977909 13.661073615840571 12.80267252017837
Pd 10.584341716968657 12.023235799509294 11.581933282064682
Pd 14.08560739925719 15.824929152762348 11.830625869414689
Pd 12.598648996276937 13.738583273782702 11.699454518127324
Pd 11.724346669144593 16.554349451996526 10.714422607547306
Pd 12.141649958482065 13.446605061030414 7.228099946177111
Pd 8.19363372094702 10.944187687652276 11.623242793976265
Pd 16.819293293157333 11.951323753670218 11.188934842920533
Pd 14.215069440904804 11.55318112773075 11.730772485617292
Pd 12.243519337228284 9.878422861366406 10.817553099706844
Pd 8.604669191949728 13.240961411260255 10.201631049977703
Pd 13.693812269117737 7.792378366848208 10.075977150413328
Pd 11.13127620200909 7.4291860149190265 10.784843892024174
Pd 13.146456167574982 12.40864435553473 9.434822559408724
Pd 10.804093119000596 11.279753390670754 9.137630487796923
Pd 15.265802188011774 13.891327183147222 10.218218406130731
Pd 10.93095993489772 14.179757174590229 9.440818577880735
Pd 13.306993421344922 15.267533406609102 9.147629985651136
Pd 15.573287362589467 9.679081425434577 10.377739184448995
Pd 9.334739325230373 9.211906756446828 9.896675519628113
Pd 7.779480724778094 11.106189719043872 8.924874894361107
Pd 15.788244839078187 11.715474843367003 8.715363491652901
Pd 9.484449257994793 12.772567276198373 7.54914988356325
Pd 14.75915027498515 13.813966561896526 7.539783697656038
Pd 13.773099387426155 10.067515002921894 8.488919137889503
Pd 11.567012824200367 8.604726680843246 8.371686600500054
Pd 11.92962744770773 10.8539741889489 6.806838226553367
Pd 9.433356602798002 9.896050246611177 7.241554893291266
