51
Energy = -220.99418986 eV
Pd 9.007577300396967 14.356009853280694 15.167645440447135
Pd 11.742672977217994 13.36012456292851 15.070196401894314
Pd 10.692303540187156 15.499640884214791 13.660635556835796
Pd 9.398980459317402 11.83907404018672 15.10938803840199
Pd 7.68042176420458 12.878041928111498 13.376075295032926
Pd 14.534707978808376 13.420968295693228 15.064430852108494
Pd 13.282634509829352 15.194327864043128 13.499511493589374
Pd 11.414982588243783 11.1812649035285 16.65115471013767
Pd 11.933495870901163 16.885349832755903 11.860115182820259
Pd 9.684432443193531 15.358080394445041 11.194925591399036
Pd 10.34163255793681 13.093478991829393 12.608874210712225
Pd 9.416614830151076 9.4449865052067 16.097816380458188
Pd 7.546165840437132 10.161825990663143 14.151235254100905
Pd 8.250302687352066 13.157601231480099 10.795916003189507
Pd 14.437888401699523 15.929563251466046 11.161813546473926
Pd 13.189456321875289 12.569811188232014 12.87910505017564
Pd 15.454950153056643 13.811898863826498 12.468095688493138
Pd 12.220513187727516 14.299165062455872 11.038065609262803
Pd 13.554234100634703 10.977287103155646 15.197312327520642
Pd 9.764283542833358 8.61204993549177 13.618948731551775
Pd 11.298846177101321 10.81736462788225 13.63303694620478
Pd 13.293387661852167 17.907401090022546 9.811028659364094
Pd 8.959313385995436 10.880705559162815 12.012507302979522
Pd 11.917987769513822 8.840012376878072 15.358410216965595
Pd 11.442595077653928 16.113072291660146 9.243495836623355
Pd 13.97635391066589 15.733412224067834 8.487959030688224
Pd 7.662399604514946 8.442118853731984 12.086519456441582
Pd 8.852622908812288 9.198665591106048 9.90004247057296
Pd 14.421085858683321 8.502533070732097 14.37100745923097
Pd 15.660081830287696 11.354002570823559 13.714585400715222
Pd 11.172625218910214 9.54288356496579 11.198040187176593
Pd 7.829772461621593 11.411101360427855 8.847464511921464
Pd 12.15793139896175 7.652291068442607 12.999742122171615
Pd 13.539529336353091 9.929205743586955 12.410531126768182
Pd 10.331344854837615 11.667068176109899 9.63964693650815
Pd 9.763943775779198 14.144960974040345 8.847122572776797
Pd 12.73772814122888 11.651005233070167 10.501662649807965
Pd 15.431234451679817 11.437075678721706 11.01068857799377
Pd 12.38498765732356 13.613519368381322 8.430174579031679
Pd 9.95529816976721 7.150688059275183 11.37988310841402
Pd 14.665129936042922 13.612031925070621 9.879078619957344
Pd 10.413334807630216 7.469713067779299 8.673271261808342
Pd 9.73276796606341 9.85876965523709 7.52428130086677
Pd 16.212626170883414 9.196550437477875 12.287479560823947
Pd 14.548053018020239 7.180179667737767 11.946291129272872
Pd 9.359931750357935 12.45429558956965 6.93398158121076
Pd 12.474151076922425 7.28628361667537 10.311448350094913
Pd 12.222429096948186 9.467533538811155 8.744265958813424
Pd 11.797037465765387 11.496747533156427 7.1842434551093834
Pd 14.490744435896262 9.112332894050676 10.065831757021735
Pd 14.261864733262627 11.30175519732 8.408444062278136
