5
Energy = -16.46820116 eV
Pd 9.515939493746574 10.834975669618808 9.374137855397857
Pd 7.924997586060448 8.688255280164823 9.271424199242972
Pd 10.54068129947219 8.400011515639283 9.312030460688527
Pd 9.280991672449971 9.245857034942777 11.445171658511214
Pd 9.363134423859483 9.389802864648733 7.194392368286641
