5
Energy = -13.58797465 eV
Pd 8.93955737448775 8.413954285042454 10.103766627967415
Pd 10.623730574825325 6.626763473752641 10.394856525190637
Pd 8.33875699869444 9.467432999638232 7.958898407593045
Pd 7.302418110372893 10.387636511421798 10.093823526802517
Pd 8.90424730452184 9.206964243279323 5.553961374625014
