52
Energy = -226.56533792 eV
Pd 9.580249622952481 11.60344938662062 5.659432703859402
Pd 6.988936960853066 7.587877502549074 5.523939472307226
Pd 9.381276289981544 8.869479559618913 5.160433992409616
Pd 11.786292895295118 10.14316920733026 4.914360956810399
Pd 11.720883726631286 7.65628343765917 6.159507946228747
Pd 7.1349587316710865 10.332444210698709 5.946721235344716
Pd 9.802275713323494 13.626828763504285 7.586382304778746
Pd 9.26167187174175 6.3919263496381875 6.474585263634097
Pd 8.292706581622916 8.602643841228055 7.663130331225187
Pd 12.04399593824347 12.137950717211126 6.841579478103167
Pd 5.647872493533418 8.71804423747501 7.682319016799268
Pd 11.532319941153133 5.189881873506291 7.458912680165516
Pd 13.36831907890546 9.713913307139432 7.1487077957603065
Pd 7.394792086001548 13.071962107899394 6.431208381919647
Pd 10.709645849671803 9.801609493495777 7.366329299661119
Pd 8.488503586884164 11.294991886570417 8.138013967198692
Pd 13.257951318063967 7.16280089630629 8.407246450598073
Pd 5.83833224740248 11.521344767890811 8.113193659791358
Pd 7.481124778300224 13.547707437344693 9.163431168224353
Pd 9.258465003219763 5.02481901997322 8.930265636710015
Pd 6.9197494907671455 6.248842395520951 7.983887287343231
Pd 10.606759570825293 7.371535083779825 8.68670665086016
Pd 13.559569911056844 11.718810653283924 9.156793474205271
Pd 10.90836089580084 11.776256489083066 9.26804102854449
Pd 6.852691284370096 9.757203284076716 9.814547727855283
Pd 12.195640710554141 14.109857117598363 8.801640939564166
Pd 9.609782457849152 9.531420172528733 9.752015540124331
Pd 12.358140952837557 9.374913109693416 9.57634854426814
Pd 5.61850034495578 7.434488402904601 10.212145946012708
Pd 8.262399839300492 7.333614008604757 10.072902905501316
Pd 11.79687990210545 5.5645770564249455 10.192423020484918
Pd 7.001247649926084 5.042513372791828 10.493533779701677
Pd 9.948914689915066 14.042423723154005 10.35339582606659
Pd 8.595187404314629 11.667609286402675 10.865013280709348
Pd 5.955406990413415 12.0171909288222 10.907104170486637
Pd 13.361616617753056 7.6125566170419745 11.244974678739101
Pd 10.70046430838146 7.845086007009128 11.455725764923512
Pd 9.428279634582404 5.498498066310923 11.677806627551595
Pd 12.297164120552436 12.909146787237106 11.332902557089952
Pd 13.612824570686431 10.44970969079046 11.678388601245327
Pd 10.96174123487923 10.576626502473491 11.710359104659306
Pd 7.685998029703359 13.94266152068116 11.903871693788695
Pd 5.867849056031451 9.465937158458948 12.239122490510095
Pd 8.522160546590959 9.17463875152514 12.121924988113728
Pd 7.135690911940631 6.96333937671371 12.519624690228754
Pd 11.865246365833487 6.008645977583061 12.867573649224342
Pd 9.967100066533567 12.848274111715952 12.89277740453617
Pd 7.454213155411605 11.517080101173109 13.253713689174127
Pd 12.141235022641805 8.8439196678258 13.429341982643821
Pd 12.238396305395177 11.604184453617984 13.802817229442866
Pd 9.829387373350249 10.331236820565243 14.142577941911288
Pd 7.397302218502349 9.044551650159576 14.44677139217342
