53
Energy = -230.89729958 eV
Pd 8.25327101479411 14.964914798778617 10.34833802935806
Pd 10.367474033406854 11.247491113677974 13.662327915081427
Pd 14.407139887926949 7.570355525434449 8.111286814533043
Pd 11.92788203274886 14.330602390155128 12.454621226091218
Pd 10.203834741899867 12.506092570118838 16.338731393276095
Pd 6.421527014444578 11.418462819793657 12.766188964694468
Pd 10.361494210728699 9.092959003215178 11.993450349094612
Pd 11.99719695324531 7.146448330524417 12.64605661603115
Pd 14.554787174304373 7.831640079205683 12.453765217888597
Pd 6.885959403680894 14.164390155976571 8.206999957722156
Pd 10.78052826591852 7.195441566031046 10.221667256868786
Pd 14.25525430694712 11.091948002539803 14.853079754799209
Pd 11.841092505349804 10.406162420061085 15.824968139881056
Pd 8.276047932284325 8.247850672396986 10.423293157293331
Pd 15.386147899992487 8.93467519097892 10.170681529064721
Pd 9.914862041756553 14.224610846961193 14.264558193463376
Pd 9.443481913307664 13.13330295512195 11.952314343698928
Pd 8.496851011631785 10.804653357064224 11.266068296453863
Pd 14.271014573793346 12.81783719316003 7.883189595382917
Pd 12.215661038415734 14.545710223266944 7.788140560962472
Pd 10.397814673297756 10.001514268017646 9.554929907217957
Pd 8.124305001931479 12.231211909062049 14.617526726813061
Pd 11.634880368280344 11.787125905323535 11.25071802407871
Pd 11.978518191872517 6.38996636466173 8.031292389701763
Pd 15.736286224816585 8.92137935686821 14.5830605427765
Pd 6.716953886840007 12.74574846419088 10.473777107552598
Pd 12.225616768950733 12.835033384072156 14.616834209150564
Pd 10.54623125805851 8.41667040710083 14.520844486488315
Pd 10.12918584488366 10.466616243931112 6.912703436852564
Pd 5.915205652665223 11.69854571847114 8.20821073394493
Pd 10.684702951631566 12.94825650105536 6.234559051891153
Pd 8.143318389705973 12.262449900032847 6.807517660210784
Pd 9.13453886350756 10.126698295811448 15.998195203307
Pd 13.195883953972308 8.27594326439956 14.849625739377883
Pd 12.767624982371123 9.209347392380879 10.444504026936412
Pd 9.645482885138358 7.976065671528906 7.94199065090716
Pd 12.717744579091383 11.220520634239325 6.270979214635383
Pd 13.385709498312048 6.6362321391809775 10.385385173242689
Pd 9.144979042484682 12.427388607774057 9.240343544058215
Pd 13.92692939874402 12.617462233371722 12.579935142459794
Pd 14.554821453798166 10.18528188486136 7.924421053857102
Pd 7.9105517630409885 10.014525328661206 8.41068932155512
Pd 12.698647312588761 10.027295183936992 13.003536952013949
Pd 12.20138026067862 9.006344201062653 7.757580879660586
Pd 10.866153393006195 14.400919677852057 10.068847796882086
Pd 15.338381163172631 10.38226326512581 12.420287029033755
Pd 11.798738191396295 12.069554243281546 8.616765337631808
Pd 7.206035762292468 14.013755095915734 12.813817820131815
Pd 13.425007328305853 13.905926754640081 10.247457498429693
Pd 8.196918803851444 9.503751062437743 13.578144989888516
Pd 14.290943327644262 11.417693406215498 10.220166648482733
Pd 6.092716634643534 10.000760024322048 10.401775798393066
Pd 9.475791133800456 14.67171089710267 7.853355492149335
