54
Energy = -234.64828171 eV
Pd 16.079556717089442 11.995369163855473 7.950481365387795
Pd 14.098198302200442 13.534269571219886 8.617023347376506
Pd 14.436561313359311 15.079061949163922 10.685944248996167
Pd 15.799492036725425 12.653277614372065 10.501270300189448
Pd 15.884660693052371 11.367415892210504 12.84478939599271
Pd 15.621374806009278 8.668928808495865 12.83402227598127
Pd 15.351946285201352 13.963783970793234 12.9781744870095
Pd 14.69675025355453 9.845811210151712 8.053505336571641
Pd 14.711991452153118 10.14135119458518 10.727788524495159
Pd 15.302988062998567 10.062339644296458 15.140268447899683
Pd 13.575958325573161 11.883358179488706 6.646102538095519
Pd 13.226279393073856 14.729632925779333 14.622065911691408
Pd 12.092323467084078 14.846784798749455 9.552820246863726
Pd 14.22613218503983 16.416489893798886 12.917327509334617
Pd 10.652816029114557 15.134789473210114 14.773099297336541
Pd 14.002044764073588 12.300790338830026 14.593561215865984
Pd 13.42554555121074 12.638184795008282 11.641005441928483
Pd 12.893969100297046 8.570001633791303 9.500463309635386
Pd 12.803730676833725 11.330337793311005 9.320819269491281
Pd 13.36402869275237 10.235651036385907 13.041873125267772
Pd 13.78898365378583 7.9261814225899005 14.654322175705193
Pd 13.174842042162158 7.823875438707943 11.977400290444871
Pd 12.294226663067246 9.582566421559148 6.938095202294529
Pd 12.08553147116694 14.936437695840453 12.257504207702217
Pd 12.078923742795384 14.133861055715508 6.970567478022793
Pd 12.602570860820553 10.283765298763296 15.652241189653537
Pd 9.892776997602793 15.738543580490207 10.624629242596484
Pd 11.42138346054377 12.114088178508446 13.312262004144289
Pd 9.806024647154949 14.06580151076776 8.43182737852404
Pd 11.274068043335108 10.131128684511587 11.291647004303963
Pd 9.603265770380428 14.122782775163442 12.645343297386448
Pd 11.633020563017665 12.837578567498477 15.82114028696979
Pd 10.947345793085217 11.815812023750917 7.568425543513285
Pd 11.973501198111451 6.156928158207402 10.118042755909642
Pd 11.373170498581564 8.640033110551316 13.937735229847602
Pd 10.870379808039319 12.723170436840357 10.611267951077902
Pd 7.960898999725734 15.371043415002834 14.55063323680396
Pd 11.417519407174735 7.224675908421222 7.731692423840125
Pd 10.373312805180852 9.500808344405472 8.781995186853703
Pd 10.011276791341917 10.628943320958314 15.06306752496948
Pd 7.5738554305235475 15.854126421097474 12.010450559652362
Pd 8.083451837715165 13.75481839354177 10.485801197717086
Pd 10.520971043340237 7.575108125155943 11.73964206983356
Pd 8.905461181368523 8.993534345563065 13.269246255012805
Pd 8.842654201912746 11.605144769256144 9.221188821136552
Pd 9.061748652752188 11.467865512272668 12.246009830562427
Pd 9.410303889146688 7.071104023198981 9.464821794007397
Pd 8.994418344040914 12.995853032893642 14.961075921497724
Pd 8.414036231488243 9.364513686177041 10.506638783631999
Pd 7.370047464746228 11.009878681044256 14.2310906613452
Pd 6.997394546861576 13.330314319543318 12.975300302412734
Pd 7.88263448073325 7.066414033606969 11.680020535543441
Pd 6.748201217666112 11.51620731390272 10.996250285777066
Pd 6.447695326579199 9.299864876758173 12.358452180180809
