51
Energy = -221.96154001 eV
Pd 15.820354897030168 11.720079692759766 10.416752578012186
Pd 14.098219063359542 13.089300870226092 8.736228051122792
Pd 13.17377854958685 12.163492600883476 6.394234654067747
Pd 16.41802819039575 9.178579311363892 9.526307828196055
Pd 14.817909173967609 10.660570195000627 7.980041018082829
Pd 15.879563046999932 9.139902408571265 12.101557257580541
Pd 11.545408810623552 13.847778493657904 7.7206352695312335
Pd 14.850618833898492 11.465009470745336 12.98714083262726
Pd 14.140178203162606 13.590339479424806 11.315130178724207
Pd 12.878656848262606 15.354486620484222 9.496858310893332
Pd 12.527486532822177 9.631641109551158 7.074237910241086
Pd 12.08530995834109 11.464801682650787 9.085090146703555
Pd 13.94089757571316 10.00212945023426 10.394545982002064
Pd 13.247785723811328 13.534338538671163 13.802274477733125
Pd 14.239320178533188 7.984638603686141 8.383543940833023
Pd 10.635853633833106 11.463851182698383 6.743044172902031
Pd 14.052436480584445 7.3864983693179465 11.002416383313426
Pd 13.331658259209036 9.162299243934534 12.89397175797702
Pd 11.276460443472704 13.536286043768456 10.514906725365798
Pd 12.66394621455826 11.033114831726056 14.597187681178392
Pd 11.910462958320728 8.683176990153392 9.433120694373994
Pd 12.386485629526867 15.460701545862584 12.12051539544325
Pd 11.812881578903616 13.116017645417607 16.035931652135023
Pd 9.911054618205718 15.37969302300912 9.292610647650584
Pd 10.956168229318562 15.072053424342513 14.335379408228656
Pd 10.671821905298966 12.618181266352154 13.471151166958975
Pd 9.738044143766585 15.076587337425611 11.976354110924289
Pd 12.05808348453326 6.140579169741907 9.689909716296908
Pd 12.438134789270066 11.6306237024553 11.813617219305222
Pd 7.613779900713422 13.885525353028566 10.644786141205868
Pd 11.551699152250816 7.209601332846105 12.05873591806779
Pd 9.995724154286743 8.703258387567589 7.319860763530772
Pd 9.195569202450068 13.46804516383705 15.636728751044501
Pd 11.070525330974174 8.859441700000483 14.216183626547533
Pd 10.76151065585233 9.705575829996597 11.617455752600915
Pd 9.18203817131224 12.915331282483654 8.595646734057546
Pd 9.724868871498916 10.347885391002814 9.242382576785584
Pd 10.22732994860131 10.96671743918642 15.78608025482172
Pd 9.304334005099555 12.006162516000794 11.223918867097721
Pd 8.11958999017217 13.515097709570854 13.284408023582568
Pd 8.119929331818991 10.8556592232044 7.051810421406021
Pd 9.592921629331657 7.58733849977284 10.144166698314697
Pd 9.055873009860743 10.561066192720116 13.406660423825722
Pd 8.60712559893752 8.879977273017435 15.422202235217215
Pd 8.989880592056254 7.7585445200325145 12.889515285559613
Pd 7.603542132451637 8.748916770384506 8.638123043369614
Pd 7.111226871197333 11.414854134495865 9.49745435393691
Pd 7.9155349516343785 9.469463781716 11.162428198059917
Pd 7.351909763994041 11.529962720973412 14.996914908868796
Pd 6.651787869366259 11.646371336089997 12.148410683849965
Pd 6.694692480010681 9.253008091808615 13.53291446410393
