5
Energy = -16.47115759 eV
Pd 7.793727775346731 5.308706391423598 6.125153227671802
Pd 6.363193127907733 6.592209496519976 7.994516973598314
Pd 7.947025740671203 7.914324864633602 6.328698069788372
Pd 5.734210024197745 6.802419385365824 5.466294668137861
Pd 8.957194253046683 6.392496182631289 8.212914664084042
