50
Energy = -216.58825079 eV
Pd 16.481540046091617 10.987180538155092 12.806867589574118
Pd 15.8467684272545 11.068428903144435 10.202433819845714
Pd 15.729211647132137 13.234503894737424 11.780547413845778
Pd 13.88867170290506 7.075685730690947 11.348404835233357
Pd 14.76556414531719 14.992885730299559 13.45132629651125
Pd 14.265207591104627 9.70507822793154 12.199129946149231
Pd 15.276955798505378 9.988568489186036 14.880199760282274
Pd 14.279755624724826 9.076729010930084 9.578810020865815
Pd 14.444068990661354 7.668094718966816 13.920997333364705
Pd 13.819999110818237 13.856334291960296 15.688121777778179
Pd 14.022668237451555 12.171599083632168 13.602992522970734
Pd 15.294352973739182 13.484363864376018 9.103615987183783
Pd 13.574692779994024 11.309115476620503 16.374405382920788
Pd 13.445799628792262 11.941693381503867 10.946601304619866
Pd 13.819206732591935 11.402617007346189 8.310069847220996
Pd 13.88632328680182 14.843776915350775 10.878971761987502
Pd 12.825612911284908 7.006196222340875 8.870812506035268
Pd 11.025005949511847 10.249335615752477 16.390218319255403
Pd 11.371794510639738 6.116161499378993 10.92397499431888
Pd 12.664097927429895 9.755717305545623 14.34907192080128
Pd 12.215719819643075 14.522936225823216 13.672899567005885
Pd 11.941664438570593 9.031989353714103 10.889388612683971
Pd 11.940357481032224 7.533005163734141 13.123692646169088
Pd 12.064687645927595 9.47690133460244 8.129018707648664
Pd 11.605346318550636 12.384863266621718 14.978782329014038
Pd 9.576453104455801 9.682858572629288 7.382371595110291
Pd 10.250473382529458 7.722268337189805 9.127155537278767
Pd 12.838059164485157 16.711267529395794 12.324503662414584
Pd 10.114085615063889 9.095365063085659 14.179525027778322
Pd 9.670494723032892 8.027466437730757 11.801054653765878
Pd 11.1018994336187 11.170578955576246 12.558913440204769
Pd 11.180876069387573 11.937741316872879 7.333295445666136
Pd 11.054771983328944 11.357452042900276 9.856639356858551
Pd 11.650601353651002 15.949975491815982 9.93026184401453
Pd 11.470566713422402 13.640131138783715 11.356087417274509
Pd 12.655330768579468 13.707717595921372 8.79375934717064
Pd 9.068100432136106 11.405444953121757 14.883249459113197
Pd 9.720398531121514 13.65603825271215 13.644149625588692
Pd 8.515506726463384 11.874801563098472 8.377689624064336
Pd 10.299671766041612 15.896756313444774 12.278994667214992
Pd 8.878979214207074 9.806045195750908 9.965299271696674
Pd 8.408575767171646 10.247421703974187 12.501653610080714
Pd 10.05685300710569 13.962671646548758 8.889033559378827
Pd 8.965577730918712 16.121277659994405 9.996787642726376
Pd 9.080335168788489 12.586790850569411 11.172932885133887
Pd 7.2775627930193165 12.539053382012556 13.241906811444625
Pd 7.878928052145181 14.871159879361267 12.061523896026653
Pd 6.827323774029082 11.405947115173424 10.576482987242251
Pd 7.419051825835921 13.960130220433081 9.54331596701515
Pd 5.622405059490361 13.580729384787862 11.4704218583389
