50
Energy = -216.96993543 eV
Pd 14.215742316897531 6.957559120010687 10.264588150581506
Pd 14.954328531065434 9.152709609040945 11.461969327151536
Pd 13.872264860779897 10.597276774257052 9.275191353816071
Pd 16.219309367053995 11.293018884975009 10.480549175111355
Pd 12.441831694078878 8.29538731539979 8.912999699940974
Pd 14.783332674145992 13.269428010878974 9.411357371434606
Pd 12.929065151923373 12.497473958091406 7.5572735139629375
Pd 12.335611963796767 9.959022876771511 6.948800943758097
Pd 15.718769071493213 13.503738332856832 11.927313073656936
Pd 12.88245050767538 15.06179700483278 8.640009175865542
Pd 10.49297013032046 11.772811809441194 6.506821461472428
Pd 16.112248336257174 10.919193428173953 13.16378807357227
Pd 10.640499836182206 13.71837775943384 8.245353321470043
Pd 12.983970865186889 7.353146019410406 12.621708729132344
Pd 14.00154705340408 9.366518831009028 13.979120659508638
Pd 11.632497108592249 6.343542310005335 10.496616228612417
Pd 12.312957349504442 9.497673224238252 11.245469779291318
Pd 10.469788131732654 16.327429763431525 8.461422329769864
Pd 13.846982859671277 11.694910882456357 11.997525096007658
Pd 13.580956700158275 14.91146915738644 11.222629468861307
Pd 9.879750168401932 8.258055655046313 9.754243895514204
Pd 10.934575018743763 10.791881212278065 9.115284214564728
Pd 12.309061308363916 12.73583797845383 10.189181796092585
Pd 9.252788404617814 9.61521948677819 7.492779411502465
Pd 13.824059040009466 14.362946895611845 13.859031158917837
Pd 16.268491698853254 13.301127097049479 14.44823256904731
Pd 11.738345716351933 10.847874012592126 13.484627708078936
Pd 11.453995266819083 8.507330491123717 14.602255607417723
Pd 10.900990789416843 15.170056206151092 10.753359364384584
Pd 8.477079185983289 14.7481657058685 9.429688169556615
Pd 10.343615948382476 7.664971634087224 12.348033705967792
Pd 12.631183356467467 10.342359337401792 16.16783609981661
Pd 9.730727427870812 12.621441764075454 10.6897913359637
Pd 11.647444548830105 13.363011743172038 12.65298172771508
Pd 11.997432470905611 16.1112484154241 13.006372253933456
Pd 14.115296653792587 11.906295705089729 14.726619761553088
Pd 8.442580756457371 12.234545235766511 8.192397526118214
Pd 8.028068701711714 10.231589765377628 9.831077387090515
Pd 7.83493898153675 8.232231419178198 11.594804879627674
Pd 9.887293721682148 10.26344310099865 11.722724895082814
Pd 8.853441303254401 9.112108790171122 13.922237150050856
Pd 10.11805280063424 14.830860906431571 14.292444085545862
Pd 8.618777125847963 14.527382793243826 12.134815095019931
Pd 10.07252414217827 10.687134378551963 15.669959839511456
Pd 11.73203742839537 12.919742592850882 15.34043358782727
Pd 7.117583915032719 12.724996434850244 10.552346679487412
Pd 9.28977420562327 12.303244686844716 13.482584561176498
Pd 7.346850237670391 10.824922836607303 12.399028295879422
Pd 7.528952874429097 11.112588818424692 15.085490313605932
Pd 9.100116107468526 13.13995001605005 16.038586846263183
