5
Energy = -16.31869882 eV
Pd 7.900819685737587 8.075492026950243 9.809756708299913
Pd 6.3852429260082255 8.49669601559179 7.814148847298091
Pd 8.03242424303371 7.763339293552191 6.008190576936339
Pd 9.231138230795747 9.062892454398293 7.858954015821741
Pd 8.446085052409744 6.305462062830451 8.064917961328048
