53
Energy = -230.41585122 eV
Pd 14.857734195403781 10.949209327887553 10.310515459503502
Pd 15.04163258870816 10.105346670193356 7.808034158576525
Pd 15.61515861476659 9.077911207254706 12.353139760454868
Pd 14.90821161683274 8.34997627270598 9.789223082833136
Pd 14.568724644593999 13.593183414117144 10.917730449398324
Pd 12.673503130755257 9.445722784375981 6.794514014654913
Pd 13.66570901765045 7.642167888836003 13.676308619345372
Pd 14.863430326843174 11.665265840036497 12.782990740016327
Pd 14.452578131064298 9.937575100079803 14.77875171588587
Pd 15.393595755773902 14.24365673582916 13.399730339939703
Pd 12.463732566844627 9.680213418525435 9.458895944387395
Pd 15.549784648192615 12.797317598412045 8.524227798595584
Pd 13.065583701893395 7.115658141354317 11.1341056327166
Pd 14.270929692508634 12.624036101232342 15.21081185890982
Pd 12.24142285765587 12.084473636338956 10.652205216008914
Pd 11.85734523371014 8.818755398058142 15.347858982590033
Pd 13.103244041356856 9.652352407841136 12.015747186965847
Pd 12.795766044754203 7.243530098944339 8.472584380218764
Pd 13.104834023625093 11.89111541097307 8.00079582980457
Pd 12.842871885890874 13.40582635263421 12.954821602697638
Pd 10.477157255323762 8.268092256198504 7.657469701006749
Pd 11.1190113705565 7.788064426578194 12.9015880257903
Pd 12.15096256697679 11.01207997453559 13.976831099821064
Pd 12.881157625832367 11.025685862794383 16.719303140346312
Pd 13.497230130085013 14.44231437875442 8.693766627116712
Pd 13.466602940457358 15.162451119378012 14.995199807566385
Pd 10.576086625402892 10.249331156889697 11.60537096632408
Pd 10.343893321959666 11.070956653933301 16.101489469594586
Pd 11.292457322130126 15.412930152850564 13.525970154544597
Pd 11.55031540455051 13.324767527056313 15.423623914431637
Pd 9.577512984181016 9.58764899502533 14.08376203783912
Pd 10.660788121476967 7.7709739844799435 10.233743887242014
Pd 11.752838220084488 14.722548425143469 10.885465265162079
Pd 8.633961715131393 8.20104205870551 11.886221304995155
Pd 10.224494250564865 12.520730438114112 13.091176921402138
Pd 10.630625502653794 10.946206318021867 7.921317539917948
Pd 11.02597128881997 13.472176432511453 8.40673622798021
Pd 11.560450001013692 16.162562237117296 8.693719975476336
Pd 9.474597321681324 12.650788739023467 10.611138241440074
Pd 8.24547018012439 7.784458402533039 9.058673849562673
Pd 8.796335579235922 10.231021599581236 9.661204638391759
Pd 9.274496613170854 15.03738758433936 11.92803326480694
Pd 8.21187749992743 11.825637766802195 14.790682103245455
Pd 9.0895540792907 14.370445675022072 14.591011051107124
Pd 7.981999324354348 10.722856850078804 12.348578288940809
Pd 8.447795968729553 9.771632528745979 7.010482593229189
Pd 9.256018385268915 15.169621652692657 9.277924870077946
Pd 6.495253026615119 9.285895676119047 10.582270907255596
Pd 8.405039444749216 12.578488169033914 8.200670919353726
Pd 7.406223112242466 13.27264826797185 12.676359548102221
Pd 6.710688052661973 12.006969711216342 10.422734159221188
Pd 7.055388921238902 14.550037645803583 10.361921415442534
Pd 6.359877412213524 10.603973928055417 8.260124343963065
