51
Energy = -221.32482332 eV
Pd 8.745362514956156 10.651723060637547 5.217721336935103
Pd 11.412697122820399 10.646593334524372 5.694137559094051
Pd 10.411362541205435 8.162732964008994 6.135388821971699
Pd 7.410807236791305 12.13086676768976 7.142611849102594
Pd 14.4382275511317 10.818305860883966 8.001417807825037
Pd 12.902867051277152 8.80704287648953 6.873412777346679
Pd 10.020500844050055 12.716908092089957 6.58950132607132
Pd 12.077355574481711 6.2422945075433995 7.704986720762279
Pd 6.981023155211403 9.353707200126376 6.89687881739339
Pd 12.744800924971083 12.666110110708022 6.901106491373235
Pd 7.4090282087927575 10.54896549635023 9.329171668185234
Pd 9.451427250665153 10.070603407934678 7.639568804892673
Pd 9.317333875806815 6.115422248754754 7.331465141334316
Pd 8.589464061370627 14.540166000484842 8.110222657469189
Pd 11.866173961069626 10.799153670452073 8.50053910023023
Pd 11.037187016472581 8.228615139237027 8.874899926492288
Pd 6.921742110061252 13.218924066495415 9.835995957399353
Pd 6.420506936285814 6.8056300360646915 7.638510887790792
Pd 13.693220764588386 13.125901224867803 9.407228999489934
Pd 9.389360425324305 12.290218154484787 9.153947064785841
Pd 5.431934658586357 8.909155184552146 9.098591333072156
Pd 8.363956162233153 7.852134058679291 9.049025150820663
Pd 5.119437528781392 11.528417801358344 8.575579419343203
Pd 10.282322806893717 5.620722879804417 9.789001988752517
Pd 11.242271308213173 14.047986653325516 8.661115036445588
Pd 13.852667776286069 8.464017036445112 9.28602884010846
Pd 10.026628235397128 7.794931737397249 11.356200652166397
Pd 5.9552227053574205 6.632278534570664 10.394635972581138
Pd 12.539938621895425 6.691323044707624 10.800949579273889
Pd 7.731129192521995 5.053835283324846 9.191054562652706
Pd 11.988477847545635 14.659509354788245 11.165312503034343
Pd 11.582315897578754 12.092682398591386 10.759479383329921
Pd 14.206522497356767 10.818071172368024 10.681592137285614
Pd 7.446476899503984 8.748059564688727 11.321481945645361
Pd 4.8136364014694335 8.74028033261985 11.718138597547545
Pd 8.213963156714147 5.95874635400966 11.649102620401768
Pd 9.343119995978048 14.242832623790559 10.8635718813119
Pd 9.696364376931182 10.09328961122819 10.357948149033996
Pd 5.799062583814989 11.161673130849838 11.297356617285057
Pd 12.053692260522018 9.435497204961981 11.052238595810714
Pd 14.245441580380534 8.467437083823475 12.065803351062046
Pd 13.677380783815673 12.93642007217685 12.23048718323984
Pd 10.735551273465939 5.590310233409482 12.560906196459042
Pd 6.407180874643116 7.211371963316985 13.202833975355706
Pd 10.657057740261333 12.801341318205981 12.99687902605207
Pd 12.686817456407239 10.686850906726805 13.22140657624054
Pd 7.350864764320887 9.98371298815119 13.52401579656558
Pd 9.016904047564536 7.684286689212539 13.748219060534987
Pd 8.343391072480538 11.90061063103319 11.873466496679306
Pd 10.028650019010081 10.147812042675952 13.064376006990512
Pd 11.829073566597843 8.012421109239861 13.372390868833453
