53
Energy = -231.25029315 eV
Pd 11.979618211069205 15.555500349831453 9.46487893712379
Pd 10.128763472660228 12.393920978533242 6.546625525666436
Pd 10.582186617406396 10.023764127892752 14.084018029994162
Pd 8.858465676944043 6.347960779603383 9.22425914190547
Pd 7.950562272465502 12.495243995145696 10.851829339339996
Pd 12.91673870995215 8.696405176265003 14.322442174909181
Pd 12.501355674301221 11.043746330752933 15.595086786095086
Pd 10.923055065856328 6.872215446187223 10.693825195812614
Pd 9.872826995047202 11.651133742256466 16.066455954278123
Pd 9.209872389866447 14.099259678962445 15.206653257595665
Pd 10.999878824842185 12.668452265685042 13.846103992651178
Pd 14.326603809660291 13.637573424536283 11.287215862965482
Pd 8.414348255085777 11.65857503325759 13.558103706513284
Pd 6.909139002008752 8.08531178342199 10.080886932952627
Pd 14.773861650207321 11.069476369595387 8.321026635499317
Pd 13.061148502726576 6.858391122904279 9.263247177710225
Pd 9.103227280620743 14.732947871447736 9.99864354292423
Pd 11.434485211553643 9.220106462409746 9.222764351068763
Pd 13.088267630588096 15.967554265629854 11.955685762689642
Pd 13.653309931988117 13.524174824918848 8.75851845983174
Pd 8.018795943669309 10.77250735327879 6.6160998596364715
Pd 10.738537972411521 7.425070395196073 13.323597456372553
Pd 8.52819168413927 6.693858663022177 11.85813707835519
Pd 10.92687398175718 7.205252488694094 7.679182332865665
Pd 13.282891976529509 7.176759492271601 12.009801299804472
Pd 12.709243697517978 11.462536468461968 10.300727621915236
Pd 8.393193676395825 8.874364643422632 13.368791104616147
Pd 9.237303126386738 9.114651499418319 10.859993418740034
Pd 9.606088208579813 11.015580899519048 8.920897508262076
Pd 13.486040099956455 14.034456258313954 13.792037264665568
Pd 15.519256989539308 12.296570358491808 13.369292690169681
Pd 10.28190875386486 11.462696277271789 11.547429033255055
Pd 15.430802951598558 11.314270631623357 10.873577118850514
Pd 14.12133004914617 9.112846857324817 10.04659698436892
Pd 11.855825403009659 9.329343912065044 11.78668423103897
Pd 13.077838806494121 11.390316578408378 12.938716999206774
Pd 10.56968879141409 9.702794369518537 6.554525974381821
Pd 10.965731087186013 13.154634752882098 9.107022116311601
Pd 14.98462936003208 10.259823874154103 15.057626188465084
Pd 10.449147041411624 16.35371791407736 11.573430616976044
Pd 12.324740782033006 11.454907806475545 7.599241620131119
Pd 11.836247413642967 13.7476761819192 16.060289705471483
Pd 11.635913630154775 13.797378317604664 11.563815238051504
Pd 14.7916087510788 9.408588995804452 12.562858423792466
Pd 6.968238984555125 10.654218592562623 9.088454281294315
Pd 8.63073990978171 8.65637913708012 8.094949504489515
Pd 10.014585467382354 14.925065833280861 7.498760160303911
Pd 6.95933677793633 10.236207258429756 11.69987645153595
Pd 11.213638030193655 15.409299030388356 13.948424840036765
Pd 9.079774102301105 14.198812577649171 12.549108886741086
Pd 8.030338458704817 13.0584863401996 8.185031894922348
Pd 14.448293223248564 12.784821531890477 15.853385848363397
Pd 13.23082618418169 8.888289194154877 7.372180341830265
