52
Energy = -226.61688079 eV
Pd 13.622403900166484 14.95058071439069 14.659332572983162
Pd 15.061396330713606 14.173700448277444 12.588799938872166
Pd 11.557711753183368 16.624849384983758 14.319407585379201
Pd 12.273273812423291 15.764321465403016 16.751874260051846
Pd 11.909531276706945 16.052096113390917 9.616088851720102
Pd 10.8519656014234 17.30606385019 11.794588336115606
Pd 15.557440858987912 11.508738287290887 12.246276731572149
Pd 16.419487641178335 13.285304552588327 10.456447416858357
Pd 12.764153922173723 15.52344773630732 12.165307544776363
Pd 14.161064269668739 14.668377958592144 10.060547362404213
Pd 14.163037244782824 12.35863888422857 14.351979476627529
Pd 14.393027975433824 12.082908307058764 9.254074257748519
Pd 16.60137257975543 10.628228779310156 9.957719807431086
Pd 11.675973030439845 13.373366174958509 13.650220077579853
Pd 15.866499973668592 8.84114262561307 11.770694454914613
Pd 13.106227350884833 12.56128779763673 11.612370783274471
Pd 12.330159669532755 13.566767423134706 8.48582404920371
Pd 10.204454475391914 14.987406029760137 7.788372177376934
Pd 10.30256821723597 14.503294974105032 15.617148905062287
Pd 12.511019030963821 13.126355982295848 16.38740903330696
Pd 9.77244328640665 15.20136040862509 12.958268186980034
Pd 9.222036760787335 15.75702508107339 10.270705599974479
Pd 14.752419918100603 9.781495846949287 14.06933799061334
Pd 14.70235915521664 9.485528789954815 8.559310759970298
Pd 10.997966825755007 13.918958224686484 10.851881001581527
Pd 13.629089586846737 10.04183615341051 10.964697436007937
Pd 8.072679985644559 13.675206514078976 11.684391537882897
Pd 13.154433254463205 7.9942454724243674 15.257949233278888
Pd 12.18884686830176 10.486672732149767 13.419943488407053
Pd 8.9759564997725 13.242704018666277 9.258777905461525
Pd 12.989343310085388 10.587670727678983 15.998398599150926
Pd 14.175699442773615 7.4236941678516954 10.18209497208375
Pd 12.726969322031321 10.989165283502604 7.49768905817632
Pd 11.421288338872706 11.342159295210307 9.790664067181048
Pd 10.504929319926768 11.578874715433985 15.313584647240013
Pd 10.989224447092582 9.323235669846879 11.420155719322942
Pd 8.729216391363552 13.082203433253037 14.178183570058223
Pd 10.041259455363184 11.771667122580107 12.09712104419837
Pd 10.367199867776105 12.281859482437564 7.177500657522542
Pd 13.49470730081032 7.932991457710218 12.650884258372917
Pd 11.084522789429197 7.642795183689802 13.637052260399935
Pd 6.9970009299648845 11.742699655638862 10.217014635895488
Pd 12.202551768720928 8.696852025390417 8.976915323979492
Pd 9.327427788682186 9.725431156027563 13.714743039862185
Pd 7.299492274168597 11.339884510253867 12.898099141121124
Pd 10.79704591019323 9.025079973638821 15.857167240989618
Pd 9.019060133627374 10.658275174391465 8.852007566016216
Pd 11.59685954406834 6.819105193810227 11.019259658044346
Pd 10.52015449795379 9.509902775558494 7.118632199449929
Pd 9.64310550909645 8.109445528788436 9.438429957932925
Pd 8.2699050826966 9.671614324662253 11.176206862049266
Pd 9.075449967162909 7.339996286254554 12.007204320236449
