54
Energy = -234.59446709 eV
Pd 17.428132006936664 12.302291525903081 12.90938063786976
Pd 16.261193956600273 14.733194713266444 12.840609691239885
Pd 14.924510539191871 16.45438527329218 14.178188842770249
Pd 17.26678588912258 13.608580682334054 10.578607179670472
Pd 15.086976194691765 12.76775266456258 14.384477684597472
Pd 13.619938862566762 12.261470466468035 16.637115081282868
Pd 13.540242004113113 14.699621069373652 15.466457144195918
Pd 16.694866307085718 10.968226556957882 10.54846418057112
Pd 15.649938878244706 10.355320962250143 13.055119783248907
Pd 15.03550714647869 14.993419607839167 10.50977300312853
Pd 14.929530014955336 12.548681360620487 11.768816772572976
Pd 13.69596591309038 10.34996581646822 14.807380774282036
Pd 13.379509994554345 14.602485552829869 12.688558394823016
Pd 12.585363901763174 17.103339091710815 13.339083167896982
Pd 11.35432475014109 13.634599784446733 16.630051710034007
Pd 15.65651861607854 8.592171761700136 11.015383894751732
Pd 13.047482168948205 16.538408133153467 10.791992802464382
Pd 15.146408551226994 12.734495666096391 9.056739742098205
Pd 12.313277987733509 12.586636740893008 14.13856721377145
Pd 13.86484195352919 8.429543041124454 12.960303422456665
Pd 11.120442389133277 15.025839408337976 14.23367022576626
Pd 11.268594994620923 10.921922076010956 16.00554834651518
Pd 14.068572938160855 10.374838226668627 9.839261744800842
Pd 12.881720587165637 10.847147165774858 12.169491277428428
Pd 13.121545214613665 14.744932370100589 8.622535716367214
Pd 14.532545673722002 6.222560331655182 11.629342823270152
Pd 10.75959944882503 17.683824770709144 11.524428064788745
Pd 13.140894155589445 7.9178005564792135 10.190811800572236
Pd 10.031809325389728 17.43794366963371 14.116506936601427
Pd 12.686504025557877 13.069159852938114 10.56746233047069
Pd 9.237944770536705 15.658149003753508 12.322971752962196
Pd 8.546578900635485 15.241784711541937 14.89521113330051
Pd 9.58613987000406 12.792451018103485 14.922018251187007
Pd 11.14914262315082 8.71610529118975 11.630263669336683
Pd 10.572010452941054 13.226807940017052 12.158278424082031
Pd 12.091105323780742 6.51187139945362 12.633242017473387
Pd 12.887909800751707 11.96102709966007 8.043250987424353
Pd 10.387112103605817 10.801104664651263 13.27804274765205
Pd 10.873816304787116 15.281826390307456 10.285621156538765
Pd 11.683484344697877 8.710783003986089 14.40767047137512
Pd 10.807338728368425 11.173509332428262 10.422028045983323
Pd 7.782698398194016 11.07946491268827 14.107028491271365
Pd 9.255768052002495 9.242894264259721 15.321857743455864
Pd 7.920832936295187 13.474445258807686 12.954214699470418
Pd 9.812597181312423 6.956563131241707 13.882976130722051
Pd 11.715366920173379 9.538115021319 8.667142929175252
Pd 8.673298318438423 13.7838974498224 10.33360101398553
Pd 10.699086425738301 13.317040838575682 8.632491494103045
Pd 8.246923877692922 11.325708898896712 11.444725703837225
Pd 10.634324319332231 11.339928327281061 6.876940277004138
Pd 9.05876213344634 9.112717420345595 10.077616894112447
Pd 8.630568416355956 8.914206187298786 12.642119497228459
Pd 8.71471342734826 11.524971805780526 8.78571407372708
Pd 9.303610156095793 9.205130319176522 7.514005510621209
