52
Energy = -225.19095892 eV
Pd 15.164701063857892 13.440764799551623 12.781035739428923
Pd 14.066269548662046 15.355917320212047 14.350008689130181
Pd 15.688505309413308 10.921649526689773 12.277099830078763
Pd 14.220742487121775 12.799424387195762 15.216400853817154
Pd 14.402529146156944 16.008179701414466 11.744510827948833
Pd 15.42430232698838 14.001487205884406 10.221589427458753
Pd 15.002852096097701 10.295672084048059 14.869706579283253
Pd 11.842113519731916 16.021726968032716 12.91363258951499
Pd 12.55886749341535 13.463240202358657 13.32348965519238
Pd 13.524440959431749 12.137337504280199 10.939487461756178
Pd 11.416148216876138 13.411232552885265 15.703228866208214
Pd 14.002703070881374 15.918100405347591 8.97025464770886
Pd 15.650865997294526 11.416402403348112 9.552477549538738
Pd 12.018852651492953 17.05177750756436 10.38861145185373
Pd 14.897617999718952 8.409463585016649 12.976440052866531
Pd 13.633713175732234 13.323545960738032 8.363460476839082
Pd 12.457664689787192 10.91504876460673 15.901409143656098
Pd 12.567571082747232 14.4802525008452 10.767914196406327
Pd 9.828662975173861 14.437352673260385 13.6612396058866
Pd 12.791282122066876 8.597233319678912 14.607792565767424
Pd 11.177058179085417 12.476146737300644 9.273313082356957
Pd 14.234870385699324 9.356832469914703 10.617062722826464
Pd 13.087614861997361 10.741747656565344 13.131070331578444
Pd 11.256033638633953 15.097314322998496 8.545201021400493
Pd 13.189641702837447 10.681299910693065 8.531552892328879
Pd 10.649102420599844 12.810069275657597 11.73400119975863
Pd 11.71579978892859 10.25182771878672 10.965613245901713
Pd 11.770742717326344 12.186319064426456 6.7549665622914015
Pd 10.689552432696464 11.527218794357358 13.96990210562301
Pd 10.823714913555264 7.003097198997909 15.009749981975611
Pd 12.471033440407751 7.716168025552454 11.948119647275893
Pd 8.684135206864934 12.546921891570308 15.226979598824498
Pd 9.99248451918252 15.362966822059096 11.036652771636101
Pd 12.352055216074346 8.179408934758792 9.091252969847755
Pd 11.780580987331097 9.38739191043201 6.632749398324721
Pd 10.4568106482145 9.065296418039814 13.03370197140022
Pd 10.102366140593505 9.566685192728 15.643197667958036
Pd 9.398250562490087 13.385182513190943 7.545712342896158
Pd 8.027800595984685 12.767763207289068 12.615394391265367
Pd 10.284388329332426 10.111260458099743 8.656795151484438
Pd 8.599782037448007 13.351780199903194 10.112106432990297
Pd 9.179535229969185 10.688248995196648 11.077071056494228
Pd 8.342727817937659 7.825037519824687 14.504366725165497
Pd 8.129769913855707 10.356946838730412 13.681165882831634
Pd 10.15025007168278 7.995429480299745 10.501338177787686
Pd 9.783551503035882 6.494446179297597 12.627321715346506
Pd 9.443192782133309 10.97177017897677 6.3519018125674105
Pd 9.939424306485598 7.6579803532712125 7.8601972627118375
Pd 7.897340111324967 11.365129287463674 8.624397246995601
Pd 7.865473506291061 8.331539865263222 11.941004817648524
Pd 6.658252046563138 10.694258911454204 11.126085063715008
Pd 7.8551906380655065 8.849351079852251 9.344316771345545
