53
Energy = -230.61423409 eV
Pd 16.989842972658685 11.42528599133138 9.04592269983236
Pd 17.360574146257182 13.647898645596992 10.325017492887566
Pd 16.979393716326413 11.434893608072775 11.872210590954642
Pd 16.13342415194465 9.270559693165694 10.285419941273776
Pd 15.454975442409292 11.826985401442322 14.32608009342502
Pd 15.946923889148659 13.860708653403144 12.559505584102963
Pd 15.177842497111115 13.265069987402654 8.293909414652319
Pd 14.834679973027344 10.000761523173665 12.369409562252525
Pd 14.736473543746289 12.333806808491552 10.737540733603334
Pd 14.535682100033657 10.635913523608712 8.628357323515615
Pd 15.309293675541682 15.234101981698402 10.17869799324087
Pd 13.508284116760462 7.793338623231877 13.014755045077894
Pd 11.679249803452032 7.212951004284327 8.943566392962062
Pd 13.349460735444758 10.021359169313966 14.564632569901228
Pd 13.495542475218983 8.708659696453502 10.280933045643257
Pd 13.254914904111113 12.248978638100272 12.959703329854582
Pd 14.200500839003132 14.313316773121134 14.503001045598804
Pd 13.198664961566209 12.272826414248899 15.973979368565592
Pd 12.290615653560517 9.60992560666769 7.832237161675522
Pd 11.340619015198675 7.396166199782161 11.578541388065338
Pd 13.487735792422937 14.735588392319988 11.954148709427974
Pd 12.960403270425902 14.229905562973068 9.428353524995774
Pd 11.092168206429315 8.504606047111361 14.075326322558425
Pd 12.60293638925396 12.306938838472718 7.498213575845498
Pd 12.102865790336727 10.043710873135712 12.093742606816914
Pd 12.288119180181138 11.584119529313744 9.982945680530285
Pd 12.253487380396043 14.932356709012543 16.23610348291742
Pd 11.014188591226237 10.648757706105672 15.710536287629397
Pd 9.080308917742723 7.387022886895868 9.959968230403419
Pd 9.833615489326014 8.523470933347774 7.519243685042548
Pd 11.308799510519446 13.243725051795593 14.37411479663926
Pd 10.635451048509 9.551088153250761 9.993759911578511
Pd 11.863492815900132 15.704875155579744 13.704237230142482
Pd 10.711121473542441 12.937674325217593 17.06343453200387
Pd 10.1719751885774 11.210869282974093 13.232493050779114
Pd 9.207432284768496 8.910836993850387 12.239233527019147
Pd 10.53467018354929 13.537034890712611 8.861581889344917
Pd 11.135892517408102 13.303214084369486 11.666835482645444
Pd 11.293104094978409 15.858216770809541 10.935079401873333
Pd 8.676850117365666 9.518120065741394 14.778283065720373
Pd 10.094956449218284 11.184245254248795 7.878300293129883
Pd 6.9325533033292785 8.70619030760071 11.148035769436687
Pd 8.099775962338677 9.841222115655555 9.036394384788508
Pd 8.729330528135963 12.130268013996876 15.381450045799243
Pd 9.167873573955642 11.674992769924634 10.83917815798888
Pd 9.527346322018111 14.784480248018461 15.376372149797817
Pd 8.700103303667609 13.474726114502658 13.101259770608861
Pd 9.395441779686179 15.980913313879734 12.867209163354104
Pd 7.404083847095123 11.002037005466704 12.82859634845492
Pd 8.9401429089012 14.631918415158216 10.606302944172205
Pd 7.954598889648659 12.706263738514071 8.816496425929051
Pd 6.222511181057545 11.070983369132476 10.277610624494164
Pd 6.8034552090168425 13.320791128738636 11.310057998815353
