5
Energy = -15.35804774 eV
Pd 8.569688627303213 8.187739300738109 11.861032621785192
Pd 10.438780649720016 10.87202392705752 8.105417347618289
Pd 8.042896919464807 9.931423923113917 8.502286620759332
Pd 9.984708511343504 8.273565724507478 8.117889417279137
Pd 9.867144077160203 9.639345350153702 10.311045189719518
