5
Energy = -16.43360928 eV
Pd 7.079354341365016 8.027771036436217 8.10248221722354
Pd 10.660392393015162 9.796566479952878 9.576799968494633
Pd 8.085111301806636 10.140049593083898 9.261397133953169
Pd 9.569271850281167 8.597553807662818 7.5125259603175225
Pd 8.997579698292222 7.788748365516627 9.902705649163952
