54
Energy = -234.68230868 eV
Pd 14.0393447430784 14.299141163739202 6.983218893529337
Pd 11.437368428940035 14.33228244338376 6.458153456702462
Pd 12.32694961058949 15.529391390120065 8.745200153194471
Pd 14.618117438134254 14.290535649002472 9.604904189959043
Pd 12.694556168472364 11.91787932832396 6.34681213209745
Pd 13.266415363627793 16.067122799774427 11.209758318470175
Pd 15.06836106304398 12.071085924261077 8.109433002255123
Pd 10.044099132589425 14.053022102579055 8.72089377064227
Pd 10.669656281730399 15.474999690408376 10.863506462284233
Pd 12.452083576337467 12.834737908144675 8.751652360967551
Pd 9.90451125224988 12.162547596307911 6.777705480578385
Pd 14.83099098372916 14.128775841326338 12.214929470504881
Pd 12.382541041383375 13.48650962124732 11.25018330651904
Pd 14.064829635159699 11.5031791221144 10.550027071063727
Pd 16.39454319474626 12.52149013659122 10.69577909493172
Pd 13.1790033967307 10.155560564325537 8.380452979081104
Pd 12.308646953144661 14.985774108302778 13.498753255101743
Pd 8.063720796174193 14.464157961284442 10.634881382223563
Pd 9.483780828489017 14.76866152644017 13.061858608173386
Pd 11.083723248207965 9.684326919359117 6.686244799550044
Pd 8.109726639254514 12.256691364118046 8.87458201520303
Pd 9.843687312050678 12.662986380129698 11.075436764474631
Pd 14.479694034143021 14.051178073251345 14.795624164021486
Pd 8.563688683617958 9.960561370586834 7.682355118021943
Pd 10.6670906696566 11.002732644352164 9.0187879655974
Pd 16.146224527238843 12.160111815392133 13.456008034869846
Pd 11.729995914066304 10.75014493743662 11.490022435467523
Pd 12.078517530266415 13.318324615969017 15.71340059804911
Pd 14.147408842781322 11.628604515388556 15.82539704816709
Pd 8.172049387249022 12.431715401111727 13.243855836083386
Pd 11.014269301687456 12.650624475456937 13.42134337840312
Pd 11.334541519313403 8.39090073515848 9.076652667687592
Pd 8.955006873063416 10.210996498990884 10.787212615153924
Pd 13.55827720183428 11.901721141577562 13.266144414258815
Pd 13.422322168034064 8.75185480116469 10.682702757318145
Pd 15.508582050392615 9.986903311876437 12.013040340393257
Pd 13.30027532983756 9.2314805750906 13.323096223653215
Pd 9.602270989373672 12.143934399928817 15.577700706884396
Pd 11.867671227057002 10.593221931665774 15.116094759806215
Pd 8.803486056718263 7.834956284507745 9.09070322490714
Pd 6.712707489157372 9.48288742914551 9.80850008761378
Pd 10.663669701850758 8.415777402796015 11.655760673514944
Pd 6.777272924222554 12.031062555247898 11.075552588474698
Pd 9.749830519540149 10.268970052319853 13.429384315652543
Pd 10.457221980850413 6.157980270982082 10.39852910772816
Pd 15.518671097297212 9.785067043475358 14.638864023780782
Pd 12.488576582052017 6.7801957040169665 12.388406666579703
Pd 9.666289524524542 9.4613763111521 16.143091824661475
Pd 8.109232421586864 7.590446340386684 11.568853604958388
Pd 7.4769337135634055 10.566973165095437 15.083174631032707
Pd 7.0141645031269455 9.860986876934176 12.557470823436429
Pd 11.132465595654544 8.0974792221927 14.364419044833733
Pd 9.855630278300316 6.1508042009934645 13.047663154430518
Pd 8.335725264344923 8.128381867899424 14.191523731928168
