5
Energy = -16.48604653 eV
Pd 7.565567948080096 8.644095894119566 9.299681875389572
Pd 7.967048997647501 8.809914613255371 6.696779924157987
Pd 5.984594522886062 7.381390990310145 7.648861464611468
Pd 8.436360575311049 6.5228210187309195 7.986791610618972
Pd 10.00219295607518 8.597542437409254 8.323650032872743
