5
Energy = -16.39189194 eV
Pd 9.303456762320996 8.344050162495362 7.185787459800301
Pd 9.763533517092226 8.543649266251897 9.77079419310986
Pd 7.96302224931051 6.877305879989408 8.859844566335603
Pd 7.6192986979908035 9.60425871704715 8.711810147437673
Pd 6.720495749552492 8.00054572340131 6.84348823858476
