54
Energy = -234.56208717 eV
Pd 15.727704024891777 15.850350495624278 13.073070260055829
Pd 13.95694417681706 14.679708707646085 14.798864566178194
Pd 15.522519360587356 13.228908563044579 13.106378502881139
Pd 13.422600418368559 17.055684608897813 13.425457090214435
Pd 14.340368411686804 11.681736967408028 14.87173908053145
Pd 15.848193527613208 10.578942664482318 12.952437272743243
Pd 12.833733082684306 12.985173789347417 16.639369706040352
Pd 12.24573699778671 10.37536756387973 15.994307335174677
Pd 15.639704139981987 14.638356876115608 10.742039946601604
Pd 13.901771506253237 9.152830092818832 14.256933183254192
Pd 15.391202086629036 8.021287348209233 12.39152442607924
Pd 14.531778420662649 17.018468677836488 10.95265172563452
Pd 11.270943328423709 15.520847376351382 13.55565234818286
Pd 15.968990439431991 12.042889565528506 10.700227359257013
Pd 13.300668612656638 14.4878030145726 12.023583981963778
Pd 10.652206872247769 14.441881650391162 15.902436004485711
Pd 12.073551060647294 13.022528269420587 14.12906159895247
Pd 13.504014318548874 11.702447563176387 12.169639545794661
Pd 13.494813514764207 6.543950789114963 13.744015832716933
Pd 11.503541911951205 8.019990244489566 14.70300969313003
Pd 11.938181913431533 16.606384613342676 11.2216561129484
Pd 14.550160908195968 9.782417838406708 10.537533131633738
Pd 13.367940978965356 15.11145370402615 9.312284887748277
Pd 10.05849588158251 11.894638920182292 15.454488515790494
Pd 15.40359788986403 13.51393420010125 8.41554732155235
Pd 11.571942731253607 10.522569684712725 13.476451007628441
Pd 13.536351636249535 12.082324339343733 9.550938434236858
Pd 10.97174812188281 12.781831895074754 11.773010749605621
Pd 9.327031375739463 9.471806435989658 14.891808373241066
Pd 9.238556611956495 13.758118094019695 13.707873658690005
Pd 8.99110306018229 11.156020124885512 12.74774193183823
Pd 12.798125539860193 8.270110416301584 11.842014723711532
Pd 9.761014032976165 15.108000799131297 11.362214946311846
Pd 12.71471959813348 8.917953812181528 8.816762775129092
Pd 11.205402899189663 13.411910624159855 9.301085396400012
Pd 10.159156839316648 8.688618393843862 12.377088159700973
Pd 10.791430717486785 15.969982369715488 8.964165888990486
Pd 11.595004478104968 10.406130085503651 10.677078871856313
Pd 9.081164221962862 6.887374304936225 14.181073506486268
Pd 11.154080495815531 6.17118852552444 12.517978979270758
Pd 7.521221932604246 8.806846191526969 12.845065199004997
Pd 12.95966669980181 13.459608801282931 7.214948742659151
Pd 11.707737628685747 11.242143340470177 7.8784198188909125
Pd 7.852174074224959 13.240755516914557 11.499039077034322
Pd 6.840240052283599 10.793745345404105 11.075553119761818
Pd 9.234207874560376 11.53612211980503 9.948423161472004
Pd 10.832284372420837 7.463387044263332 10.102906727965104
Pd 8.694399614177685 14.120543080750208 9.087936875318627
Pd 10.108697231418388 9.297237488709461 8.28251414368637
Pd 8.542670668925911 8.936518518220819 10.367291827380365
Pd 8.68533034841292 6.531498348386073 11.52882202253819
Pd 10.454866947655761 14.329168474972917 6.878402091591067
Pd 9.2160199652789 12.069900235469454 7.353355024907949
Pd 7.5738566994628105 10.175960687345027 8.280349855336405
