52
Energy = -225.6351716 eV
Pd 18.001276901297263 11.75287432200785 13.892990641425376
Pd 15.854686034585288 13.30031761852833 14.003053419238752
Pd 15.787256026206933 10.765543206605697 14.94652875181259
Pd 17.052074224423826 12.449070223833218 11.514181099890415
Pd 16.70084896489995 9.967466332165236 12.424574611863564
Pd 13.577666187116234 14.667208485632232 13.964469181911568
Pd 13.583800310863142 9.743572480122744 15.954282143376705
Pd 13.476163606793722 12.176710243743972 14.822517921575166
Pd 15.103307556676285 14.23564060016867 11.618976656077239
Pd 14.621528839149553 11.546772811826967 12.39237674353878
Pd 14.37228670256234 9.016543612461351 13.46626808978833
Pd 11.25259289847805 15.89647630602942 13.849483141703509
Pd 11.025707757948402 13.252244361870622 14.242979800522201
Pd 15.022481705587102 12.178645263946562 9.7792221991354
Pd 11.270480387112977 8.712530304880344 16.927711383477707
Pd 11.223897713143723 10.95564281867506 15.58050151627281
Pd 13.018173982416416 15.936755500543676 11.665005263865334
Pd 14.655977548924842 9.310301973482666 10.808110806363372
Pd 11.978208165151639 8.239559290830934 14.4346607693356
Pd 12.579357333756244 13.113195301722648 12.051389530283695
Pd 12.054963921201411 10.519547203564498 13.05371826043027
Pd 14.443017459874891 10.049496596706158 8.251841148488333
Pd 13.365591710713371 14.248681402770526 9.625756696259659
Pd 12.648504441422391 7.835684289045722 11.875463288466586
Pd 10.796834852284563 17.47550574208373 11.668762229850541
Pd 12.654980987372987 11.056196358406778 10.401302288477352
Pd 13.01092655222215 12.206421804569155 7.858623276247335
Pd 10.149561153758059 7.302153550175761 12.809320642590787
Pd 10.967313703364974 13.017715158061282 9.538777331579249
Pd 12.512788484655225 8.509822038811741 9.135330884549937
Pd 10.520025314445716 14.645445482647963 11.673234925831482
Pd 9.436623241304055 8.929989198347178 15.02162826331213
Pd 11.375029202624255 16.01986151235059 9.51481133797322
Pd 10.891227106010621 6.606005462968535 10.274500899518019
Pd 8.753799211839686 16.397565846303372 13.027099419621333
Pd 10.717411918768594 9.32483816382659 10.92686276313842
Pd 10.09069325964455 11.869663448614654 11.81959398269437
Pd 9.00130899534421 11.541056385647313 14.33759323616528
Pd 12.089614901323007 14.70357126666371 7.342101179534035
Pd 8.704143521624422 9.490861847575244 12.570099671424664
Pd 8.778116792095377 16.15891908842715 10.35357034733414
Pd 8.472971462631715 13.819010356587807 13.168509376144048
Pd 10.60853449373913 12.669249682384915 6.660082935860463
Pd 9.44749215914963 14.680822168406264 8.18705720141314
Pd 10.88596359587654 10.577327708571536 8.346686149846105
Pd 8.428635518841892 7.61882709347771 10.72281774064655
Pd 8.290250922698439 13.504433593790457 10.50641072130545
Pd 8.599145658681726 12.1353271163644 8.28721342481888
Pd 9.74674416752142 8.259508298601636 8.515983703110622
Pd 6.964375776763612 9.981274536005056 14.402751019552685
Pd 7.27865791435519 11.645700335184255 12.11233593654978
Pd 8.447792819593284 10.26019883359544 9.999149357503061
