5
Energy = -16.51344776 eV
Pd 10.673399588999121 9.075434614939457 11.157311828819592
Pd 10.450884397202891 11.632448017957298 11.761097443416855
Pd 9.94699758393333 8.784113270610902 8.627402121567131
Pd 11.304506605860395 10.89007413878786 9.401109696352762
Pd 8.712257993235456 10.484358763827014 10.163881382004307
