50
Energy = -217.2923245 eV
Pd 10.154803418730706 11.467888771724185 5.164118540802392
Pd 9.31297244185811 9.070288731621458 6.049292827591413
Pd 12.020049737145785 9.666801365936267 6.120975770405382
Pd 7.879117150923163 11.3832154272841 6.612471742345446
Pd 8.440829109879909 6.700596428795231 7.031745087719056
Pd 11.133731486996902 7.316773273165097 7.192616144940913
Pd 13.81698523060894 7.942038528512169 7.385928842621225
Pd 12.187686211303717 12.406225490782349 6.671389764106574
Pd 7.006120842713989 8.969114028291571 7.571869235673222
Pd 9.638553079448789 13.47020432414239 6.976868022008065
Pd 10.35002638814159 10.93717742603229 7.815948187990657
Pd 5.6275988449308345 11.285068560529995 8.137101034635558
Pd 14.042916458987028 10.645684812787717 7.709175476352907
Pd 9.39201613840663 8.591513552875146 8.794264228074203
Pd 7.36189695041166 13.378811105362688 8.522957240003436
Pd 12.172845143768722 9.255297209465903 8.928974519286479
Pd 9.827574164203492 5.945376632428499 9.227406591230462
Pd 12.532589340056992 6.481526485292689 9.389841000086815
Pd 7.282675365822377 7.041762128800055 9.504441303387939
Pd 14.180814882268947 13.304752024254222 8.107535388620544
Pd 8.062924786171491 10.92408003174534 9.3129935575371
Pd 11.744829081719718 14.37337943988911 8.55290908430047
Pd 9.225734448056837 15.351891697288407 8.895711337734399
Pd 12.516945106100732 11.957342982956291 9.612911717719461
Pd 14.404515164107544 8.393376814484139 10.019196970679893
Pd 5.927708949951057 9.384316226001816 10.087028267584069
Pd 10.467443286444826 10.483570293383433 10.420190381682
Pd 9.885770365133983 12.896070394971208 9.6860696047254
Pd 6.173964656422349 12.08472603111435 10.725152464255826
Pd 7.954959222076744 14.157597053744981 11.107422366459716
Pd 8.57590323979512 11.709277086504974 11.929012667052318
Pd 10.882596331005862 7.92784656650893 10.95269366211352
Pd 8.36828773087826 9.014827270152342 11.230583273300804
Pd 10.56503716358703 14.793584017063308 11.298051620126131
Pd 11.437202507195593 12.371747340133833 12.099732097726335
Pd 14.910873251000723 8.888040327579125 12.616343034958263
Pd 13.091190747260105 7.091846651774101 12.07134762440201
Pd 11.1787897073422 5.279650438076886 11.471385449266716
Pd 8.712538535685516 6.35811755100668 11.735844616349473
Pd 12.826320260456868 10.069568387222953 11.554400013414268
Pd 6.249530771029604 7.475997386333946 12.014556431871835
Pd 10.39622194328583 9.773888227618182 12.902578904251415
Pd 9.478017274731972 13.511067557125875 13.513309588629218
Pd 6.483115757151461 10.154238312313515 12.69972959266645
Pd 10.695821376421392 7.045222774440646 13.523252583756179
Pd 11.097247015675416 11.538699059045992 14.642119386336981
Pd 8.215213305915787 8.222879136742613 13.783681157799947
Pd 12.633950341041372 8.960516897817463 14.049796422523121
Pd 8.485552546179967 10.896594302363493 14.451664681028152
Pd 10.290758253821119 8.950688948768327 15.426176004120025
