52
Energy = -225.3151274 eV
Pd 16.868249005991306 14.016412438048809 12.159613104978048
Pd 13.749068112740382 7.419341295559628 14.969846517328302
Pd 15.524964667912252 14.130390910485952 14.60398386672047
Pd 14.65220720810655 9.661263173034177 13.971321527692764
Pd 14.077340476229244 11.944254973803588 15.419409289615203
Pd 15.587422039171136 11.90863627350445 13.072859999117057
Pd 13.95454655613334 7.6380391585989855 12.218812882585247
Pd 11.166481056734407 7.4763577288602185 15.669775922348913
Pd 12.552513442884644 9.784198965406661 15.800697301900435
Pd 11.188016848641183 12.065148057309337 15.214338898877552
Pd 15.824242373361354 16.296163557782062 12.900482781416555
Pd 14.454126854183162 10.158914497452617 11.320446224566203
Pd 12.710412037749263 14.127158879770848 14.879929557919173
Pd 13.366548333921173 8.378556065355877 9.586264138793709
Pd 15.43086330388011 12.587302647102485 10.456154467330103
Pd 13.954794712944185 14.042073050877622 12.497171782882445
Pd 15.010550886640916 15.31121446669598 10.472201853244242
Pd 12.018734633790777 9.01130209837408 13.36426565851126
Pd 11.94753349265353 6.128870064518322 13.491689726377457
Pd 14.066397573872358 16.3963676187517 14.897981379779079
Pd 12.835696995154358 11.60799181163185 13.066966782567892
Pd 9.826899209242985 9.683972266859376 15.22919553608158
Pd 12.722760929747837 12.574575498007086 10.603705697432794
Pd 13.968829051709815 13.744653767087328 8.473100554481428
Pd 10.569760022380573 7.999843452766911 8.952568003267977
Pd 11.391996021531495 7.3986015385963615 11.302341743096695
Pd 13.25425323959607 16.538350396928827 12.311340663072938
Pd 11.729980551090918 10.11718604458625 10.6389491793139
Pd 9.660266706197309 7.712761748559702 13.386774564958598
Pd 14.0236084161313 11.00115925962249 8.864537273082664
Pd 12.9238733181777 12.111241761073382 6.679848658173795
Pd 10.30553743316437 10.958596996127264 12.920892225969729
Pd 10.075765860106095 12.225766992879914 10.644970707280258
Pd 11.842454531460568 9.96079216162563 7.856512259217523
Pd 11.261120946230905 13.321385701407928 8.379586890465433
Pd 8.499600549598448 11.945034824117938 15.182724559545301
Pd 11.190092469619582 13.809401769799223 12.497072307944798
Pd 12.332964770190177 15.184175761588982 10.127150223961625
Pd 9.70351431999445 14.281728204202038 14.572362797169236
Pd 9.272511067061933 9.114962752744596 11.159266473630913
Pd 9.387724724264718 10.37526572453371 8.816175848014069
Pd 11.496605466243023 16.38293389555758 14.387462386972143
Pd 11.846407759857689 10.194300482411645 5.280444642097143
Pd 10.653992863517109 16.33074783341532 11.860303120476363
Pd 7.611820941386786 11.16147003841839 10.667823506440698
Pd 7.8753108793065 10.04634926069877 13.253189233973504
Pd 10.140052841411489 11.680863476199168 6.600399555708697
Pd 8.570947679121577 12.852348205084473 8.468250120679706
Pd 8.294665562150277 12.714233304244237 12.700231366452156
Pd 9.689586847258608 14.75724998389321 9.982873827983497
Pd 8.273695341134028 15.142146425923416 12.146504497539656
Pd 8.992399289941035 16.836675012529156 13.97049087352966
