53
Energy = -231.20754506 eV
Pd 11.895579689036467 9.278083380159442 7.244322772242494
Pd 9.840984500593931 8.945978544422296 5.511143096034038
Pd 11.266700004480859 11.267741497721602 5.471322807632312
Pd 8.355543097341894 11.166758123679825 6.1828219798707424
Pd 7.2053554488447356 8.654748693730767 6.253323226797679
Pd 9.774140446784218 13.538649581367892 6.117906059253525
Pd 11.088739701851566 7.264042078142023 8.85256384229241
Pd 13.792906292186501 11.077563124912624 6.5223855562082695
Pd 12.380495744474251 13.363810564622545 7.061038357887139
Pd 6.616187837457491 10.399604403441767 8.259845695126751
Pd 7.8870415914844765 13.071966722596041 8.048147587844266
Pd 10.929591040833788 9.870861050105407 9.739122899264444
Pd 9.132518533279676 9.270144190840323 7.99260804249694
Pd 10.42732036091953 11.692849902553975 7.881655840076422
Pd 13.353896821828213 8.603745321107088 9.455245374229014
Pd 6.995504946405852 7.658379848713381 8.795050370033925
Pd 10.320861577577716 14.279671108947905 8.695798322208997
Pd 9.016535523547113 6.768521934848111 7.221225415215929
Pd 14.874669024878024 13.029531182632429 8.180101434363262
Pd 9.036783373018961 8.22843442108623 10.492865962896923
Pd 12.89896964996729 11.368200424496438 8.93942532570666
Pd 6.238945852432015 12.320161436655786 10.082749378522346
Pd 11.48910068249377 5.602655494546077 10.905273941938038
Pd 15.306872942743624 10.38057115557249 8.878163414162733
Pd 8.63129007946969 11.259523818328638 9.836220729472949
Pd 12.887695567123092 13.997893437884507 9.726810026964916
Pd 5.080084929627613 9.029334035320627 10.027274204748915
Pd 14.736161833637869 12.227018388566336 10.826062605575661
Pd 8.929239034881437 5.736545938936682 9.79956662107167
Pd 7.502634607765608 12.13110804858651 12.536150775002286
Pd 15.066896338901438 9.440708916659693 11.458136742435272
Pd 10.918658670203708 12.37364103460348 10.629075673943682
Pd 13.82083446736604 6.997858290096744 11.568555252936997
Pd 7.119561955494171 9.766902564430175 11.347522154788033
Pd 4.894997887841581 11.042068405904104 11.9837933643408
Pd 12.728521024179809 10.53287724176547 11.509872646110152
Pd 8.480739618001135 13.82068389077642 10.692234952081892
Pd 10.896076966482388 14.936470258734916 11.318853498760397
Pd 11.481323741717386 8.149712798278916 11.611336074694291
Pd 5.244832120874974 8.416324177051115 12.71938180602129
Pd 12.70861630914523 13.218946650278397 12.452723985865223
Pd 6.949079854942348 6.8670967913660625 11.374141720023506
Pd 9.787675331428142 10.316850022575375 12.11899303768005
Pd 14.399056525432917 11.327589872515423 13.412793919179599
Pd 9.457705758175434 6.458798314799105 12.524278253600121
Pd 13.263014071901152 8.823157675899214 13.5870615217372
Pd 6.362171891776736 10.41251752505531 14.167015889652877
Pd 12.01716359712885 6.370484355957087 13.534452656034784
Pd 9.983657324986565 12.993350370728912 13.04212770890576
Pd 7.962805236260092 8.43360921398211 13.474757843319892
Pd 11.699559806304679 11.073781136182161 13.964038926551696
Pd 10.54102509059627 8.579578212416177 14.131490942381287
Pd 9.012322367656006 10.851541119180828 14.529816457576922
