55
Energy = -241.8050585 eV
Pd 13.61798304552412 13.940212853568141 13.484759683957375
Pd 9.224893316609743 9.89444309874777 12.56789111339113
Pd 13.396265010892838 9.817276075178004 15.906663051607621
Pd 9.134690470120335 13.950571969036233 14.8221409086325
Pd 13.730873677448148 12.561890328100302 11.157095380514356
Pd 13.506218427021597 12.578305669594469 15.886849473131727
Pd 13.551714233699892 16.63349893547239 13.487710430483775
Pd 13.795198088193239 15.449532702990078 11.037541538287662
Pd 15.641704402760292 16.545018385704868 15.096456579954818
Pd 13.623110259192785 11.205742193038358 13.503603878205904
Pd 13.79844585621001 9.674163330377166 11.072271986807525
Pd 11.208636757127058 14.004601269265878 16.550423849334923
Pd 9.14383905249621 11.193180176456082 14.837425381701621
Pd 15.94843162058714 13.950250006847332 10.522277745537801
Pd 9.040319029142214 12.577046145500624 17.068682254211417
Pd 13.560658451344345 8.504416910087192 13.530680502963765
Pd 15.949704719099927 11.171514169982759 10.53586027789952
Pd 15.858348409943568 11.254647457691322 15.163522108144589
Pd 11.355307147315065 12.577374949235763 14.159509036134502
Pd 9.23175688378342 13.858078786572756 10.178997637187639
Pd 15.655853805408006 8.602960490912015 15.122621652131786
Pd 11.279250587299074 15.46741412780167 14.264305607867199
Pd 9.233905282227564 11.217389622970547 10.194226521596107
Pd 13.380484271519887 15.336170923856681 15.874067186530688
Pd 11.291992820236072 9.68421579860266 14.297289183927518
Pd 11.569734635841714 12.535327532951804 9.420713514896258
Pd 15.848647576317148 13.895905636720952 15.156423923432211
Pd 16.090869654755743 12.570405542801847 12.857527531300894
Pd 16.01612931252566 12.549134129312497 8.270916165198695
Pd 9.411012045508743 12.526891891537717 7.802114067450601
Pd 15.864819496347407 15.23636294205609 12.791198590071303
Pd 11.671232426007158 15.349277330072715 9.437098777613645
Pd 9.507119735198437 15.159580497225367 7.862050182425719
Pd 15.871523558111548 9.902742354318637 12.813553678536378
Pd 9.421883983499777 16.50311263618931 10.229786736551922
Pd 9.51847250224769 9.898365284397826 7.888532907952913
Pd 11.47466426987732 13.924631944126281 11.816732381379781
Pd 11.679798223805971 9.733910617460948 9.465541387235998
Pd 11.71458369845096 13.913677463372608 7.116636820822122
Pd 11.529504712721206 16.626482859712908 11.832776249354417
Pd 9.43492483757711 8.571268102402476 10.275362097355869
Pd 11.722976753310741 11.138684454852886 7.121423444145903
Pd 11.476815738049059 11.190932485017294 11.834064968281064
Pd 13.85870389701557 14.024671692964086 8.786197648470289
Pd 13.886315745784254 12.535200232566115 6.5549101519898025
Pd 11.539116952544552 8.489519906792909 11.879177452959079
Pd 13.862554196655152 11.071138376480228 8.801964273556909
Pd 15.621173188616234 12.58183312243981 17.53865081372235
Pd 9.006349390307486 12.55370510734756 12.48319800159962
Pd 11.225362301747412 11.166955047098185 16.568014370194184
Pd 15.519329838088993 15.204575301750015 17.45843301339657
Pd 9.217724717893097 15.213360219377098 12.535835024976313
Pd 13.274441666480426 13.904011017366132 18.204284627146397
Pd 15.54415462703238 9.95792972866344 17.47398434130639
Pd 13.288599014678107 11.24861448723396 18.22814820873302
