55
Energy = -241.72395908 eV
Pd 15.00184768375432 15.339738446254252 14.885996385477805
Pd 10.57374166835522 11.254923658023877 13.974591358241666
Pd 14.844777739154305 11.146869222669418 17.26815427506594
Pd 10.526430492413052 15.354278357997908 16.276049869129455
Pd 15.095180205989697 13.942706610836458 12.517784424526873
Pd 14.944428434699466 13.949167528942095 17.23526680819445
Pd 14.954427282068993 18.075866886827672 14.87832568940869
Pd 15.118491798880346 16.75559438187278 12.4794087969878
Pd 17.082664118906592 17.947403917542765 16.463434085513086
Pd 15.008388679823211 12.559416755743927 14.890617669142426
Pd 15.145784274524607 11.12782839250494 12.482476449123334
Pd 12.659129692199272 15.390044262343542 17.936328162422186
Pd 10.529667752462572 12.532527665234056 16.27232033844837
Pd 17.334568051886766 15.343854680796067 11.854468110525852
Pd 10.537632806403847 13.93380192160179 18.50814721255603
Pd 14.977658407526706 9.83116560926979 14.88977562273429
Pd 17.3470115390606 12.545562088297999 11.853429586778681
Pd 17.288375608731627 12.620834728572312 16.501378936253193
Pd 12.746919272966569 13.943237206931567 15.579877534289896
Pd 10.57328868716325 15.282587249592321 11.612267579715835
Pd 17.10377205086801 9.945910349563563 16.477099610859863
Pd 12.711729509903387 16.79876595728671 15.617245316529573
Pd 10.581574731116545 12.603388861119344 11.614627294798005
Pd 14.827265562078425 16.747573209310186 17.259425460444756
Pd 12.726888086478473 11.090535881855132 15.62926877800604
Pd 12.911658309889685 13.945959087494188 10.850915046873324
Pd 17.27909477884941 15.284502850514949 16.49963367521306
Pd 17.34698547526824 13.948229975351861 14.19420971859564
Pd 17.367539531928966 13.947207175575583 9.589503176317125
Pd 10.687704758733682 13.939434302955823 9.257548173950187
Pd 17.29256191100149 16.638177046094626 14.14778416135275
Pd 12.981151322659295 16.760052978663197 10.848858770629123
Pd 10.82022040444693 16.567609346759344 9.28829622215779
Pd 17.305806861378315 11.26646410650835 14.16218284706905
Pd 10.72673491630624 17.95689764759091 11.654972693413292
Pd 10.829475330556694 11.310184153451095 9.298508670571973
Pd 12.834198788752278 15.327693090047246 13.221060732691646
Pd 13.000781648013126 11.1338050347664 10.85885378269542
Pd 13.013622903188853 15.327873081654953 8.528750719534939
Pd 12.878314827485053 18.0701505919571 13.233190704625304
Pd 10.763844340749722 9.93299205330885 11.672206166912433
Pd 13.01490112498994 12.554367877555116 8.531038934972473
Pd 12.843888263267107 12.559557548574542 13.224191286895154
Pd 15.19698471584472 15.42771957527249 10.16484678275375
Pd 15.181187511708142 13.938973913912 7.952179247338289
Pd 12.908388301727882 9.81455217288284 13.246509849094524
Pd 15.204733058117432 12.459820435745492 10.169348960068358
Pd 17.122011596213508 13.953389177043773 18.851624563363874
Pd 10.504033128412141 13.944563581371492 13.919233366370072
Pd 12.668582127441022 12.498972863789747 17.944535742947085
Pd 16.986113092373746 16.576553378891873 18.822971511792453
Pd 10.554004326916687 16.630029039300545 13.96322084464987
Pd 14.755756759380622 15.262187526819808 19.560223317306836
Pd 17.008487723307557 11.330090648441775 18.823147109038437
Pd 14.766662796463363 12.62548067950167 19.559762638419198
