54
Energy = -234.78314898 eV
Pd 16.434589098028503 12.31082697255395 14.970823197634747
Pd 17.23739052205281 12.971110490631125 12.441560589594646
Pd 16.111753417794706 10.545005304806299 13.03606410431039
Pd 15.710121558879761 14.7059487988545 14.013184309473699
Pd 14.853760447257537 10.246090047263019 15.590601385492542
Pd 13.857344605151491 12.753390023084302 15.303341033084518
Pd 15.662098737716768 8.571118432954522 11.228341010428581
Pd 15.402345761890514 8.199035591106538 13.909212204830876
Pd 16.476587774098476 11.307449098310219 10.406597354120638
Pd 14.620292901949552 12.74413035345685 12.672362487913269
Pd 15.64907341600979 13.923290626812975 10.477000480755429
Pd 13.176713174044634 15.205464890103348 14.757579340122302
Pd 13.025165603009572 8.31200156649772 15.179269971077822
Pd 14.022114580994675 10.637766276615105 11.046356592804294
Pd 13.214253794460689 10.689350780134204 13.627275948154404
Pd 12.04637531890536 10.746235352516102 15.962671975683692
Pd 13.847907509464594 15.280963564820835 12.160479429572248
Pd 15.223810202985733 9.566300202009668 8.757729564931186
Pd 11.998232927350807 13.332197252148298 13.037582247163385
Pd 14.606134393459046 12.201215981584948 8.566240024792354
Pd 13.166195610697875 8.300273101267404 12.527878011240237
Pd 11.376234242457075 13.484089977516827 15.801879480874447
Pd 13.135811550800165 13.143943508138115 10.466640152384903
Pd 13.266395986070725 8.115706571451975 9.914737986509172
Pd 11.205753166699182 16.02399603161816 13.233027628527905
Pd 11.516888289053204 11.032903069355104 11.685481801588232
Pd 10.85406935652116 9.071505930291625 13.776441638242385
Pd 10.923136377995354 8.178759506971055 11.181565503427825
Pd 11.561405414864925 15.18111501117352 10.812096589403989
Pd 12.578084903718835 10.376053396408636 8.779440052907242
Pd 9.512290266485955 14.246038347209469 14.06069533457479
Pd 8.553512906568523 8.172058418303896 12.464312804377204
Pd 10.266302911626617 11.658590935003396 14.259049239366757
Pd 8.950517781770197 10.690453858284299 12.153368628732231
Pd 12.470164009447544 12.324485638902685 7.001174290330123
Pd 8.403077258249311 9.708186241410449 14.702793815894001
Pd 12.085607849130904 14.631132426684385 8.277698849618671
Pd 10.944767332881462 8.237779576793674 8.385403945146063
Pd 10.958350926586677 12.469641203657071 9.34881950484078
Pd 9.850990037278276 10.164451139472018 9.827016580029973
Pd 8.60427174335106 7.800447822210332 9.822466216747864
Pd 9.548326231799937 13.21967927098012 11.549086568697989
Pd 9.108271945910964 15.893812989389264 11.547499706907978
Pd 10.340715214831118 10.72179992393385 7.203592827139784
Pd 7.195403559141835 14.541949679568509 12.828619894284913
Pd 6.4520680577693685 10.03507378118615 12.838116657014599
Pd 7.112602520194592 9.950000805673275 10.277555144907154
Pd 7.6891010106266044 12.245813537257753 14.037090682301013
Pd 9.945879584352458 13.339675295338786 6.958896935879821
Pd 9.537186266000326 14.773498481730998 9.107657590802116
Pd 6.815678680273485 12.300629256192417 11.440287200947145
Pd 8.068123741385145 9.606624221699429 7.837787684870662
Pd 7.2097303280562715 14.498932734081759 10.165895137731185
Pd 8.263370967037536 12.198922612659064 8.992106599767514
