52
Energy = -226.22442536 eV
Pd 10.48180455501622 16.56753291383939 11.103065217476859
Pd 9.43475366398288 14.414647896171923 9.640251884937602
Pd 11.96429839014477 14.912524324229162 9.543376887728908
Pd 10.976279958878395 13.025430537041093 7.68642982754945
Pd 6.92282189456852 13.48923489865128 10.392648324834884
Pd 5.706750077193588 14.731332584006422 12.390930098909253
Pd 8.173247220144981 15.449032110079363 11.747049794241887
Pd 9.901129214235402 15.738025798905296 13.778407675507026
Pd 8.601513192613533 12.120485105815662 8.888297844937776
Pd 12.961693525137777 15.838865176984086 11.84962161175746
Pd 13.62674902878847 13.222611813734018 8.579184598142696
Pd 10.795717000269379 14.05101907274654 11.949694402702582
Pd 6.151888075250097 12.148038988730004 12.808777515665247
Pd 12.81115116549095 10.849851211559766 7.913215365425607
Pd 11.417705425531167 12.16562436585733 10.092570582603251
Pd 8.745657779135653 12.417120466054676 12.000701143345976
Pd 14.575911163903111 15.419805052042712 9.691602479272266
Pd 6.917301438819231 10.79755663824606 10.696179584007886
Pd 10.348931665702885 10.359401162485938 8.00801136650483
Pd 12.328232253253306 14.691131363134843 14.153464015866989
Pd 7.7601659280592195 14.040461865839193 13.933841258247154
Pd 10.166188448795424 13.108038583365378 14.479757474380376
Pd 7.797566830080467 9.598854021125382 8.435513629108113
Pd 13.272549025620503 13.078998198600155 12.088494613233186
Pd 9.569728151986645 10.253980067764417 10.559142857178392
Pd 15.847001031880415 13.03362493025322 10.080848398784138
Pd 13.941830442626898 11.169321013302813 10.404771328694247
Pd 7.77741658369953 8.255369757636327 10.790905074659912
Pd 11.168055835971186 11.303551542482047 12.582550592510856
Pd 8.071449578112393 11.425957574773768 14.537336155988138
Pd 15.466211228426314 11.295178045833206 8.059459304830048
Pd 9.895657408560767 7.956565313218615 8.91988586871257
Pd 14.792839183090319 13.732631563385363 14.463053567031185
Pd 12.042059840267505 9.41346201195542 10.662281182963902
Pd 9.005801963965792 9.500834092561691 13.016367799549373
Pd 14.384685593764832 8.935321847132021 8.752537813985752
Pd 12.668167775746733 12.11511984545916 14.793611189697103
Pd 15.375954730655044 14.715865266698046 12.092208328982315
Pd 15.794570646213758 12.03985909161405 12.546807657351142
Pd 10.526845001836321 10.469389218952458 15.118922236978303
Pd 13.660413782202587 10.335134705099632 12.97011376486978
Pd 10.202791471917601 7.613888127731408 11.519276141120883
Pd 16.34561948305649 10.232435648920452 10.550395421465767
Pd 12.422715550466162 7.220700284432972 9.313037264669477
Pd 15.224522583057702 11.216217896437685 15.052930878802048
Pd 11.601300687617869 8.656565459602492 13.494707679385698
Pd 14.49064352060949 8.389001144885375 11.277990914787871
Pd 13.026804540399592 9.572147706493332 15.597410745924774
Pd 16.201931595811523 9.428208714821457 13.147309173698362
Pd 12.592578316858644 6.68178585529577 11.926249325984958
Pd 14.099002387730565 7.695138165497194 13.83514808296256
Pd 15.587514746206304 8.741843615770945 15.695832248302683
