50
Energy = -216.18796831 eV
Pd 14.517112603959914 9.839610153640566 15.675538813586131
Pd 14.965671640780107 8.054853195157103 13.625586285534975
Pd 12.190651006281783 9.41442822663616 17.023675132788973
Pd 13.369248967798093 11.80194730038577 17.151271914350186
Pd 12.511098820853658 8.475601429439838 14.515591893437694
Pd 14.750497505098004 12.429856222699398 14.979248444845659
Pd 14.406874381114257 8.902718775070849 11.086045225345833
Pd 10.835127755248477 7.7038431671932255 10.522087473317525
Pd 12.27268122081751 11.088761402087927 14.60482206697377
Pd 14.336418820849879 14.887459184114459 14.037362330466692
Pd 9.468415028339326 10.399643428214013 13.05333958446394
Pd 15.485944582862441 10.57067447283417 6.329811985966106
Pd 10.684439896571439 11.70832221091167 16.731509876717876
Pd 14.580840559590381 10.605610268240666 13.067955492161982
Pd 10.174230493702472 9.414668368850602 15.332386469805568
Pd 14.772706588478245 11.554025704793471 10.570849616430067
Pd 12.398664127683977 13.662649706422172 15.469113149450632
Pd 15.643468497603527 13.060117056884947 12.623108790745672
Pd 15.96809352356414 12.247707834680714 8.241281072614129
Pd 16.197427900508618 13.917373189246286 10.238591502097023
Pd 9.283443028101841 14.95153042521486 12.97962655811749
Pd 8.282670783923477 11.26492742962155 15.379312702301272
Pd 10.351952023045737 7.880626693271076 13.108860505264333
Pd 12.808367751234677 7.225550361437369 12.19359932839693
Pd 11.852662346792304 15.058266314961234 13.23578884275316
Pd 10.443052406272997 17.323505877985326 13.14704626278718
Pd 6.866461009806381 10.253709799860857 13.15621785307564
Pd 9.61882050583904 16.431095415158403 10.802091551050935
Pd 12.886883381993137 12.695557365748828 12.54907732501408
Pd 13.978683132102718 14.936080834393014 11.400356669221928
Pd 8.336143638457052 8.656813863484098 11.455548075104819
Pd 11.985253331798502 9.98805016296123 12.034676600941548
Pd 10.185311699926553 12.847296615155546 14.38461046163447
Pd 12.304817244581612 15.94661148005428 8.661493789767222
Pd 11.363517425900218 14.402258906195572 10.522940339515767
Pd 10.24839744543402 12.49393950254166 11.786294453818769
Pd 7.795748631343023 12.778559410446428 13.149459635204401
Pd 12.208682502633923 16.906549890136386 11.188988238776334
Pd 15.234488528254115 9.63577170733821 8.735735405961139
Pd 13.916142568656445 13.872237689038327 8.992863438444157
Pd 7.803918095636553 11.347953437292755 10.872609581860921
Pd 12.177198705536961 11.901446505368053 10.008927224642177
Pd 8.17579202412778 14.091910883116084 10.72584449627758
Pd 10.063540134642254 10.13748286732742 10.090105745770732
Pd 12.57111257636409 9.312355726578772 9.25984918056451
Pd 9.67005328765171 15.128346937817625 8.532461308983812
Pd 9.522557466317826 12.531417741754511 9.128173613977658
Pd 13.472349133109141 11.422265316397201 7.720915190957682
Pd 11.652797600156314 13.455087696926755 7.719781205529201
Pd 10.938920661995056 10.820323938765288 7.6667797535833815
