52
Energy = -226.12660794 eV
Pd 15.454128309961142 14.438484750811337 10.53039126142221
Pd 15.674160626809568 14.532254501387499 13.134877142038734
Pd 14.588666461928897 13.304684142785534 8.257977958039392
Pd 16.016734779355037 12.077977383868346 11.787821340523294
Pd 13.237665772949567 15.023270842855597 12.135760088681453
Pd 13.123962184772024 15.297942352531292 9.398472227975038
Pd 15.33256731054294 10.923101075078725 9.426587853430256
Pd 11.322154772577036 16.59536894517538 10.972112320560157
Pd 11.978789820235233 13.583571391175553 7.656715461892015
Pd 12.80482363959393 14.559816487009494 14.732645076033931
Pd 12.82841988912146 11.248287858296463 8.40801132156631
Pd 13.502622177541774 12.714892219030881 10.692446790408297
Pd 13.473965983226973 8.924527129888167 9.303114722786967
Pd 15.350556713599108 10.348246349752547 13.911622106724455
Pd 14.037492022890218 12.57355860814432 13.501087041489727
Pd 10.709857072459744 15.250501170565279 13.244963033832612
Pd 16.276213203605625 9.282375907784576 11.498613762321268
Pd 10.369503472437879 15.567088108306944 8.6642052906547
Pd 11.119014505894162 13.87534918986764 10.485219252357426
Pd 10.89732597024404 11.298437990415216 6.567654912966215
Pd 13.899803666884978 10.224520531502879 11.573472422300888
Pd 8.963573121151109 15.314752198049002 11.240280785228986
Pd 9.913637996473039 12.102146740733078 8.87244841761932
Pd 11.405878052127765 12.75079825095124 12.84819644441469
Pd 12.806455985235825 12.131433019859479 15.820908555606364
Pd 9.482707895867591 13.747851248005341 6.8461097161972235
Pd 6.717311522145382 13.725442707478585 11.363868738123289
Pd 8.38664438026192 13.895130205396546 13.508953178831156
Pd 8.5483793610016 10.28831597892332 7.643570853683029
Pd 14.3759043203713 7.320674758544976 11.130389660617993
Pd 10.407984145072394 13.243795626612068 15.171349058867955
Pd 12.396370040839136 10.505824152311368 13.63323870440332
Pd 13.925810976516908 8.176794465113986 13.561879387191288
Pd 8.126204018229348 14.034916656729475 9.08847403286505
Pd 11.777807120548061 8.568818110482052 11.69395512186995
Pd 13.374582847228572 9.50526172901526 15.862771056515468
Pd 11.43286145684714 10.994094603064225 10.754195788121867
Pd 10.897951882665653 9.273983630055334 8.634344005908982
Pd 12.084609474761962 6.720640589526388 9.773848435729727
Pd 9.128782826822134 12.434249226466436 11.477403222794797
Pd 10.669942449134798 10.521387120494639 15.639298957421575
Pd 7.047233963844533 11.703151263895426 9.589990309630574
Pd 8.434842316484692 11.461335574413198 14.502187952833609
Pd 11.419881863860233 8.131886538456051 14.533737123748683
Pd 12.303320894931215 6.210504343815432 12.587061237321219
Pd 9.889466762190525 10.104215977054563 12.806438095865857
Pd 9.680642586426998 7.562664557445424 10.511670177954214
Pd 7.026535849696676 11.129008259605309 12.280346932724058
Pd 8.813622238392291 9.95430547729829 10.268634750243184
Pd 8.759679591014905 8.790774849831017 14.798491265240378
Pd 9.704828259870482 6.897870033510076 13.053409163722955
Pd 7.759775533169979 8.57514560871734 12.285653091463553
