53
Energy = -231.22480922 eV
Pd 7.9889604074708895 12.200707475209995 9.865650356095186
Pd 7.745532125331397 8.418326916437277 12.23599157996628
Pd 10.271432968329995 15.46757987674558 11.874727934227264
Pd 8.448020406343165 7.565515241632769 9.660296947982633
Pd 9.516746793729704 10.298889848920854 13.42071387716715
Pd 10.415846533432362 13.826647822163235 9.62550013520726
Pd 11.943176806383029 10.06292086770304 10.250570221498862
Pd 10.985123333463056 11.68361808816957 15.37311661906907
Pd 8.962018019618396 7.785767984353804 14.485346431758007
Pd 8.132230593506536 10.019079054640281 8.053230933128141
Pd 8.760836540484748 13.18094910727149 7.506668608879867
Pd 12.348077216373374 15.530282653191398 13.655775051266922
Pd 13.11346218463579 16.088288058216147 11.077969472974315
Pd 11.133469420798244 7.27823536302913 10.05141445010905
Pd 9.584683793532623 6.445595320260893 12.072130385636354
Pd 10.872844439336651 16.674347060546825 9.679395251900624
Pd 10.309400139216699 11.353966384272779 8.598955743614003
Pd 10.459252902928961 13.64991485411403 13.75559702401377
Pd 11.073565665355966 8.502636332003645 12.39428367577554
Pd 11.258252849421122 9.027483291624932 15.101288390297386
Pd 10.53453447851699 8.783694843675603 8.005827818774568
Pd 9.329628594591535 9.772263718107622 10.583550521751594
Pd 14.52901708106111 10.336078224254205 9.020977522171691
Pd 12.70770042808309 6.461522160281396 11.94627129049504
Pd 6.618318016664525 9.674637965033625 10.190133642104026
Pd 12.555644973611088 10.573868050342847 7.265676625990946
Pd 7.317312259108476 11.174971252408735 12.227540839250466
Pd 10.161273327623226 15.42998612661368 7.464610326516448
Pd 8.332055214239137 15.200816634081848 9.938050865637782
Pd 13.95577658214139 8.681410189801515 11.252246157445134
Pd 14.322390817859871 12.91387667029355 7.484780351927098
Pd 16.241281956912367 10.094849364617783 11.096991496477875
Pd 16.241919200584537 12.186088657529217 9.368641496423312
Pd 12.226632677430944 10.739793865454345 13.002285902161773
Pd 13.092514049249147 8.23319521886492 8.603785295866553
Pd 6.992413044836388 9.741123605080544 14.461062099051707
Pd 14.014254256237436 11.689149598731374 11.364210525457867
Pd 11.34836428780857 6.488808546684923 14.26084135595062
Pd 8.282023965689955 13.65373466496989 12.15180872287637
Pd 12.63349896093533 12.428355140303559 9.346364535244328
Pd 13.508879373123262 8.332111426899518 13.869005801599805
Pd 8.309678812077188 12.274184628265637 14.54188448629995
Pd 11.55538761822802 13.126989771468637 6.946406472033736
Pd 9.007006687467491 10.048087233560972 16.154232979210466
Pd 12.665032177350872 15.022633187021482 8.53471816928087
Pd 15.01618889915774 10.574142571311157 13.457463299319306
Pd 14.678020704411088 14.131278292961175 10.069142496683337
Pd 13.139607914620157 12.891724730117215 14.192399131509886
Pd 16.320758043679177 12.6351174627575 12.09157259243867
Pd 13.414775913132306 10.535365066948923 15.54646813124918
Pd 10.311277451202308 11.974675144943225 11.561728631543156
Pd 14.636921900452004 14.526369400481336 12.732076061422564
Pd 12.286244166638385 13.672414417538558 11.645788655923907
