5
Energy = -14.71543764 eV
Pd 8.679005573241378 6.609527245028345 6.726803577071766
Pd 8.410779375541994 8.3453318444154 8.478801206643809
Pd 10.627117573775926 8.087243459025137 7.398639541907715
Pd 6.653162194853559 8.504886007489661 10.237550412118496
Pd 7.75539806434038 10.582726257585774 9.29511714134014
