50
Energy = -216.45239676 eV
Pd 10.010966184747202 10.28023182022004 6.298108528271726
Pd 11.210597954779349 7.90769191624211 6.75744962141803
Pd 12.785577070519171 10.136310843620484 6.644079045734755
Pd 11.450674722835055 12.22195119729338 7.482691532918823
Pd 14.235746768169092 12.617977442411744 7.79287314725129
Pd 6.801736189081867 9.768954469545658 8.3646448416888
Pd 8.843449929208242 8.320585370637334 7.879227220563304
Pd 9.775242622443423 14.22906985298478 7.645324173352527
Pd 10.813452565044784 9.788111583786371 8.81123289093557
Pd 8.887202227802021 11.712977093301367 8.387656702611665
Pd 15.225882227767624 10.021860068966038 7.795340107000837
Pd 13.221836430600488 8.213984549478697 8.496421881661956
Pd 12.446262582729355 14.540736228249811 8.479654145734218
Pd 8.04709684536563 14.105092106348042 9.637730671958035
Pd 6.030086527231971 9.152186916014978 10.864208687252264
Pd 13.0896024966749 10.873041474276604 9.313919090445047
Pd 15.771135405583298 11.598595570137226 9.917748818321224
Pd 8.628342938717077 9.795593268864076 10.4316983773851
Pd 10.786247815466202 7.246869474692544 9.437414007538141
Pd 10.210244937488776 15.709222143228809 9.864019138601016
Pd 6.619122004370945 11.845948951955247 9.875739678646916
Pd 8.098405400197747 7.258879526383638 10.341578772378845
Pd 10.882043157989857 13.098992854958794 9.974454659827163
Pd 12.579235938162293 8.464293789045966 11.051094748097487
Pd 15.10003901718605 8.9706784028056 10.276334804555557
Pd 13.854675415717175 10.869407199600412 11.791905945333765
Pd 7.678916809554183 8.31372151132354 12.893530477133496
Pd 8.866215036275811 12.234222540806039 11.318426149737961
Pd 4.631333753427787 11.442390141860225 11.452987336278802
Pd 13.703809588175186 13.274340768846415 10.526132985597558
Pd 16.528051077384998 10.220468868951485 12.206181121913014
Pd 11.828070111936903 14.721322087177674 11.787272038259678
Pd 11.206007493559056 10.813250193417758 11.208552142717773
Pd 6.545727981904878 13.516906511157508 11.938741499358482
Pd 9.019164469780362 14.732711277051283 12.188611360964668
Pd 15.765304544718868 12.774054416447495 12.34342006665125
Pd 6.7991282297867945 10.89506654404559 12.712286096318024
Pd 10.705682832176128 12.817430582557332 13.218942085708509
Pd 10.144601497365075 7.951673496126273 11.935389605749894
Pd 9.426273298670726 10.367488487746344 13.020883070252891
Pd 12.083221178312046 10.475513999984864 13.775495427904538
Pd 14.7987069011176 10.933715210448794 14.28930176951035
Pd 14.51561916064278 8.5733672739885 12.972944869987273
Pd 10.27267706073645 8.623049466079234 14.759040246075301
Pd 8.177947452768214 12.746216927591796 14.05782825591574
Pd 13.28083068097635 12.987339596401888 13.26122159636044
Pd 12.208396932468643 7.398824088231908 13.45269840182766
Pd 7.810955288232391 10.051843250813569 15.084732663492687
Pd 10.151751572364866 11.354529094281617 15.423981275072942
Pd 13.263051908948224 8.84765978677661 15.375198454891724
