53
Energy = -231.36785493 eV
Pd 9.555814189839344 7.683623852585063 5.429141274371121
Pd 11.345113878866451 9.857659919079504 5.71214990717771
Pd 13.105814317596087 11.949359246353174 6.183382863300791
Pd 10.388179944597846 12.501570829548184 6.214284377319612
Pd 7.624323529519796 13.039023536127866 6.441586073398797
Pd 11.811696022676784 7.338500978049041 6.875425943231124
Pd 7.306491141897516 8.132985592899406 7.057020617141054
Pd 13.626679159376236 9.478533499893505 7.279654128559815
Pd 6.355383397834625 10.770145853494538 7.553411107000071
Pd 9.701404178878127 9.04749489203065 7.667527363804314
Pd 9.359699686013336 6.282811515107612 7.7130087660010656
Pd 12.109853103057585 13.676201584429311 8.077608066833644
Pd 9.308381665383312 14.1851463196355 8.198545175426162
Pd 11.493258600478871 10.979244133823535 8.134652237441784
Pd 8.862093092796767 11.414016110702248 8.100012117020702
Pd 14.01316928919404 7.043883607417429 8.453864340103085
Pd 14.094619027173756 11.834233358174377 8.722539566668928
Pd 5.216139977457619 8.57980446581376 8.81533124088139
Pd 6.843753348626252 13.139032059095765 9.014699857805434
Pd 11.89391326479994 8.61755221668741 9.17795544103658
Pd 11.625923820085209 5.94298787560942 9.288959552254399
Pd 7.717332848320794 9.392750590031927 9.440616252810251
Pd 7.129652401455907 6.690257825379476 9.429861828476584
Pd 14.527605592887106 9.342554203349087 9.889766390776309
Pd 11.023942791176076 15.269417939087687 10.002740282692669
Pd 10.491049094033432 12.57757262638038 9.939331693003915
Pd 9.579701607311934 7.673826112902674 9.980291115121187
Pd 9.15655281497815 4.9740517354009555 10.0883174634405
Pd 5.591975891362559 10.907437809997099 10.238091635734435
Pd 12.431049265438714 10.845503448513101 10.57589201998306
Pd 13.00890515325487 13.477608331160221 10.683334389100315
Pd 8.19456992900823 11.606448274167871 10.702258818996961
Pd 8.58333479885821 14.294025193989205 10.877591937104564
Pd 13.324674289576551 7.169477964280077 11.096108631408917
Pd 14.957007046776516 11.64044420269067 11.318891888942098
Pd 6.083261900754184 8.398708842337784 11.382209839845983
Pd 6.1668979187619355 13.181068566507546 11.648944564239857
Pd 11.270976454526135 8.784352827207789 11.73366165219248
Pd 10.835616382102497 6.141345087216782 11.912443498121245
Pd 8.667347365379664 9.261183539981857 11.910022815609295
Pd 8.097645329104697 6.612573932030035 12.0291430308983
Pd 10.388023968008083 11.240054587993399 12.206907767864143
Pd 10.868648562486069 13.88613723758097 12.371491558099493
Pd 13.77153755249565 9.486087309983642 12.558956065891287
Pd 6.6017636422128625 10.721600702002796 12.811051687015462
Pd 12.840449374613497 12.04370312369377 13.039546427019754
Pd 8.4158396291889 12.796318413707787 13.176810760849817
Pd 12.54700481938701 7.324205462672885 13.709374147199913
Pd 9.804064508431699 7.785273455160397 13.866543433092767
Pd 7.054070954956434 8.2764911919621 13.932148812659817
Pd 11.58955133078313 9.860596561939586 14.220817647209026
Pd 8.878519245731566 10.346249371739798 14.35872924539359
Pd 10.689245816873486 12.428384998779181 14.686865598814828
