50
Energy = -217.24327303 eV
Pd 11.106491901535021 6.475442770900569 10.357847340682655
Pd 8.614255369488149 7.448410576587728 9.781597042561318
Pd 13.263914110554264 7.825701925373014 9.46529417880296
Pd 12.915118235089272 10.19009999657746 8.256566067279131
Pd 8.398577044831093 9.369666393325438 7.888453654841353
Pd 10.550797208384383 6.8935112007433315 13.048135507025794
Pd 8.11569581195912 8.158164745473698 12.345797755885643
Pd 9.91412171648561 13.41442009713854 6.773985539860113
Pd 10.756794509022972 11.246453607192064 9.883137559283497
Pd 12.321705599313878 12.723389964490924 7.65856527017179
Pd 10.321522557252866 13.948482043330815 9.344667752796559
Pd 16.662055017907566 13.916219556693695 12.35706829704229
Pd 13.105448517853771 7.158113653001839 12.00425418255489
Pd 8.230020050856401 10.104167168384999 10.416653906160635
Pd 14.821483914267187 9.17547569604959 12.583240552601154
Pd 15.118194352430402 9.830354605391731 9.832582038814799
Pd 12.250180250914818 9.025498097345476 13.606486188714728
Pd 10.451741564919876 8.826164085707711 11.338587895137978
Pd 7.830440639441834 10.82459519081049 12.962616328787428
Pd 12.777211854873286 9.887312496653248 11.077713659879413
Pd 10.821725008328546 8.621361620163203 8.670983228780905
Pd 14.220681187970387 10.397641548864838 14.9244097760055
Pd 11.567310916933124 10.535962634998054 15.57001871580214
Pd 14.934442197797967 11.896653296606136 8.145229565758004
Pd 8.985197569241127 11.429658946876819 15.370377633731666
Pd 9.64750844474754 9.097901004496219 14.305507379870896
Pd 10.71332551372523 12.407457307670837 17.278865782775764
Pd 13.224993729481373 12.342516563094666 10.166403952055438
Pd 13.0115781316902 11.743162071863969 13.025908054994744
Pd 13.206595697086033 12.647151644053416 16.096189272759084
Pd 8.476632365202642 11.98968636456684 8.487137348774366
Pd 10.411436668368276 11.074704430103044 12.645573841580715
Pd 15.10686917848926 12.873693397148715 14.195829383605998
Pd 11.063779617343155 12.910289375443416 14.534693662293012
Pd 15.41163447382052 11.631014935813392 11.738030097271436
Pd 10.545408228671937 10.822574260584444 7.208606899750472
Pd 11.338314478655633 13.455919765194018 11.826932381542669
Pd 8.662169017090516 13.362066102199774 13.506482448451706
Pd 8.98610881076637 14.076238347302594 16.063775839138778
Pd 15.622329645722429 13.676040014120941 9.946505509050633
Pd 8.64460173922145 12.668415443860113 11.021622258511583
Pd 14.058375190790533 14.263565927622436 11.998834236645903
Pd 11.519532549565215 14.844462613905302 16.515407992757073
Pd 13.003964324025825 14.668142518932589 14.299004526262962
Pd 11.71935978399396 15.302726873794324 7.434197910959335
Pd 9.394854277258148 15.216621480158846 11.607769638695801
Pd 10.342362203265726 15.43103735088112 14.11768738211095
Pd 14.317490733856287 14.488898702095343 7.764832300073153
Pd 11.991641347325807 16.02025283638502 12.128413257032637
Pd 12.79579347581727 14.988325149859676 9.821158197349293
