54
Energy = -217.95416039 eV
Pd 13.697492233325965 9.561836513991233 17.189120099435556
Pd 14.584978666382078 19.9271919193486 13.833582874565137
Pd 16.942417528928452 6.78137142457971 15.125843977460816
Pd 17.426217120943374 16.86804651420619 14.62183198119022
Pd 14.57441335837971 11.094816703076413 15.064142983125484
Pd 16.443132727766457 14.434723432058632 10.916113085914827
Pd 20.363313206587627 15.60900727506826 11.503120343605316
Pd 14.6385099264814 13.330681967217838 9.450947453243263
Pd 15.446238752568501 8.756759169160299 15.531040211265658
Pd 10.639480061795311 17.697522379052963 15.93694435648629
Pd 9.30746170635457 10.462998536273314 11.822259189833517
Pd 18.5557806065591 15.11925643444594 9.83790714222646
Pd 14.148054609442116 9.843022623910839 12.78570677174677
Pd 17.7313380486429 16.467800331304858 11.963551439263428
Pd 12.413221853538072 13.958279470457837 18.00139502352394
Pd 11.15853337380678 9.839050785563629 16.553988740733114
Pd 12.253896422065434 11.384062214922249 18.484284114724247
Pd 11.784920809031574 15.824509007918069 8.68446726687545
Pd 19.088083904439113 13.87027463097462 17.122801065262593
Pd 13.196959059089716 15.86225974858751 13.655453752598028
Pd 9.717982888593792 14.669812173286678 9.69961074725019
Pd 16.825336308163205 14.310203925506853 15.779098065028544
Pd 11.830723815190145 8.860934336279168 18.918604772826864
Pd 8.90200459153458 16.294928181456612 14.51817671460681
Pd 12.175138282623921 12.379514564959237 15.850437739701405
Pd 10.989026771799185 17.373082043117723 13.332944809490552
Pd 14.012186123289638 14.496311959728597 11.651231145389055
Pd 12.63341006132223 21.09875132461576 12.562699038237872
Pd 15.899956806388321 14.987758140059308 13.412647221610584
Pd 16.755972141452876 13.138213573499591 18.12217094291559
Pd 11.632857284938316 11.44627441524715 11.7086863951328
Pd 11.354287378514814 14.12607288639855 13.023890553479964
Pd 12.55325538967429 15.799824438656884 16.20505615087545
Pd 16.13904126243765 10.5041625545852 17.41442110222113
Pd 14.440132614709059 12.37852491411982 17.43958918941288
Pd 14.844217738434898 15.083348708234189 17.70259397749954
Pd 12.053042856457443 16.311754465541473 11.17565476692061
Pd 9.400400150851327 12.995665680773026 11.670064913344003
Pd 13.02860913004902 18.518664452834837 12.16223886362477
Pd 9.397599380362402 15.60197606260838 12.060468169635156
Pd 14.30191233483537 13.85136552489279 15.191060423331379
Pd 13.425302377335388 12.476726020840688 13.164185095519201
Pd 9.969291973910897 17.245538607724345 7.705187804534675
Pd 19.166017271266924 14.944449296110784 14.816833868119918
Pd 15.332995011380978 17.555025397734514 13.089857571349073
Pd 17.946966786832718 11.74995832532012 16.030861636354828
Pd 13.128806140834534 18.157905431906435 15.067475430873525
Pd 17.946729013652917 9.03210971847324 16.216534490847877
Pd 11.98434214211224 10.36696396115944 14.12679122838291
Pd 15.100994798629115 16.5979960224506 15.606162940130437
Pd 12.029007071665257 13.546446699945058 10.26963844326601
Pd 14.864099962414366 7.480205235349181 13.490251240513249
Pd 19.826037760887075 17.0488379526779 13.525710510559463
Pd 11.284172944194134 19.806591185004777 14.343184234345564
