53
Energy = -230.93219554 eV
Pd 8.304902308564767 12.318922550741735 7.2342020940223914
Pd 10.457248040587068 12.321510995357256 8.596555753379436
Pd 11.005629972839557 6.651973376981364 12.677611570651449
Pd 10.591509353449979 13.607458375791595 11.139269357038213
Pd 9.797531243603643 8.179327165006281 10.82235521648236
Pd 12.507022692899302 16.87848433830094 10.502345515225809
Pd 11.192357242526331 15.159711777431209 9.042288211972782
Pd 8.864749316488854 8.146355676645214 13.599439266451407
Pd 11.809816202778359 11.969517995544374 16.339156259288284
Pd 12.869646511083339 10.028211081245338 14.647559491140525
Pd 9.973704394243624 14.547672628126817 6.796219611291957
Pd 7.981572225181805 9.96772389931384 11.666027213113589
Pd 12.667385774210107 12.116970770970708 9.896781751726627
Pd 14.048396593618829 15.227651887385521 14.39163768522592
Pd 11.202983280780916 7.731336455772859 15.147737718677709
Pd 11.641466920302648 14.269799313303416 15.04275604370004
Pd 12.622088537600527 10.995345966566601 7.306240246073402
Pd 12.539905126421472 8.241481830995191 10.988667088838826
Pd 15.088520532546871 8.935917081102872 11.695624609495377
Pd 11.257326006335516 12.091197088517358 13.496098738215263
Pd 10.988313887778656 9.392615756086082 12.957475024086829
Pd 9.876862510120915 16.17098027413219 11.10731607016465
Pd 13.799018122168468 12.601354535252394 14.734214782121875
Pd 13.14115423604221 13.450545146662241 12.132143496643284
Pd 8.665392499048329 12.312320139917977 12.75686304643947
Pd 8.624115678014437 14.523264921396315 9.041026677884828
Pd 13.365904065126731 7.687815465378512 13.443068214538153
Pd 15.35655022406282 11.593434145665569 10.974725717393708
Pd 8.089615345964242 12.218035282063298 10.131635273619233
Pd 13.10945304784866 10.707703372334011 12.097072606112194
Pd 10.452980747613367 10.969094593450817 10.996135099074067
Pd 14.798599670443089 10.398924905924938 16.268630257390658
Pd 13.76362584055731 7.810941608958226 16.1358915021617
Pd 15.631686284232154 13.485610865398945 12.933517382578758
Pd 15.44484039706409 10.929721452638132 13.583179607886606
Pd 12.546022589142385 13.658282336101298 7.351852264476291
Pd 10.051366077950386 10.151226344439367 15.353699210203743
Pd 15.629010666740994 8.513296235227223 14.415404226653555
Pd 11.966001427354039 9.453098483283243 17.12416763597426
Pd 11.335742576195482 9.437535478948538 9.011416330018456
Pd 9.367455364893075 12.771185049318873 15.314915400512724
Pd 7.7828098513251565 14.493077835333006 11.512888318186416
Pd 14.551566641234157 15.724005499329479 11.801609685834825
Pd 11.973652834122321 15.739565186859226 12.804261858553991
Pd 7.708310846904053 10.47849605241034 14.303673029208806
Pd 9.589022860721009 14.733261911284725 13.434707871679029
Pd 14.800787222259267 12.393835062590453 8.410289820340607
Pd 14.008497828345154 9.848884184801332 9.377231180727609
Pd 16.086604919205897 14.01167374300515 10.320217219726963
Pd 13.68335470956226 14.640957138631931 9.549135376407131
Pd 10.78242157517939 12.332307007010566 5.748827118966783
Pd 10.019990617174683 10.121598564146444 6.846729479025663
Pd 8.651851708956896 9.925126316335934 9.06385092281178
