53
Energy = -231.28532746 eV
Pd 9.390233718208787 10.977818856739958 5.136482268265194
Pd 11.260270352748774 9.158156959998779 5.976518356844622
Pd 13.094775094757717 7.352405024176007 6.980919400894024
Pd 8.561509721390257 8.653200878956016 6.309704474305662
Pd 11.73023910460522 11.875294957282847 6.234132225307024
Pd 6.540350274931824 13.364104551619683 6.4225266067627755
Pd 10.423307002183721 6.887774086963774 7.326894676955859
Pd 13.56637570369377 10.014468839649314 7.243930160721734
Pd 7.2866453146052095 10.946143020715198 6.849115880170275
Pd 9.158429313381827 13.107799595878989 6.897505401168513
Pd 7.716646951043661 6.473583425362612 7.703334070206879
Pd 13.997574052076391 12.707223148120006 7.5334264067416585
Pd 9.887150464516457 10.719551476901268 7.7597740746017925
Pd 11.665254166009941 8.898671313950196 8.705907810785174
Pd 6.4147556472702725 8.826187486962553 8.266096068279039
Pd 11.548206036236154 14.001920815171939 7.919691819123211
Pd 14.713414840049731 10.87651435658513 9.594265128270532
Pd 14.21468053067031 8.19126859335327 9.310930283489084
Pd 8.935814413220447 8.524403090951413 9.002548414377092
Pd 12.118866900381542 11.652942130125318 9.039167152825389
Pd 12.194944596044142 6.294062998408243 9.355617700724995
Pd 7.076855250333656 13.427063484637722 8.9095191397272
Pd 5.326331326085541 11.328374567887863 8.754736534651437
Pd 9.042578577526378 15.189059072863904 8.59768833761535
Pd 7.799544232460615 10.98193001793595 9.55893471584814
Pd 9.811611997928097 12.994097032165428 9.718736775082215
Pd 10.224371626025958 10.456092150813458 10.354904298401767
Pd 9.47398616655788 5.88839768241753 9.713142463211092
Pd 7.933105747581069 14.24268545809391 11.227423551414397
Pd 7.01760253053421 7.032129993729978 10.296660757046345
Pd 5.743410528939922 9.478492571916979 10.8371373329055
Pd 6.1879481794893465 12.141703281613593 11.294681162740499
Pd 12.67156611053872 9.776408372849898 11.048518522663052
Pd 11.554908911518607 12.428011444503635 11.70773004786015
Pd 10.692350010088465 7.911411567634552 11.059073013998907
Pd 8.294165926846935 9.132189016759206 11.567030838068113
Pd 8.913462815786545 11.934751975853809 12.088642689981214
Pd 15.184758653664552 9.088638758200558 11.672546296528454
Pd 14.085757499888874 11.562337650390178 12.290701413120535
Pd 13.26922189020807 7.160389741654877 11.727461217446733
Pd 11.230418460314729 5.325525435252058 11.718591522167129
Pd 13.692160778831076 13.30876387724808 10.233495413564668
Pd 8.785303066061765 6.443139305642166 12.334162043489023
Pd 10.61109141011542 9.964020425596237 12.890563395012332
Pd 7.167181638274862 12.989409833918607 13.67582073984253
Pd 6.4119659045954105 7.701910398810697 12.856035826600076
Pd 6.79021779498028 10.368380260262189 13.322507147658936
Pd 13.199718910807693 9.157029915269044 13.607006553447771
Pd 12.129957767813783 11.58207259025246 14.221457293564024
Pd 11.168840477779275 7.283023438016541 13.590705985274854
Pd 9.06103442848768 11.136986330083786 14.67174741879421
Pd 8.70101364086799 8.444639665486422 14.179718875097386
Pd 11.023521611704638 9.33284714503134 15.399838367020052
