6
Energy = -19.09800913 eV
Pd 10.978240329649713 8.313997850070987 7.947758628768616
Pd 10.578438132033593 10.316891859283853 9.433929295596686
Pd 10.223254222470132 7.971194951470825 10.352727676610549
Pd 8.515191103015631 8.90115892375914 8.641021894307734
Pd 6.566192048169346 8.054369640745032 7.319868747991103
Pd 6.132392659410163 9.43642254554984 9.298918413538006
