6
Energy = -19.85162976 eV
Pd 8.454731566118003 10.91873366048384 10.614492724268144
Pd 9.594272097718262 8.539999661121751 6.476838990256855
Pd 7.474751770639409 9.088908447415132 9.07533086053976
Pd 9.526246360208106 8.57325884864958 10.87410981432429
Pd 9.288010677882115 7.167774359870344 8.564291048698044
Pd 9.909674318171094 9.897921085742395 8.558853642091568
