6
Energy = -19.83435576 eV
Pd 11.929871844308177 10.154569076552056 13.661053117198012
Pd 11.166678794534445 9.869731864825575 11.165264476786238
Pd 13.252867046315176 11.345380289063977 11.783061250630585
Pd 10.81936064824279 12.206411860154045 12.535767740377903
Pd 11.715439521298347 12.058707511667524 9.834513032703548
Pd 10.95699262583755 14.185701745529673 10.968504205933096
