6
Energy = -20.14530375 eV
Pd 9.04812021850471 7.107168928598971 9.253375540480418
Pd 8.270875596883881 9.389876260788343 10.094711995299974
Pd 7.4414257359108404 6.091629633180755 7.490132713467
Pd 6.846953060921968 8.5682224141811 8.016376432111837
Pd 9.16797634808064 8.02446067223937 6.839660876649472
Pd 8.693750100810863 10.39020594999193 7.763147368062967
