7
Energy = -23.43756553 eV
Pd 9.492219336969102 11.820985908508163 9.533026592684578
Pd 11.392903643321077 10.221844443079302 10.066391538569592
Pd 9.134628008952712 9.781307854771224 11.184018159331504
Pd 8.21389795129359 9.76645724555048 8.722683373700068
Pd 10.061403757759233 8.217190748507434 9.180881204262466
Pd 6.977138403838069 7.9391881423199555 7.63260133918297
Pd 8.925156005143517 6.445937324998527 7.879551893962826
