7
Energy = -22.77270964 eV
Pd 11.00144201285152 11.71809075144008 13.109989828419595
Pd 12.08050828966129 12.696962461787235 11.06615672317238
Pd 10.6824293644547 9.400917656841289 8.6255399530669
Pd 10.578666259468568 10.304300523855012 11.093961987456744
Pd 10.572347946546538 11.957985459312333 9.04462234217327
Pd 12.753709322168639 10.58557867850343 9.648093941266353
Pd 10.009971282372295 11.043519513278401 15.232275432875129
