7
Energy = -23.71688304 eV
Pd 9.96578626739938 7.960190623849235 10.883822646578878
Pd 8.6945013 10.163056562707327 10.883694750512573
Pd 7.423216332600618 7.960190623849235 10.883822646578878
Pd 7.423216332600618 9.428811976150767 6.505179953421124
Pd 8.6945013 8.6945013 8.6945013
Pd 9.96578626739938 9.428811976150767 6.505179953421124
Pd 8.6945013 7.225946037292675 6.505307849487428
