7
Energy = -23.0765529 eV
Pd 11.696211615474631 11.383665348744604 11.899747698240267
Pd 12.944758650381038 10.915118378896063 9.590529111281855
Pd 11.165691562194308 9.18142580694117 10.465593497158519
Pd 10.418994285531106 11.813954372352411 9.590250327795435
Pd 11.116429541282839 9.894185614260314 7.978088651713611
Pd 9.266422872272095 10.565857828715748 11.505913997755535
Pd 7.308100128111457 9.582063316009224 12.611846056487783
