7
Energy = -24.27081554 eV
Pd 7.230127951668805 10.12003348654552 9.50961475495253
Pd 9.852046683388 10.604741470180697 9.333322315556908
Pd 10.322870639363906 8.017460418215888 9.306423933763055
Pd 7.6961998861636935 7.541152349235206 9.489332948806672
Pd 8.847924972308334 9.06304744573545 11.283426789965102
Pd 8.718998613027358 9.073109733872036 7.53667325767082
Pd 11.309260720223659 9.557890515946038 7.42564162914236
