7
Energy = -23.34086785 eV
Pd 10.020233454371601 10.139635531609379 6.634265436719204
Pd 10.080326850744882 8.125565124965057 8.113336370972988
Pd 7.9015404938559 9.905753881552341 8.045579400091496
Pd 7.668075518559725 7.220727121853314 8.183028323607854
Pd 11.016514661694277 8.409648697810159 10.413339876845356
Pd 8.472871798233621 8.663918845902405 10.362402623146629
Pd 6.056536550195269 8.729078625022515 9.441200167471862
