7
Energy = -23.79294351 eV
Pd 9.025053819918961 10.062058978536756 9.256801092048894
Pd 9.222717322962481 7.748307371406116 10.387776364033448
Pd 6.802221670446721 10.023462650165726 7.855761047265741
Pd 8.016670233880097 7.749484588149169 7.858777411855141
Pd 9.138067145335096 9.805028696024165 6.658490257784351
Pd 7.150386219893653 6.402431457858741 9.805281881829448
Pd 10.628016647289467 8.219166354681995 8.21229570765541
