8
Energy = -27.51736233 eV
Pd 7.756271942288903 12.144326041618978 10.472612867010508
Pd 8.880332178676797 10.203612454349367 9.121306338514112
Pd 10.331328753071208 12.2906011271212 9.911006994534791
Pd 9.537574508040873 10.590072533785655 11.668666652157757
Pd 11.39798137696401 9.858399688306276 9.950446954385113
Pd 11.912038910567581 11.662947695149388 11.952856586066083
Pd 13.607188324982376 9.795007398310414 11.294091847333272
Pd 14.072763106070942 11.386643618889398 13.194581719780487
