8
Energy = -28.17327656 eV
Pd 8.084652308606012 8.182106086021989 5.06806279691774
Pd 7.741080713128435 6.298643175604123 6.8774669373820325
Pd 6.673280332518806 8.84220979489584 7.1015091741393155
Pd 9.594861819649905 8.251689280575304 7.139461515016922
Pd 8.453201654130199 10.152522518234871 8.409835077410092
Pd 5.568637802245258 6.829329297514359 8.417218354189245
Pd 7.343600988262849 5.202406998551938 9.191785741161043
Pd 8.00202260764577 7.702431074788545 9.255998629970442
