8
Energy = -26.5961639 eV
Pd 10.870604896568892 8.94096070000619 7.386255584555544
Pd 7.246347902712683 10.959381424278572 9.411556351607947
Pd 6.946172131269248 8.559518737055226 8.70382448373305
Pd 9.35115063301865 9.497560565429012 9.416334533883354
Pd 6.923979067432891 6.600317269309137 7.160958215520111
Pd 9.100246480233961 11.398892848620271 11.05896320190824
Pd 9.19913471501625 7.136183074139861 8.097934105640787
Pd 11.22528293914995 7.7446221552970105 9.59754033536582
