8
Energy = -27.94550718 eV
Pd 11.294047076351868 9.714499510850002 8.699246112729867
Pd 11.282396209020837 9.168113081758232 11.25643708767381
Pd 6.607289172952588 8.55623452639002 9.590694011103274
Pd 9.001199863689653 9.55862367853812 10.02960557526351
Pd 7.454249312614484 10.581798509084894 8.199569522665431
Pd 9.106435024667272 8.5475934952065 7.586809758764295
Pd 10.493449999734286 7.393943420209214 9.502636967585646
Pd 6.610575332122665 8.344761352793261 7.036700720342425
