9
Energy = -32.02088607 eV
Pd 11.65105414689934 9.382343749757371 9.517898592218314
Pd 10.864774961612772 7.427876822676739 8.12111849096279
Pd 9.120644316411546 9.404727221844661 10.152580808862666
Pd 9.945627620404599 10.889924774961045 8.202157927566441
Pd 9.336980196699784 6.85339453373263 10.08921887494118
Pd 7.367347053830215 10.979325712183664 7.763421676823971
Pd 6.581896000330254 9.673715880735791 9.799634316954295
Pd 8.634613722129798 8.680533970916292 7.750400375819502
Pd 6.996797835871694 7.237150588373908 9.137653452860754
