9
Energy = -32.77524529 eV
Pd 8.327649939242795 7.796921917210712 7.017808296207802
Pd 6.410120346823839 8.831772433608089 10.017209251970742
Pd 8.668559241589886 7.439179500135524 9.771117845422687
Pd 5.957946296321136 9.018367242176645 7.394552635851611
Pd 10.363281836344049 9.53279866711241 6.910288510776552
Pd 8.22497031667838 9.878894565117262 8.487321517987603
Pd 6.473814705570801 6.702356299758516 8.488318424888352
Pd 10.633605522967612 7.122811613345859 8.016038555696866
Pd 10.547440244646898 9.284286211720234 9.504733411383041
