9
Energy = -32.13065808 eV
Pd 9.627705241255262 7.822949462674323 5.780043859915923
Pd 7.527033344037677 8.92378476482218 6.721639625657266
Pd 6.497129660829591 8.042459934556728 9.036247570708696
Pd 8.727866057764935 6.869346104676947 8.000088166492985
Pd 7.6892171760482855 6.144735040931506 10.255699446511247
Pd 10.015595425470188 9.310594584799281 7.8422631113672905
Pd 8.92236555304735 8.418557063491008 10.229298099474738
Pd 7.709215500991927 10.415543928663421 8.863697280200924
Pd 9.984669454878189 10.752826529708285 9.971820253994332
