9
Energy = -32.24170223 eV
Pd 9.919813117728985 8.76506075808356 6.423148393006724
Pd 10.154592078097767 10.698792230638135 8.048858088438829
Pd 9.361265816268322 7.718181555446173 8.739791664674964
Pd 7.392523542297133 8.639440045799187 6.6906239046316385
Pd 7.937204972961306 9.769848791435587 8.968167954592557
Pd 11.120628598403952 9.231244429742048 9.87451545413724
Pd 6.715837604197962 7.296895741998876 8.787734310328801
Pd 9.115838696602987 9.952125248853655 11.270844232848468
Pd 8.043806386943304 7.657305824108718 10.997014694002377
