9
Energy = -32.18430264 eV
Pd 11.294144613874943 8.638182293725137 10.035337695825454
Pd 8.83933032346849 7.818650480463406 9.346285144612905
Pd 10.677126020965993 8.408959456623949 7.460260665068705
Pd 11.626727838879473 10.674876218401284 8.377670259646077
Pd 7.59752274086091 10.551174335136492 10.578903136836773
Pd 6.712524551594571 9.116775554933428 8.685576330484736
Pd 9.044672203217178 10.279311649465262 8.330560161503158
Pd 9.176102570597092 8.782901635968965 11.734896049435685
Pd 10.242968174871997 10.95187851070977 10.676238119934812
