9
Energy = -32.46606335 eV
Pd 8.576364961336564 7.683717970035034 6.91270262414365
Pd 10.885904886192488 8.619278995032987 6.232083094419508
Pd 10.320955336035722 8.482959968603707 8.78879789016088
Pd 6.9639342971616465 9.019150484559523 11.119147980914558
Pd 9.201024619514861 10.324557910577573 7.203263661356159
Pd 7.046249718719913 9.289870109269227 8.42791190813407
Pd 8.831979231785649 10.449759847677912 9.882612882800728
Pd 9.546527919436965 8.376828493102458 11.340182814163029
Pd 8.061589848587152 7.188407311756373 9.5278279626785
