10
Energy = -58.52596749 eV
Ti 10.27498363999034 13.113727848616307 9.575257233884644
Ti 10.372325559410704 10.599738857441954 9.988214621668254
Ti 8.765645111338227 12.11453933970798 11.222874014622475
Ti 13.481458344411084 11.759338934015627 13.533214015945426
Ti 9.918369602622752 10.021900822669995 12.368872417866916
Ti 13.883687056485133 12.422049499548367 11.094655093643722
Ti 11.329426257963478 12.334607161070542 11.92016685613239
Ti 12.504135029880892 11.676458500325147 9.403541706127816
Ti 11.537498268212724 10.699125688465317 14.05053518079013
Ti 12.576076805044318 10.092550892489221 11.63048137225653
