13
Energy = -78.37013011 eV
Ti 11.091092652194275 9.205991281406398 7.393669514929625
Ti 13.166188476956824 8.801596050938803 8.688281836013479
Ti 11.774366594627907 10.968158476321946 9.215242848527017
Ti 9.200972212061158 10.370118146286837 9.081742624462573
Ti 9.965730995976969 12.711969618596898 10.010259557767917
Ti 10.924057819598694 8.48976877112638 9.812823999645113
Ti 12.260955984508866 12.285146405166754 11.445090435872899
Ti 10.180027156195978 10.319799336013354 11.573914448712967
Ti 8.028905873088519 11.753540279352816 11.419115888636593
Ti 12.768170005489655 9.695821633281744 11.309934333534402
Ti 10.071818069566781 12.973645403650416 12.537476858554628
Ti 11.560884340859563 11.099518768540948 13.624046471024847
Ti 8.948698337047883 11.26679434748987 13.830269700491392
