16
Energy = -101.4240392 eV
Ti 11.627545947699932 9.555589965429052 12.612931160369577
Ti 9.083671296549001 9.531579018931307 12.822252717530569
Ti 8.22165440588951 11.730364217872452 11.701831820287365
Ti 10.5377619864024 11.844622554765813 12.907926266323633
Ti 10.197415726103216 7.830047352474771 10.99453837163108
Ti 7.785121995348192 9.461518844066827 10.658522574067309
Ti 10.111710884924683 13.159891292475809 10.796143041915567
Ti 12.614553714200557 11.673383731048693 11.136625912133827
Ti 12.706220719562078 8.951707613308045 10.583370746436328
Ti 10.387381932874078 10.421104479488326 10.331265649919533
Ti 10.404050649320261 10.51595342626118 7.474334431311111
Ti 8.856985453805015 8.855883252001474 8.611121201430484
Ti 11.307055134809362 8.31097169321414 8.558907112907553
Ti 8.475723248689084 11.670474167039579 9.016308316264404
Ti 11.189548822201775 12.565876454515 8.749413918099163
Ti 12.744692696329638 10.598439793581685 8.642953210813086
