12
Energy = -71.94464262 eV
Ti 8.959159309347669 11.066268215410743 7.869954786618809
Ti 9.204486192828815 8.67824159113743 8.36866978524116
Ti 10.505300772482322 7.953524785214191 10.274097120457588
Ti 11.456704965230733 10.072798028322927 8.360093637406619
Ti 10.504613528762375 12.603619907667964 8.603152849053872
Ti 9.909141490230535 10.653675279437998 10.312994000619652
Ti 12.411950439074309 11.886380213555881 10.018386929047306
Ti 12.34234839133773 9.725357926000225 11.16798635961715
Ti 8.099596732523251 8.88021886562915 10.858926461333406
Ti 10.206165047692243 9.11566361676454 12.517679762000576
Ti 11.06601562166865 11.664071664938547 12.430800065351228
Ti 8.513740714501466 10.922745009944052 12.47519607041782
