16
Energy = -101.41779352 eV
Ti 10.678371680816026 9.982302193342884 7.2508279299608365
Ti 9.692940867646177 9.691150660657645 9.6826350924826
Ti 10.54496875122924 12.24450328905942 8.980174597496326
Ti 8.453100569744283 11.429308502866265 7.7620745111373735
Ti 9.773789450688046 7.398905207806899 8.071307368492553
Ti 7.863699586610975 7.841652922912278 10.298148443545278
Ti 12.027113611447815 8.253663304873328 8.821380883612427
Ti 8.029486963446379 8.935698159085208 7.560556092997938
Ti 6.838987748100937 10.193146671378171 9.394466086892196
Ti 12.287189598457303 10.688742135698488 9.496452931240295
Ti 10.437172312198935 6.992176470288762 10.477511018928858
Ti 8.398989708764764 12.24323091656885 10.265670906073593
Ti 10.487702934199199 11.26435109839573 11.709221835009165
Ti 7.911151988033263 10.214645745925159 11.709151085942073
Ti 11.992166088899339 9.017937672920693 11.341340336877444
Ti 9.643047046013423 8.668463954515866 12.238959785607003
