13
Energy = -78.0463085 eV
Ti 11.829286899003762 9.677277419602788 10.965327409946847
Ti 12.059503087928736 10.231913459375008 8.070964333015574
Ti 11.057194850522016 8.176820122823992 8.969488532870045
Ti 10.215301366834453 11.055659181334633 10.078190328155257
Ti 9.808417254458552 8.021912118742748 11.005448837561012
Ti 9.327617519060325 9.893114420634765 12.519558920217357
Ti 8.668021441806939 7.148275942155046 8.83119070678017
Ti 7.3788782738903445 8.322161561892464 11.1553698231362
Ti 7.624340591878764 10.758249321602001 11.040243463639381
Ti 10.064670500088418 8.653515023647214 6.7770768994801704
Ti 8.240729944746695 11.900354891715224 8.929443812933386
Ti 9.911515889831113 11.04048524143491 7.312913317616002
Ti 8.11382002362199 9.429680997743347 8.66556505546262
