11
Energy = -64.98027553 eV
Ti 9.107104165906197 8.271005314444398 6.655104951579386
Ti 8.13681403775689 6.4536192477408205 8.136867799203488
Ti 10.920943867551957 10.030767981847667 7.530630306621438
Ti 11.571470234597644 8.185430931049588 8.690737196909495
Ti 8.509280996804545 10.710946938540145 7.832178721154199
Ti 6.886271534208407 8.691087834343127 8.135023073677594
Ti 10.227378730213006 10.810923429283845 10.002952062698043
Ti 7.591235348781871 10.28245881105348 10.23757763712415
Ti 7.22161343573563 7.689037279343993 10.548128223079033
Ti 9.350982621463675 9.189523268909522 11.751727433897477
Ti 9.267904974836723 8.47619896344303 9.270072541911995
