13
Energy = -78.61085708 eV
Ti 9.628156168254968 9.259658590977855 9.111309665629902
Ti 11.969910711654801 10.372958982527093 8.839093173324331
Ti 11.717546235586099 8.342290682629589 10.436587756718852
Ti 9.796723022648992 11.920870794430904 9.060567040115352
Ti 12.083738416305692 12.657529025245688 10.21695055991251
Ti 8.050067452329468 10.67253361471466 10.527109890360434
Ti 9.799009810341584 13.177809819916265 11.492969756007632
Ti 13.170028853665762 10.434409153635023 11.233596963364127
Ti 11.896975788196514 14.545221593920612 12.042215488400334
Ti 9.360509972906023 8.356068741514973 11.53603374800148
Ti 10.499435991808797 10.642751844483149 11.314935958807784
Ti 11.856587581859682 12.19507227186767 12.885929518247982
Ti 11.749833080762007 9.001347970457017 12.881223567429949
