14
Energy = -86.09437025 eV
Ti 11.90092741343963 9.599215292091156 8.054854049849512
Ti 9.291457642688888 8.991288728944818 8.869693321915415
Ti 11.471833181804742 7.366896522288456 9.382187136439871
Ti 9.781096350023887 10.87979221066034 6.816547642853632
Ti 11.539832442321096 9.612308663609785 10.552569093859255
Ti 7.394859719931711 9.793122017975831 6.9982947355554925
Ti 10.623020804250903 11.486352747373955 9.134518031492872
Ti 6.961337519614539 7.53046584200255 8.39165909934035
Ti 9.979178093085046 7.788550936350086 11.378449297500525
Ti 9.018136968314584 6.3203443824780665 9.591250150537753
Ti 6.5899431609278105 9.78289471489312 9.422707708777011
Ti 7.50185156446049 7.915323002278138 10.84004587112027
Ti 8.84786871805151 10.385565271107161 11.026664057240504
Ti 8.157724766294116 11.606948013156032 8.599628148726639
