17
Energy = -106.64124445 eV
Ti 9.51402828734662 9.085059515915558 6.349318617458397
Ti 8.588051840444782 7.011964279945558 7.993624651581399
Ti 10.822144981071451 10.934521032913121 7.871911366802687
Ti 8.257141819807288 11.31048210507645 7.0109654897486955
Ti 8.82693000027515 9.489596187544718 8.883144314557738
Ti 6.997381896943555 8.965258586073478 7.010349197399007
Ti 6.574786612695449 8.234772979889797 9.48799829379349
Ti 8.705633497480909 12.040826610311978 9.492576316260624
Ti 10.511285555458944 10.348765886038265 10.79449786810522
Ti 11.086548676752148 8.221691145833537 8.077222934785421
Ti 8.609799635588091 7.523790457604855 10.758253502644697
Ti 12.614539738787384 9.501793694973186 9.578951334070616
Ti 9.9211365137394 8.654574226328258 12.62418016406589
Ti 6.49106701572809 10.806573675562209 8.889136731492636
Ti 7.6765764785295465 10.020894248525181 11.221977614716575
Ti 11.207727507531363 7.493358824243535 10.60982290166895
Ti 12.368991796539243 9.129848397940641 12.119840555567468
