18
Energy = -110.76989729 eV
Ti 9.240344727542963 9.496619284534896 14.229920352840717
Ti 8.360715508302059 7.663675192778187 13.411446392895744
Ti 10.486362164824682 11.244419489925933 12.797384260050197
Ti 8.941206019797855 12.453315776690992 11.044328537095643
Ti 8.282167100387094 9.73358642621506 11.644973697469363
Ti 8.338424925788555 6.979564547542963 11.329899974218977
Ti 10.573602946058873 8.45183497613213 12.033112314276508
Ti 11.718183194488537 12.862830868807531 10.869140655212805
Ti 12.683573436372926 10.34382980222402 11.650217408886196
Ti 10.493648194832936 10.519951105708127 10.267522202801812
Ti 9.38898472008309 8.308847762470085 9.375032298456766
Ti 12.741837675348304 11.222912684545665 8.946296163316848
Ti 8.265665953370487 10.650893213243673 8.935907951642244
Ti 12.643728078575984 13.792891106041846 8.361061696195327
Ti 12.006132094603837 8.536930858914413 9.548024007433021
Ti 10.301964161559868 12.596364242974916 8.551226861640405
Ti 10.666172546938398 10.06500224423337 7.603288914852175
Ti 12.0905653536639 12.312390822858804 6.6331266109009945
