15
Energy = -91.31355684 eV
Ti 9.816183105365585 11.714945572985016 8.365285411315043
Ti 11.402337857364568 12.554838807328796 10.193582838413327
Ti 8.811958977241936 12.815489245435558 10.557454632771261
Ti 7.647546186956634 10.757351945280234 9.303937335044786
Ti 11.227960922244426 9.952653740941395 6.657606071591649
Ti 9.831713937573891 10.41540800760785 10.7587890449792
Ti 10.523752496101864 12.571930376501697 12.506562025202626
Ti 11.807314112493371 7.907447414101081 7.684506759801263
Ti 9.56004943681749 10.635020996467945 13.391738417210899
Ti 11.930473933787137 10.303683812783467 12.118435864302278
Ti 11.992854635351952 10.024417797816058 9.135095150087494
Ti 9.467506933592706 8.94180160317525 8.451556175522176
Ti 8.283873490408782 8.399859756210697 10.926002883268422
Ti 10.894357224483812 7.908864332384804 10.457938464781234
Ti 10.10203690065739 8.475126107896914 12.811314055722661
