10
Energy = -58.50739761 eV
Ti 6.8908760303570915 8.963891345721072 6.679075755272307
Ti 5.705909422201893 8.253136770864812 8.805129299592334
Ti 8.064297096764479 7.662592965819619 5.091661260816705
Ti 7.699001571147068 10.254579947921068 8.489096376125934
Ti 5.9276678690103255 6.619025876668158 6.659588600854951
Ti 9.78195532092141 6.501823192106927 8.857817701316465
Ti 8.163162354370824 8.134011459484178 9.441017038929216
Ti 8.420363835980917 6.225456155473965 6.938150077391345
Ti 9.511526483803921 8.661242788190515 7.190792555995809
Ti 7.015466870006594 5.9044663523143495 9.027898188269715
