18
Energy = -114.21863882 eV
Ti 12.546393741467503 13.952497075982846 9.997962635774545
Ti 11.694932122659226 9.11130324880381 12.383860787406165
Ti 12.769183995116206 9.684381803479782 10.258442810190017
Ti 11.729720030880028 11.946046310436403 11.693961750243576
Ti 8.888635708914205 12.209526189134515 11.659577952364918
Ti 12.13906406204335 14.64834878532304 12.634149157332006
Ti 11.975313349813058 11.532649643107147 8.873071560914234
Ti 14.160866909827133 11.851841490016321 10.165804652302837
Ti 10.158636180729127 13.14830593234111 13.773907741801294
Ti 9.833618433750347 10.53169795256854 13.210526475137511
Ti 14.558218303036053 11.746039996554762 14.504319319808555
Ti 10.16533189823924 14.391332951474965 11.357687713423259
Ti 14.248693226425841 13.325113470969454 12.174756338942602
Ti 10.05428326180524 12.74116957027446 9.505575467509
Ti 10.106915758684092 10.10727410033961 10.476889364509427
Ti 12.695445762488776 13.031606796947042 14.313976526127865
Ti 14.023769418320864 10.399039857019291 12.494883783517812
Ti 12.221680802610408 10.399949033100409 14.460189591591016
