12
Energy = -71.30773888 eV
Ti 14.19687963670047 9.65039929190732 13.577195925483904
Ti 11.729449299255764 9.425474570528056 13.354800443941304
Ti 13.76497056798793 9.859658852215015 11.13252865299965
Ti 11.238736866049214 9.246914216128822 10.782639903220193
Ti 10.838461989659706 13.305764483274864 11.2155154188527
Ti 13.207714044854558 7.727278570467664 12.294266769888097
Ti 12.195099891970349 11.518551218761267 9.85604639748345
Ti 12.53369964234879 11.758116148700656 12.457460023449562
Ti 9.634435670464411 10.980526910387825 9.664412785886594
Ti 10.112608187657 13.278242377046402 8.83535333292082
Ti 8.440160538315142 12.916960767565794 10.677503788249776
Ti 10.00565715125729 11.047082405781506 12.258636867529178
