17
Energy = -103.65964549 eV
Ti 12.29466013239251 11.651228395858258 12.594149005654076
Ti 14.419746532696529 10.490666417064366 13.691127829410163
Ti 7.614207381358058 13.812450589321784 10.910289698847741
Ti 14.665335502807814 12.051260746382612 11.555199569168408
Ti 11.141974327177964 12.782342268316144 8.440889105102217
Ti 9.954770949521889 14.427692984200657 9.958220373483144
Ti 7.909595656314499 11.369935610980534 11.367210513848622
Ti 9.970404127716503 10.456150351023663 12.86079664032561
Ti 12.99868498604018 11.040158304918592 9.847087067752543
Ti 12.242001019660846 13.417884770599203 10.702096535015203
Ti 8.57555658228791 12.457663052711622 9.047140779648565
Ti 13.820042811541432 8.093056244154432 13.349048821174051
Ti 9.767328557394213 13.019652418134282 12.247357227928466
Ti 10.469233098368303 11.147546257326482 10.37411576949096
Ti 12.037807896883212 9.542361802725972 14.347119340610767
Ti 11.930904894349691 9.066682229999847 11.758609137094902
Ti 14.546164171177839 9.531686183971209 11.307961213133687
