19
Energy = -120.68110325 eV
Ti 13.366054320020428 9.18092777291384 9.202690582923303
Ti 12.37685885663781 8.128927066915818 11.213028314751638
Ti 10.081443977498775 7.359341492555916 11.520132661585953
Ti 11.515397184765996 9.930974895804535 7.765103660260876
Ti 10.941000777880337 7.698998614808491 8.978992763485325
Ti 12.758248224773828 11.764170011646565 8.838001124184428
Ti 12.60071839789201 10.721557598953284 11.27205665611
Ti 8.959059881129054 9.46565489841966 7.809320459991451
Ti 10.88240081676583 9.340493061183796 12.83476462128882
Ti 8.457063192989896 7.74304405672777 9.819214662889587
Ti 11.316967686046178 12.841262673835896 10.532009359660197
Ti 9.962802009580042 10.179377975724488 10.230451648423397
Ti 7.133112421530293 9.596778285134658 9.848412861353006
Ti 8.324453993482503 9.19581160617184 12.243793176426454
Ti 10.148887540132543 12.07620219760391 8.072905479978226
Ti 9.928192716964645 11.67441757374324 12.546725663135497
Ti 7.5760345019257285 11.545040415164495 11.40126098329976
Ti 9.148106921933142 13.137272312986592 10.376624133340155
Ti 7.775352869253152 11.698221478657189 8.795499006141615
