11
Energy = -65.7540155 eV
Ti 11.03527006714974 9.39420397714444 9.201606988182975
Ti 6.381736157064325 8.279491511525679 7.363251022102677
Ti 6.633099401003673 10.804098404670546 8.08239847904003
Ti 7.672094683480808 6.806433454067513 9.100106353821094
Ti 8.884891513289315 6.815946641771512 6.779976599706594
Ti 10.205247391083963 6.9372729938657605 9.015497358156185
Ti 11.12924645839112 8.173989399210283 7.0366515564906065
Ti 9.065400630511418 8.556102830311891 10.692588317273605
Ti 8.419805202547707 10.924929544976713 9.810898794135362
Ti 6.657755389158693 9.01356304291903 9.841517488303117
Ti 8.763910045803936 9.142425017990492 7.923963982272448
