16
Energy = -97.40452585 eV
Ti 11.235442254839915 8.528600028054102 9.44005340999823
Ti 13.66363702743061 13.225388085246976 10.785017486124596
Ti 8.435539464001751 11.06978952629604 11.22579374092902
Ti 10.366755130119119 10.928793231576982 9.54192589659327
Ti 12.60385848086796 10.27058613060044 8.002183131585447
Ti 8.504224678337124 9.025134617447986 9.092899021543413
Ti 10.441656381982263 9.718080786185931 7.229349481477216
Ti 11.062550512786423 9.956986075786906 12.204816418644409
Ti 9.886920958277651 11.938312715150412 13.398770443480231
Ti 12.903954172459857 10.764513726825975 10.574053388071317
Ti 8.50874743908733 9.736745249610266 13.365794496342998
Ti 12.177302980215174 12.756105127163874 8.879617165566007
Ti 6.960845541952875 9.01381955808992 11.41086994473012
Ti 9.346534274206773 8.385289899004178 11.331173583490095
Ti 11.087231408630226 12.833955871368197 11.236393620422646
Ti 12.56640111710457 11.99601141423326 13.032221515541016
