16
Energy = -96.41511094 eV
Ti 12.85047292984006 10.211769131759109 11.328300050793022
Ti 11.303786701323878 10.478127150640393 8.859157137538972
Ti 10.19102996519886 10.886692510848743 11.199814110611404
Ti 12.11257954048671 12.723501314659037 10.323852682128548
Ti 9.73424418732931 13.5729280395006 11.709660245699792
Ti 7.785655947361475 11.755704779007898 11.093162282363092
Ti 13.90309186140607 11.35526440284868 9.128652697897353
Ti 11.752045757901872 12.201721696605931 12.881296207142078
Ti 9.099562616858362 11.972164920384204 13.45270279735415
Ti 11.291182959095535 8.28934091693024 10.575412461128181
Ti 9.14867879074235 8.934689663569925 9.515229623232514
Ti 13.289808883528154 8.810275608757221 9.063439291448363
Ti 10.964815127197763 8.040284666505508 8.040375762382931
Ti 7.092738464996784 13.389746075727457 12.276758632308773
Ti 10.621340654721052 9.63317609717583 13.176697572271454
Ti 14.317478756141684 12.468166385105638 11.39334021750148
