14
Energy = -84.91329186 eV
Ti 12.844344336550414 8.092604468679681 9.489673735655083
Ti 12.510342838978415 9.411884354977607 11.403087715142455
Ti 11.02163112587343 7.888557365834626 7.816605080443686
Ti 11.367744085980688 10.162836944876616 8.915286655047106
Ti 10.26350765884257 9.415768585113135 12.874879267349854
Ti 10.46269708655894 8.066604375187003 10.523672491645726
Ti 9.537363772054055 10.117284275560825 6.820716103873621
Ti 8.749502663930937 8.774482539475487 8.584144859605145
Ti 8.743983721924282 11.201055084490596 12.977056129861696
Ti 10.671131971976648 11.408220455736968 11.249470068039681
Ti 8.40332069005649 9.850077210549301 10.77290164841399
Ti 9.547227956463535 11.820554495242297 8.850122588075608
Ti 7.363844621914638 11.0301830753355 8.477410246679018
Ti 8.102104927918745 12.37749962075207 10.8862512612462
