10
Energy = -57.17711893 eV
Ti 9.406137781481563 11.416597199370166 8.34106222373595
Ti 12.697460218810015 10.18725965242747 9.719695254483852
Ti 10.407167258389753 8.304847580964768 8.40721196868314
Ti 8.017884905588296 9.611330077707876 10.07923790380518
Ti 11.303668412830444 12.532370794175801 9.94628792714868
Ti 10.362192535564738 10.028688965335387 9.985491893262868
Ti 8.967055132802985 11.973665018132577 10.934856901969026
Ti 11.308237936226908 8.394723806589708 11.454334924595637
Ti 9.289740010894441 9.901718679477764 12.45372241847134
Ti 11.592774587204746 11.001117005612137 12.030417363637984
