11
Energy = -65.12622159 eV
Ti 11.624872460900875 11.08560397163278 9.181035010800988
Ti 11.201828852464851 10.189371139223317 11.591316962845989
Ti 9.183939668994972 12.122710558979799 8.704117068745227
Ti 9.8188950675874 9.464033102369138 8.535047112180594
Ti 7.931237038871645 7.6587459964322315 8.737624461875859
Ti 10.757506824530312 12.709520649653141 10.72417082297601
Ti 10.117609327740148 6.808943296855415 9.219090421819919
Ti 7.402511816379756 9.897946504431049 9.321545075137612
Ti 11.816750757213114 8.457163986233722 9.953094306187817
Ti 8.914711570105768 11.0315664144414 10.958404128056381
Ti 9.11623055381874 8.4473413140165 10.960988009592862
