11
Energy = -64.63424624 eV
Ti 10.410504834768732 12.716709237002787 11.16343763910374
Ti 12.162880866920286 10.792759351095881 11.452336954696937
Ti 12.682404574804806 13.343560578329996 10.33539075185377
Ti 12.020225657193308 11.389798591720314 8.895783316150727
Ti 10.708632019848123 13.534823654869879 8.820619720555786
Ti 11.214833022136443 9.148343936158087 9.664106832140721
Ti 10.986321205549645 8.165706972469803 11.982539351334003
Ti 9.584783420299194 10.331192686259199 11.934248178678287
Ti 9.456727713733164 11.059297087902184 9.376985078216649
Ti 8.930960427662104 8.362355085682477 10.386648285604872
Ti 8.658025318650365 7.971751880075909 12.804202953230666
