15
Energy = -93.12125086 eV
Ti 10.359822901357562 7.909224397599357 6.638571499199783
Ti 6.788716085849239 7.828319534970154 8.996392534819444
Ti 10.217985402673568 7.912925308943534 11.557944943252647
Ti 7.8667818801736455 9.08129289047291 6.7616887228840135
Ti 9.171940537845485 9.063985848113377 9.068167560858132
Ti 7.730978241447507 9.076140202310372 11.292463723319644
Ti 10.236242785953857 10.195870893533387 11.566491911543832
Ti 6.816633830710846 10.350275530114411 8.997851268695749
Ti 10.389240891605118 10.192206468231825 6.6453504122303055
Ti 8.71877869055818 11.524920965316419 7.755057914120952
Ti 10.920680185063084 11.118502373387999 9.126007547328955
Ti 8.63608708708989 11.52459729937167 10.354728863538982
Ti 8.586041277658346 6.613765557459134 10.350538842798025
Ti 10.874553372776877 6.9672210275724495 9.113324609117239
Ti 8.659279329237288 6.614514202602475 7.7491821462922905
