13
Energy = -77.76276238 eV
Ti 14.59915268250883 8.517090684975118 12.45661650035614
Ti 11.62213683808864 11.698024822150378 10.929486847333564
Ti 13.531963343270968 12.551469939495579 12.844307963909712
Ti 9.012597443667028 11.652984867189042 10.03183501939762
Ti 9.49571577814982 10.392292320024596 12.074083520103299
Ti 13.268057000983724 13.5884540128393 10.446309540466693
Ti 12.290863067077572 9.782129189009048 12.3943288679964
Ti 11.606155081478713 14.061485205097807 12.371286773122915
Ti 11.147766790272783 11.741630433367957 13.72650257086225
Ti 10.53856701500028 13.885785373347257 10.021378269609372
Ti 9.366363520176717 12.928044560265795 12.152637657513015
Ti 14.294892485163135 10.34422481795764 13.886557604654627
Ti 14.427552688609985 10.823245793225505 11.285775272528065
