12
Energy = -72.20275076 eV
Ti 7.629059918059566 8.311261389111708 9.772779612469071
Ti 9.4893343493118 7.649791249178459 8.215313510397731
Ti 7.28562056607412 8.769670467650739 7.136088946125362
Ti 10.272347483279935 8.951348411067778 6.501494890106101
Ti 10.91886038825443 10.237897929113487 8.779765994904027
Ti 9.06422840152203 10.901272319326784 10.339131376580852
Ti 8.276680568194621 9.601199931569843 12.05000977785113
Ti 11.269385604649829 9.780721263914952 11.414727550836568
Ti 8.574206739819411 10.49493169797488 7.91695702113763
Ti 6.521016858980009 10.314898174175626 9.658718784378221
Ti 12.03145403744378 8.23895184791621 8.890212244365754
Ti 9.978801806353385 8.059052040942058 10.635797012790078
