12
Energy = -72.76467475 eV
Ti 8.204650309387782 9.051660164151643 6.510899415061552
Ti 10.69460253820063 8.843392861419174 7.29223343782956
Ti 11.065184300271337 10.280580716257477 9.42932682996227
Ti 7.268132252415761 9.299796768371989 11.219604033573045
Ti 8.848309281418835 6.997331299285792 10.997291110524996
Ti 9.302595301575142 6.786100661147701 7.65955144990447
Ti 10.982761043637952 7.6037699215930745 9.627732743860731
Ti 9.274927943758758 11.084526704831886 7.671747505531103
Ti 6.88536994311449 10.53223646141009 8.472664154784812
Ti 8.708069287638228 11.259075605432374 10.303560393553399
Ti 9.87450133497237 9.215428363232522 11.48416955892405
Ti 8.670850463608735 8.826054472866394 9.111173366490027
