12
Energy = -70.69102457 eV
Ti 11.479587008070048 14.982540850733647 10.117886971656024
Ti 10.079389649063527 9.986322375308104 11.0999027918834
Ti 10.567999688472284 13.873656298583068 12.543905661606813
Ti 10.673929964640179 12.520968798256268 10.287594970038361
Ti 13.016024745360763 14.004427985065586 11.454079353691696
Ti 12.247238604341092 11.744595420676015 12.1746741785007
Ti 9.751705744086294 11.413594315698276 12.966644554264482
Ti 14.360342964721896 10.578423602793373 11.638723582489202
Ti 11.532962903199083 11.932331862764782 14.583485006050406
Ti 12.365075308448258 9.873956266200434 10.291987344796897
Ti 13.264092575858857 12.12023111546787 9.64514361138075
Ti 11.739101166163543 9.494064263478771 13.031072698954356
