15
Energy = -91.92921205 eV
Ti 7.974784757275783 12.013032637695101 9.495768028242802
Ti 8.8442973884337 10.282814584826559 11.764086485224437
Ti 6.843834129856027 8.014769500220154 7.871765238647453
Ti 7.206634549973289 7.998532620099624 10.729226554203859
Ti 9.769023678656435 11.248703302280088 7.64380011771839
Ti 12.730528324343373 10.371932323373725 9.49013006998102
Ti 10.432976660152429 11.676802414715556 10.163617728809685
Ti 10.821505467715108 9.06467162664649 9.036239331557777
Ti 9.699454339393835 7.806186519394524 11.363683062753653
Ti 8.388614026537269 9.586751306440995 9.258718129344246
Ti 9.112244355223165 8.717646892879403 6.864539151510468
Ti 8.977998967246533 6.9659318482227315 8.967584486074717
Ti 11.40487989682959 9.756435407986142 11.635110626268935
Ti 7.3005714873498295 10.549212705913092 7.11615813822182
Ti 12.213827215269227 7.667751553561547 10.320748095696604
