12
Energy = -72.10350784 eV
Ti 11.428616141649012 9.69056676008996 11.764606093225769
Ti 9.791882216215688 9.795615981663333 9.832433732899881
Ti 9.631986311120695 11.657118039022151 11.545845447042828
Ti 10.45444400424526 7.41893279112314 10.443340520520467
Ti 11.475928403444696 11.239843602096563 8.988402131823285
Ti 10.532732687745073 8.434351585719634 7.833138879937476
Ti 8.73744517023182 10.399307082997609 7.613732852304643
Ti 8.11165890099842 8.17719979677854 9.093439148355777
Ti 8.758441305369352 9.086665456132257 11.93944100579524
Ti 7.436613878981772 10.722101227477527 10.075605013823226
Ti 9.091397591222643 12.417957025492012 9.156077286107644
Ti 12.393137572419647 8.804625202340109 9.558221520874731
