19
Energy = -119.77343002 eV
Ti 13.420333882927206 12.694360540660508 10.402721434145507
Ti 12.171419836646116 13.669746949008237 8.867935099899563
Ti 12.05929015585319 10.398198724221128 11.471132626470045
Ti 12.052499966493658 10.965007479121988 8.88016930731726
Ti 12.066492011390661 8.294861355978187 9.78940964883215
Ti 10.775078458570606 12.38250833571234 10.79049017448668
Ti 11.05111597308006 8.510656945248543 12.288524572084917
Ti 9.275645225470015 10.659656974795972 12.405281568736585
Ti 9.874693625563609 12.12265484271323 8.259477784269373
Ti 10.276509313940421 6.7058257670601105 10.885928358136466
Ti 9.665978745989017 9.582850122999368 9.99646763626276
Ti 8.519800723009098 8.219228792922845 12.29844535193834
Ti 8.238627929508247 12.104588281918309 10.357013447136017
Ti 7.800043923670361 10.856860660756853 8.189544299950226
Ti 10.062834999479364 9.594640378491079 7.319049651898102
Ti 9.82167845097804 7.21431654828956 8.477789891918079
Ti 7.777983265383896 7.260026557759056 10.134268928391624
Ti 7.081702438403034 9.844563416639344 10.683174794509563
Ti 7.670879040364333 8.58205529242429 8.165783390337394
