13
Energy = -78.50815774 eV
Ti 7.902843418724169 7.065486562457609 8.144632333240086
Ti 6.527912449548276 8.856044260759324 10.09966749964907
Ti 9.706717673763974 8.47502256374309 6.264362215757031
Ti 10.201253170852034 11.29803914672636 12.074081479134387
Ti 10.52712489286037 8.964677403790304 11.358236163468613
Ti 8.235998515398464 9.732465286634975 12.354818099141532
Ti 11.858258746495395 9.589460534168111 6.985929280280441
Ti 9.763015264354085 10.770616753859693 7.5127108251338965
Ti 11.41478093139138 10.693961714062786 9.571426654937488
Ti 10.377079745101758 8.329537103141668 8.73563830062263
Ti 8.736602650929237 10.639751886524584 10.00925759995939
Ti 8.514773767032436 7.788801472358487 10.58418171571109
Ti 7.788825773548558 9.351321929539104 7.8602448329646135
