17
Energy = -107.69680064 eV
Ti 9.0316164010859 7.072392313283927 9.672075594440853
Ti 10.679709942105116 7.738583189001924 7.6023467601065695
Ti 11.823660412033112 7.620706297218383 9.631312207761232
Ti 8.206453479899126 8.365754872624164 7.522967363585661
Ti 10.664281918966543 7.592475455074855 11.86063852786806
Ti 6.973199271467247 9.43987171342208 9.735290150592908
Ti 11.929896299675718 10.08069305234951 8.437538876996875
Ti 8.360283350799143 8.55917640817284 11.853723994572894
Ti 10.045949219386683 9.831019891101814 6.5008875549310075
Ti 11.936722244543668 9.65925049001282 11.093462106020604
Ti 9.596715401072595 9.627433622631795 9.571827782125707
Ti 10.132250989687881 10.166284759580265 12.725342120507213
Ti 9.90856493193365 11.87193440491137 7.951428214328642
Ti 7.621009465995073 10.8027099725727 7.491732540402367
Ti 10.516436235157842 11.897443019792162 10.508793464134664
Ti 8.035462738162085 11.047166407600217 11.673490184536064
Ti 7.948592754067137 12.037909186687013 9.577947613126788
