14
Energy = -84.41636104 eV
Ti 9.186123058160316 9.187968606593664 7.056216731105746
Ti 11.721232535809175 9.147360365219512 7.861474063324278
Ti 6.771171849916301 9.233475146286768 8.196227126565246
Ti 10.437984437439022 11.375897976811338 7.904667064906085
Ti 7.7414910250233335 11.461624839861665 7.700195115732713
Ti 10.441806138415073 6.782278272726961 7.6102808880509345
Ti 8.036201977037342 7.042425197989386 8.152628534359946
Ti 8.89026492019626 10.725284882662518 9.804911444611456
Ti 11.245440144556158 10.311148679243875 10.30720648487931
Ti 6.737932592906439 10.595283401741888 10.433587323978683
Ti 10.415872915858387 8.082660258043589 9.755547291606451
Ti 7.361589072230046 8.0720780274824 10.347647597689845
Ti 9.234456852213333 6.263388772566121 10.34809586078499
Ti 9.120248415678487 9.060941572770183 11.86313040784402
