17
Energy = -105.47751846 eV
Ti 10.778109826338993 9.581957377234856 7.560124338156974
Ti 11.0161545526781 7.129006523766643 8.443015846797788
Ti 7.829511711646398 9.962432629317433 7.220055489113355
Ti 9.349498348048398 7.651746025820601 6.524041696304594
Ti 6.865662224342433 7.257465035017019 7.305371803064893
Ti 9.366033697597864 11.628282762033741 8.59595647518497
Ti 9.935089939048044 9.610517002832333 10.57848160568062
Ti 5.93284739584618 8.92000247786873 9.02448183855124
Ti 8.732463364832256 5.7630945909666424 8.113430182501723
Ti 6.775278986199448 6.644549891012295 9.858552910309411
Ti 12.363091400503029 9.03315297982669 9.599229015379906
Ti 7.123128221885681 8.935135342928637 11.323491815642175
Ti 9.749775375233366 11.940418300656171 11.2565061975472
Ti 11.637841725717028 11.467020717691325 9.417033204807689
Ti 7.405626210287294 10.883300604666722 9.832355292238978
Ti 11.933873385071427 10.632833180405717 11.752207328018368
Ti 8.581413691802377 8.33448461503229 8.971065017778738
