10
Energy = -57.67873951 eV
Ti 8.368138282747239 8.5288994836493 5.434095258642494
Ti 6.879392819929849 9.566158353660908 6.761003698099314
Ti 9.206230546507415 7.902974172710035 7.961859801608031
Ti 6.703451630076521 7.158266554844645 7.524647790228058
Ti 9.04468996348094 10.517582914752248 7.576893003595178
Ti 7.23329081253773 9.23536509986422 9.304093751104757
Ti 10.655147647704027 7.0199445440384345 9.92850023598104
Ti 7.578934320287198 6.52206090659946 9.496194935679723
Ti 9.945438848057556 9.883290843355589 9.519669529464855
Ti 8.848555005392239 8.128727003245588 10.956311872316848
