17
Energy = -106.41229747 eV
Ti 12.335646325532714 9.43024988670202 9.805951238821846
Ti 11.187143681795266 7.630693159347393 8.51272822500822
Ti 10.988924564233935 10.118696539076181 7.498936973042737
Ti 11.320381861065336 11.86161771124971 9.594827167392717
Ti 11.125439900542483 10.495120094099027 11.92679985604167
Ti 10.47328298626526 7.776219239269909 11.313724983159329
Ti 9.156102378228123 7.361457253940453 6.693270250189281
Ti 9.786574573145739 9.733800871769557 9.950452902354535
Ti 9.031488643158742 6.572315201688493 9.227381483418254
Ti 8.945128523189133 11.810603380615861 8.340462950400136
Ti 8.608472659886242 9.100314012358764 8.18638602077577
Ti 9.12122856962924 12.072567504082077 10.998997577832968
Ti 8.58001169468347 9.790143500378395 12.222440414971143
Ti 7.476234534806738 9.937444736358852 6.431767678407077
Ti 7.651361580415142 7.954872916244787 10.796248261708149
Ti 6.781772959953231 7.585404004903158 8.243292410983164
Ti 7.131247667216969 10.468923091663266 9.956774709241172
