14
Energy = -87.11644726 eV
Ti 14.876570187401255 13.988348633843346 11.668273743489511
Ti 12.68473779005651 12.337524277039586 14.96975378667203
Ti 14.671563901571274 11.608086739056716 12.79715431801933
Ti 12.408426419466409 10.09236095244615 13.57359747070343
Ti 12.354877686966036 12.336673238600739 12.341798515880754
Ti 13.681553248827784 14.39431126845595 13.76238051422423
Ti 10.495759438650417 10.390841347521045 11.742643502021304
Ti 11.14403919986551 14.143429947284966 13.849008329278405
Ti 13.996662917300474 12.322753544941364 10.094128680849177
Ti 10.331372711342263 11.684205569564917 14.100864904462508
Ti 12.986470913174676 10.13263774919047 11.00359152077877
Ti 11.442460023952068 11.960118127407947 9.890427276145797
Ti 12.305571985738053 14.467090028045604 11.138170331926956
Ti 9.934266343913896 12.991228170225991 11.802623882706893
