16
Energy = -101.4177359 eV
Ti 10.309564417469574 11.778778929714889 8.898256330963497
Ti 11.070793179898976 10.294805569828547 10.789369560448279
Ti 11.547841186907043 9.525875363284776 8.038806773609535
Ti 9.294390258291275 10.738677130669489 6.859152319502447
Ti 8.792475145514802 11.33083406181711 11.00207492834111
Ti 11.287117854822132 7.903909093042113 10.432139463069058
Ti 7.698639219465286 11.593906674794694 8.625455740483208
Ti 9.487273802714984 8.344847151691717 6.497666058894748
Ti 10.729724787576657 6.934046114673619 8.169730368115324
Ti 9.14492784795957 9.144717464262014 9.14670700856074
Ti 6.767084073370788 9.989391431230576 10.327422702182291
Ti 9.220612686420449 6.487423610940962 10.274138709951
Ti 8.933961737734187 8.73675590518978 11.779196396164961
Ti 6.947673052118584 9.17704450221559 7.626082558210161
Ti 8.12280178382555 6.74861428964712 7.89698801079353
Ti 6.975961516102956 7.601215257190074 9.967655620902793
