16
Energy = -101.41991581 eV
Ti 8.640279309894208 11.625560611840266 12.370582192069511
Ti 8.75558137951 9.040732625960095 11.519689219321998
Ti 11.224912676182514 8.149686683423617 11.57802583135205
Ti 10.38990498511167 13.634206474743797 11.981944778848947
Ti 9.174815367587076 12.929272386406465 9.890722094424511
Ti 11.14282451070988 11.869499942963417 13.64332814712808
Ti 10.80653662963455 10.967343350912023 11.021519669606201
Ti 13.263292300696524 11.469072512993394 9.919126426055184
Ti 12.498499535436043 9.232304989821493 9.680830053009585
Ti 12.87868188744909 12.803016648389946 12.06384921278694
Ti 10.371921752474567 9.61954334324691 13.413147486657943
Ti 13.011395610743895 10.079112441728626 12.289220222426742
Ti 11.646335872717435 13.452616675743691 9.707653626763857
Ti 10.995303716612698 11.180618111813741 8.36243916475251
Ti 8.412821996232005 10.695134679301846 9.626495110051954
Ti 10.025889802726148 8.815773972037094 9.252797168960418
