16
Energy = -96.90403908 eV
Ti 13.644191423201217 11.020828855148938 11.162217628585696
Ti 10.591278836615748 13.135656152619333 9.7306562638668
Ti 13.186291312364508 13.233992535765987 9.617250094769725
Ti 11.802839678336511 10.942242507215012 9.289237586145799
Ti 9.764803162417689 8.029647239557868 11.231758178251805
Ti 12.20163684674344 8.886818554746434 11.407706054645043
Ti 10.7312611766014 8.606509672501465 9.012713651713552
Ti 11.673700462881543 15.023762077044118 10.631076411116311
Ti 9.55940025619721 10.499759978225596 7.725400079629506
Ti 8.149782349822557 8.583055921686459 9.207398068239941
Ti 9.111603960628981 10.692936330032413 10.001486636211967
Ti 10.503868635618106 11.076116836813645 11.961716501459186
Ti 10.529521890806464 9.0181577215991 13.501641238310922
Ti 12.430412609813548 13.049354934337597 12.02628967164084
Ti 8.148885929624264 9.529665403280932 12.126454486022011
Ti 12.57443602518013 10.540609930768907 13.435805436244948
