19
Energy = -121.41199661 eV
Ti 12.817315868998463 11.419632094326529 9.693806785209848
Ti 10.979171809849156 11.929935456101406 7.856063584107757
Ti 12.337602921058327 9.629983673896529 7.713864026814745
Ti 11.741971086576942 10.548457503461206 11.940582851129411
Ti 12.809715299768643 8.771247202977792 10.262910999672178
Ti 9.63487567288276 9.716761569886824 7.014467853725163
Ti 9.931464452417957 12.34726896984772 10.53874533672244
Ti 8.558350000257658 11.853652066287596 8.319246946276598
Ti 10.7527598966274 10.033997808051808 9.60476638558988
Ti 7.252576835627275 11.169723122065873 10.643316600804914
Ti 9.304737622283794 10.498264420369214 12.344879474124479
Ti 7.010143420402742 9.994717788828405 7.899993796650656
Ti 8.643688219671036 9.346625063830855 9.775672864108335
Ti 10.507973398538361 8.139367334259326 11.716708864474313
Ti 8.183739347888368 7.618890375541718 7.867415725142984
Ti 10.806789286022685 7.503580112046892 8.736002909082188
Ti 7.784452951288878 8.592811883246767 12.072871086891295
Ti 6.435403290642225 8.224916229096301 9.809994113972484
Ti 8.641818663305232 6.794717369985686 10.323239839608908
