16
Energy = -98.70959147 eV
Ti 10.500046145716198 8.96857453278536 12.341844478893234
Ti 9.352799284992676 11.080566972564727 11.0295610115298
Ti 8.057487425450915 8.996725257305151 12.098907490225761
Ti 12.007733709300773 10.297987876256258 10.820081139064305
Ti 6.65452006983442 10.716847986435749 10.61378967419066
Ti 9.37308796347712 6.906122455344633 11.202536900791047
Ti 12.056699317160144 7.663050243791247 10.821637775590288
Ti 8.325439593208557 11.387484434841982 8.733790220447505
Ti 6.539506767858766 10.249279286710566 7.700653339313651
Ti 10.874971251594092 11.121912810329412 8.44380894689723
Ti 7.325754070734638 8.592384393043554 9.62940417286114
Ti 12.574328985576924 9.172634080245764 8.654639494759108
Ti 9.065710071633353 10.70561480785973 6.338574029056244
Ti 10.06066586366826 8.825925864415396 9.60955949514294
Ti 8.503983743218475 8.568076995263935 7.428893922306276
Ti 11.014513468926161 9.034059735158017 6.819565641282426
