13
Energy = -78.58057223 eV
Ti 10.809524459218792 12.095539771868426 10.470239069558946
Ti 8.76129306860468 10.512931324315383 10.97840592410577
Ti 8.842055647693764 12.112433515356752 8.930310237961887
Ti 11.367097412029468 9.86394487036438 11.668152750237002
Ti 6.672178207876906 10.490569494836524 9.193828524771543
Ti 12.93906873929974 10.616538481837168 9.872594116906301
Ti 12.370136000819322 8.171568584600696 9.926467358049269
Ti 10.655781895375126 9.844261349699217 8.979294240233287
Ti 10.056575974843515 7.928961890663392 11.005917052205287
Ti 8.531409930751936 9.804547055022656 7.726554095227408
Ti 7.799225564336453 8.296736249977371 10.117649100999326
Ti 6.875124362788635 8.0806880422312 7.916545962520427
Ti 9.55531719060926 7.416067823474706 8.448830021470732
