16
Energy = -99.06300764 eV
Ti 11.354358362798427 13.301609717736453 9.379358079462211
Ti 10.200539596098654 13.40097827184667 11.915366607860102
Ti 11.777824250051687 9.982416989033656 14.246565385057426
Ti 11.732469564880846 12.168056797740103 13.488431003536888
Ti 9.910450574565884 9.032398515589446 10.343571144011515
Ti 8.997513934573291 12.177768075691892 9.910407882011388
Ti 7.621522094180975 10.188762694410219 10.793527840016825
Ti 13.474698406216385 11.67395975589535 9.542722499629523
Ti 9.427141163007922 10.770707561132227 12.791110964921796
Ti 8.527597825047168 10.180543824700443 8.468883926163901
Ti 11.303890355597316 11.221276549904923 10.99429144995542
Ti 12.923985522248248 13.248764988667876 11.498399148112785
Ti 12.69312697469152 9.23115051104814 9.960822412753021
Ti 11.558547190017258 8.865813952541014 12.279760789536008
Ti 13.673147196565715 10.646486351142077 12.11073731292085
Ti 11.208576435872258 10.796281160122456 8.37420223980494
