13
Energy = -78.36413543 eV
Ti 9.154520402525717 9.582520853132056 9.196472654860045
Ti 8.356880763630278 9.152519798950612 6.586092716416583
Ti 10.295392178557227 10.077573332391028 6.730896715984483
Ti 9.946708307475047 11.31957381547454 11.190116241173774
Ti 8.145416499843188 7.553982311558685 10.495433317916655
Ti 7.6286977011496715 7.327546823521126 7.975053239044765
Ti 10.186714986829672 7.635896505757014 7.788484768928647
Ti 11.197300056563929 9.01475272269076 10.726194568580341
Ti 6.438896828150953 9.076823998808075 9.128881656842893
Ti 7.081538661964866 9.945366970041693 10.98968013117828
Ti 11.995694556163295 9.403321022217964 8.302756311186322
Ti 11.246686481136813 11.367298181161766 9.477363583891165
Ti 9.076074584324438 9.293345672609906 12.163096102311407
