19
Energy = -120.91030323 eV
Ti 14.420315417317209 11.565574389545338 11.434509523042006
Ti 12.957074272633802 9.70401130228522 10.02991045013115
Ti 11.121999452440685 10.934290679529138 8.54424190768822
Ti 13.754806680047663 13.783607473593776 12.923909315359818
Ti 13.377190470668198 14.055602833028393 10.564035085325028
Ti 13.56392759124491 12.066023736867082 8.871556445477058
Ti 14.06796995373273 11.479774544627443 14.080343772982093
Ti 12.641110810734814 9.57384722570517 12.615522821868282
Ti 11.343761546266654 13.661808120001337 8.95182608348689
Ti 11.861570994566398 11.917563259374587 10.770629473739241
Ti 12.539257080570438 13.193664101606059 15.26533776537645
Ti 10.67867291497851 14.181217882872868 11.59215391250877
Ti 11.884906075963634 10.608945903087642 15.199595267280468
Ti 11.68201787943366 12.093111044177611 13.147626264764169
Ti 9.39684898492236 12.32183996699652 9.949433594117231
Ti 10.353027236211648 9.792507572021142 10.948047799864684
Ti 9.8230258688694 12.366274189283864 14.745297675235072
Ti 10.055921922703714 10.005185549359469 13.581938187392296
Ti 9.023435238341829 11.920739603105979 12.257855174126751
