11
Energy = -65.33539437 eV
Ti 10.728112135724261 11.726547322465521 15.441558207641936
Ti 10.734944587434434 12.274155983959597 12.66653334473287
Ti 12.97703440644187 11.529362249147686 13.928965073904655
Ti 13.786769864955541 12.992435636165874 9.798051563769182
Ti 14.948099695462092 12.409926135348641 12.203783821648742
Ti 11.468149270662717 12.953811558317508 10.019690237962315
Ti 11.712135566180423 13.85067229314802 14.52330907543813
Ti 14.32895568389368 13.55343674029674 14.52206249289916
Ti 12.874294580395382 13.81472278763738 12.18521033742751
Ti 12.751803727559711 11.247032194628222 11.342335039657428
Ti 12.698230849346185 12.472142714951508 16.42923270060387
