15
Energy = -94.25740567 eV
Ti 8.022335247361175 7.883891547322487 5.813910257499562
Ti 8.637614135982226 10.31319652114826 6.423453799291172
Ti 10.56389230584994 8.173243995648635 7.088897669227023
Ti 6.254225278622003 9.45356400627437 7.197312859215112
Ti 8.505127053055919 8.462408929059515 8.428308365621051
Ti 10.200469729615337 10.761744532873328 8.274365326123194
Ti 6.303711605211925 6.974683932139854 7.575585769440378
Ti 8.823500368915756 6.000408883578393 7.246373875903503
Ti 7.609529713375471 10.937858446338511 8.785890225851514
Ti 7.479058190937537 6.187808150448444 9.643445850048845
Ti 10.079998267433867 6.481682055214362 9.375188587152
Ti 10.824625515409174 8.837758542142426 9.858818134976726
Ti 6.241855270454602 8.594799366608054 9.773249028492947
Ti 9.15850977227168 10.436080689902589 10.792551171103574
Ti 8.68719938987775 7.892522245676146 11.114300924428054
