18
Energy = -114.62914389 eV
Ti 11.772536219680546 7.653857028214367 9.87678569241189
Ti 12.252833780178175 9.067497679015506 8.207211867790814
Ti 9.560916189233506 8.126962904005632 8.250420024109019
Ti 11.330168603210256 8.446592568646686 12.21110199330145
Ti 10.48033065124093 10.479564244810707 7.2090561974422185
Ti 12.923805593728702 9.941524110451905 10.74476343318207
Ti 9.45061085048328 7.340410119374149 10.735014017030355
Ti 12.295246492751398 11.498184148825104 8.628432358324034
Ti 10.126433752124546 10.143764998825487 10.121748987079988
Ti 11.774731303904801 12.337911446727235 10.825779305081129
Ti 7.549290509232114 9.028086133994872 10.141648548891744
Ti 9.8941964706934 12.642718588874864 8.68936269750001
Ti 10.715426828024926 10.91943251076597 12.82822192791106
Ti 8.221357494827586 10.395668222698147 7.980388866408339
Ti 8.892445590603065 8.931811607236053 12.574282599791276
Ti 8.025944020018754 10.95615839773079 12.187945281134507
Ti 9.458858793446467 12.766417308864266 11.313143119429895
Ti 7.660752430852329 11.747669889249126 9.871384677528226
