10
Energy = -58.34731643 eV
Ti 11.515574841086256 10.311817498920806 9.530549558348953
Ti 9.805425240094836 9.089811808771477 10.804384931018326
Ti 9.452166941699401 11.5486817528513 10.481407998051026
Ti 11.585336633889654 7.488015977407946 9.866522345619613
Ti 7.384060844366363 10.011783320696901 10.417241939798625
Ti 10.5035001417334 8.337148824752374 8.050072243013213
Ti 8.929450563732408 10.155924183263004 8.32177011885108
Ti 8.205914001018868 7.711708077437032 9.379426265892686
Ti 6.406065049059067 9.104608107681928 8.101283923331506
Ti 8.012241014319416 8.040235719217034 6.847075947075049
