18
Energy = -113.69898848 eV
Ti 11.041208732790123 11.324890066642697 7.828137661171049
Ti 12.620749568515722 11.861044773553381 10.117738497139436
Ti 12.564894227262949 9.453965860136218 9.396485432810978
Ti 10.696047486710349 13.365091421794832 9.70011421775076
Ti 11.347611028120534 6.477509685664623 9.493917640503316
Ti 8.570934274205074 12.42736555716155 8.68082960392241
Ti 10.775003244670906 8.622911503216816 7.913834028185694
Ti 8.440432130256381 9.880053612412926 8.113186491771922
Ti 10.08839801572061 10.795589737863953 10.124458621638304
Ti 11.040755793891977 12.33784245123758 12.166119419788537
Ti 8.934594800041232 7.13950558238025 8.75346934835984
Ti 10.500964294331618 8.386802814122134 10.740444556914087
Ti 7.344272879233521 10.909196334810014 10.393195540688483
Ti 8.65388307926328 12.748548710136747 11.368439192336659
Ti 12.084647541571268 10.052287955503418 12.018240522944671
Ti 9.316358111186872 6.2609939146496005 11.116140445984074
Ti 7.818882537583059 8.588829975914816 10.534468411858983
Ti 9.097239818950218 10.30444760710414 12.477657930536353
