19
Energy = -119.92280702 eV
Ti 12.342060443869833 8.873023388264576 9.217828524117571
Ti 10.489919008340026 10.056335147523232 10.900248474875532
Ti 12.530476734476995 11.40816885459704 9.50925788192591
Ti 10.673658558958543 10.094451771485668 7.65659164766405
Ti 11.468753558274235 7.472025821277379 11.030383135834024
Ti 8.96278618876508 7.770265678967328 11.601276909653334
Ti 11.044151767464434 12.63622356982844 7.6150273973031
Ti 8.033347198231752 9.736817613616315 7.982641715022018
Ti 8.784619650321083 11.825947775545036 6.8308391025685005
Ti 9.703653812007042 8.067619464524064 9.1005111467712
Ti 12.899760913964052 9.643264087346491 11.796534016119052
Ti 8.975609054656442 11.828942190874388 9.323644178327331
Ti 10.790554536800453 8.517204449857285 13.243039884223741
Ti 7.66898425990011 9.551461054536098 10.444735722402424
Ti 8.601182162533885 10.069519158825944 12.872467642442414
Ti 10.946115249106157 13.45187548631092 10.048088026221778
Ti 9.54214868655265 12.4341958792973 12.029408641238826
Ti 12.186418375484012 12.281376372173373 11.9321939108555
Ti 10.992411103457783 10.915890223515094 13.495538040294166
