14
Energy = -87.15265518 eV
Ti 11.525804168645747 7.8768894417147175 9.604666411779037
Ti 11.357935515587227 9.592601847666385 7.637153571141059
Ti 9.32374860780997 7.649442147521618 7.68315591158816
Ti 9.253520790134106 7.034352327455344 10.739603294286146
Ti 11.851621863219254 10.379022487569669 10.159694989183219
Ti 8.993519976141146 10.418884782551102 6.973677772229915
Ti 7.279470156633414 7.411832085486874 9.4513083841632
Ti 7.069539187028154 9.176086235002757 7.731901774450031
Ti 7.835643428827921 9.178098381298943 11.458274086267233
Ti 10.451618501690435 8.99120421707231 11.862266039617648
Ti 9.57099395641379 11.332445430275854 11.218760152718128
Ti 9.33915184207891 9.411084198074617 9.428925259187011
Ti 10.240544878647482 11.87711946840194 8.724071297922004
Ti 7.737672779264047 11.420432139537724 9.11490295025664
