18
Energy = -113.96434284 eV
Ti 10.781531957429644 12.558348775209268 9.640032809786277
Ti 6.645628439302622 7.781699390135569 10.537222944939314
Ti 11.000402862693877 11.193464064585308 7.287213136693471
Ti 9.188511532266398 9.090837986619295 6.863292583018963
Ti 9.03848045379036 6.5113716314922705 10.557585429088517
Ti 11.381342823435618 8.093817569287365 10.513071044830888
Ti 6.853151278606189 10.37251389884374 10.48557359524162
Ti 11.773663617631358 8.757151587412238 7.785951014430911
Ti 8.924904888278641 9.069045620124955 11.94731074438105
Ti 12.652353115121427 10.550744101313958 9.446298175222488
Ti 10.240346462288077 10.167956711656007 9.425984432955625
Ti 7.653134784360275 6.761644922315064 8.197872216458183
Ti 8.236590376295295 11.476822804052265 8.355977478931655
Ti 8.591448095765024 8.70491249078404 9.378287187666746
Ti 11.166672257848159 10.746291077970227 11.70189578426129
Ti 6.490256141713988 9.255555865042096 8.16847257434668
Ti 8.82714066764377 11.70574126871186 11.103688554989132
Ti 10.2435072626741 6.8911472515891115 8.293337309901647
