12
Energy = -71.95194769 eV
Ti 9.375533242170981 9.684292629389349 7.321862060863143
Ti 9.014673894560923 7.015094466690999 6.66857578009999
Ti 7.135238960530144 8.56794941031748 6.4123965196247
Ti 6.751752260855996 10.944843419117696 7.004391728668696
Ti 6.630788950616664 6.320405149908622 7.482454361520282
Ti 10.66236951271523 7.523645632159341 8.440533672700278
Ti 5.454584218916761 8.887816643632556 8.203490751933382
Ti 8.96394931749391 5.537788985062076 8.79569938587869
Ti 7.481165664183389 10.372986741682018 9.135400245008094
Ti 7.894227368876093 7.831486378528689 9.131977879052663
Ti 9.877398279775988 9.4984072729335 9.895378949805199
Ti 9.969212598516137 7.02617753979003 10.718732934057108
