13
Energy = -78.23013836 eV
Ti 10.953863313690297 9.30646207478582 9.158814140667628
Ti 10.671180689450566 6.816561347837471 8.429162949958945
Ti 11.180251512215733 7.861341962847555 11.069558536438992
Ti 10.848579874958968 10.720398564034252 11.103968740694704
Ti 9.209759872514674 9.123376059616591 7.54967863967171
Ti 10.106571596972461 11.68302196790287 8.488876138408303
Ti 8.448136325727026 10.795917543755685 9.972102586511403
Ti 8.858673589203976 7.2628590311934556 9.928073309641366
Ti 7.410384370670218 11.023768661832364 7.685802464345578
Ti 6.866364229893922 8.863887748856683 6.483808362098654
Ti 8.879974173718644 9.036423982084736 11.560982514318452
Ti 6.855022062554389 8.83002515616716 9.1178734866233
Ti 7.8930283562035894 6.857745866860084 7.6330880983958105
