16
Energy = -97.26201952 eV
Ti 11.202812427586188 12.069199280696886 9.868042898082876
Ti 13.736124721310174 11.264863425726775 9.49936300200408
Ti 9.52141228408728 13.896891706906313 10.840714341051283
Ti 12.076140631944448 11.939447148707226 11.85653571229867
Ti 12.559526016830091 9.433753209781162 10.858425117397548
Ti 8.800557488969329 11.664898832908879 9.299639134631262
Ti 8.625506907952984 8.381940896948809 9.170157537122988
Ti 13.796765451472417 8.97668153709835 8.708867023597831
Ti 7.355890939340763 13.031819544278592 11.085155404645086
Ti 8.094178369048668 8.167567681961655 11.771552364524918
Ti 11.41458868345476 10.047524048431049 8.346517048216603
Ti 9.915585059207974 7.002043815791437 11.054687562363627
Ti 9.256300002272217 11.604226995686204 12.056013227916855
Ti 11.34981337479427 7.70520223835141 9.178820568151481
Ti 7.323060529749364 10.258196962021055 10.74339529795532
Ti 10.055915162657907 9.628475330097073 10.754719450925423
