13
Energy = -79.43683617 eV
Ti 12.081127297180824 8.42083280441559 10.528674406176231
Ti 12.798943177131653 10.355735526127594 8.979189935782316
Ti 10.344169731145206 10.417772366377985 9.995644063157506
Ti 10.666780729710046 8.365620878063876 8.355354295516635
Ti 9.798927278720825 12.985624891438805 9.339285986116481
Ti 12.028753265738061 12.6970825132171 10.086518688686965
Ti 8.124879926737973 9.399060658977755 9.023953307980063
Ti 9.5338579251023 7.906885406255982 10.605387650266142
Ti 12.591584166179318 10.79243704469825 11.520839766373326
Ti 10.037387351588386 12.10218341898417 11.88659276842204
Ti 10.60318499449428 9.420654678962139 12.52215204169923
Ti 8.180804170107857 9.89704040787935 11.597636566070564
Ti 7.903979485015677 11.855921369788101 10.190143919433709
