10
Energy = -58.68590213 eV
Ti 12.010029725491318 9.160897622532628 10.32465920390381
Ti 11.59340740529558 10.917882154313844 8.471382828500454
Ti 10.785322186684994 8.571721043712646 8.240732026111383
Ti 9.935700442159883 10.539463247671787 10.28670383215912
Ti 9.46173853845713 7.985841782963788 10.402398718690565
Ti 7.512588077231443 9.753859380154696 10.087630118149592
Ti 8.904203374669276 10.338218588456861 7.905415604382229
Ti 8.381725881639051 7.742010255769734 7.9897261378969535
Ti 6.265398967294572 9.090772762748603 8.006999724453356
Ti 6.661985622587714 7.411433161675279 9.796451805752406
