12
Energy = -71.63908499 eV
Ti 11.254852244571161 12.405073532185863 8.700390494710025
Ti 9.420989854112559 12.859409506187113 9.982151623008251
Ti 10.792568069064352 10.838378445327582 10.818843991384853
Ti 12.058827860155596 10.158074327764915 8.424226627882973
Ti 9.493388329798519 10.527354307514793 8.513848649931525
Ti 8.017366353464762 10.673969049724288 10.790514973283718
Ti 9.352597862632228 8.617373490007367 11.4372117549311
Ti 10.994329739114493 8.277669510760846 9.725666262335249
Ti 7.028488161951585 7.983382001016586 11.013433979880288
Ti 8.01207245068775 8.670585731963339 8.876030964067223
Ti 10.238832198646316 7.995324958996353 7.544425270090343
Ti 8.934387278969051 6.592105541719063 9.77195581166201
