14
Energy = -87.10159875 eV
Ti 8.289236843614415 11.314355169965449 10.862492950688528
Ti 6.775684263048625 10.09806852779383 8.981203258543577
Ti 9.439159095389776 7.190276570771609 10.817164985285576
Ti 9.826490612649888 9.53251556533752 12.05134662541289
Ti 11.693041551482535 8.44590795361899 10.663244267935818
Ti 10.40542713671498 7.6616849700177285 8.056529810355121
Ti 12.369303412576526 9.395483421045322 8.528187169353837
Ti 11.019810473408182 11.186266786229302 9.989196720885882
Ti 10.632965067473275 10.403031874727779 7.157803950295137
Ti 7.4667375117179855 8.767662700251854 11.282033807063753
Ti 9.413868624407517 9.435688973216173 9.43622820189129
Ti 7.694821901190074 7.560820310778401 8.856397841133104
Ti 8.672745667826234 11.669453074086544 8.281420314895904
Ti 8.304820970120348 9.342897233779578 7.040863227879672
