15
Energy = -91.43179263 eV
Ti 9.004289546988092 9.52924804855933 11.241886661326344
Ti 11.634056152234123 10.0698822272005 11.646500941807545
Ti 7.705697497251677 7.146676069371687 11.362041380593093
Ti 10.492948507367673 7.5284281649063045 11.255212259973188
Ti 6.707201776967368 9.032398246638287 9.934282447830984
Ti 8.941465809625807 7.542938172374115 9.0875639186116
Ti 11.118475196935044 9.164138504525809 9.244570650140814
Ti 8.44265255616984 10.528773185520484 8.719909015339356
Ti 12.642279282244019 11.27154976713046 9.70409730074013
Ti 10.2480726621296 11.669219054125124 10.190187898799241
Ti 10.74280795594475 11.265411849810755 7.561474261205966
Ti 8.484441124037698 10.725414008605076 6.148317406164343
Ti 7.198369002160488 8.626205447673465 7.307681572672094
Ti 9.808736019098879 8.86540823812878 6.967595562415841
Ti 6.457011783433303 6.6628140154298325 9.257183594968081
