14
Energy = -84.89405469 eV
Ti 11.840683845449966 10.58384582556664 11.815428784050392
Ti 9.542138909897483 9.43880286452321 12.08885065866665
Ti 11.171151344395527 8.4421324928283 10.269470036240694
Ti 9.78470056750142 11.83794273434765 12.496227254349195
Ti 12.457513210385518 10.345921067139225 9.088186768127809
Ti 12.266309892828552 8.10581117297632 7.953695758371591
Ti 9.956112481815186 7.125394913955166 8.204447483146021
Ti 8.466019803760428 8.600567746629315 9.862093313377072
Ti 7.710583212165122 8.582496053577815 7.353677778541568
Ti 10.205171269989492 9.646077181117752 7.698739164533249
Ti 10.078364630926822 11.18842020751189 9.963787376796207
Ti 7.613555373506884 10.892489444432762 10.998618548807615
Ti 8.009482526146703 10.934437898366939 8.381508853167192
Ti 6.137600675491262 9.515048141286696 9.064655966084281
