13
Energy = -80.25291684 eV
Ti 10.459333757271178 11.179784811656976 8.873318854297336
Ti 10.005673454659242 9.325271879836116 10.773656811961322
Ti 8.82135008021241 11.615264136890618 11.0361174171392
Ti 12.74328043266302 12.481503143024328 9.249194348175347
Ti 14.006999165583991 11.467011279659053 11.590549689786062
Ti 12.367941364779261 11.837051637779458 13.66072315284501
Ti 11.39709634411963 11.503237227394282 11.261613910641271
Ti 10.216776231298187 13.309401981735427 12.7615944000569
Ti 12.484440661242912 9.638055072336298 9.815044182845986
Ti 9.944318170410076 10.746853143295393 13.27966606793781
Ti 12.51824249747588 9.441679779482724 12.392041462685121
Ti 10.502467689092198 13.633739635010834 10.06020421612039
Ti 12.6740386922375 13.719827339593294 11.644853873212874
