12
Energy = -71.77648756 eV
Ti 10.545428142518833 8.359458719278736 8.917501488038909
Ti 10.487146283872463 10.012974277119433 7.085280608084279
Ti 11.006937381886276 10.623156118366506 9.780638631154424
Ti 9.3040997855906 7.457678459360202 6.991429234021322
Ti 10.146994817214617 8.455001565219808 11.347733395500875
Ti 9.087647890228721 6.499598715070829 9.62886989790574
Ti 8.801175498745128 10.643551427249166 11.114041165145817
Ti 9.008206226369095 11.602020551204044 8.478229819509094
Ti 7.959434888557001 9.647068813743212 6.751880745225028
Ti 7.6134767856158625 8.094855021814062 11.015714344085405
Ti 7.094930564720452 7.477714250020147 8.320628719143777
Ti 7.559052751480056 9.741453098353093 9.182582968984697
