15
Energy = -94.40574226 eV
Ti 12.526139984384429 10.33979508529975 8.678570232600354
Ti 9.745613215519228 9.964645653475875 8.752599893605018
Ti 11.201007410613247 12.451949181561687 8.60440064957656
Ti 8.980096899478148 12.573389653809194 9.752939511289917
Ti 13.48526639235374 9.864676516187414 11.12816828031687
Ti 13.146482909662865 12.311574346154687 10.38500820641906
Ti 11.685953080823632 8.345605613524354 9.96349455830801
Ti 10.86122666861216 10.847952190686067 10.862664205245991
Ti 11.04805274748847 13.612529653861863 11.03909567666141
Ti 8.145291693946472 10.57874122926089 11.026193386501172
Ti 9.496347520081674 8.461949904223875 11.144921224202378
Ti 9.235831273558146 12.526305664720612 12.454826790879393
Ti 11.63903478627984 8.835271382078684 12.625641763847108
Ti 11.858723900102694 11.736926795813167 12.939982919301587
Ti 9.552366933509036 10.156122545755796 13.24892811765893
