12
Energy = -71.98935731 eV
Ti 11.263012703452013 9.003614872422457 7.6242554678672745
Ti 11.377147755172254 7.952303630477742 9.971501189132324
Ti 7.851398092619807 11.287708543639283 9.213958241111563
Ti 10.72123404866346 10.554887052527201 9.811700359282426
Ti 9.742589399831981 11.220757788277192 7.460419901142811
Ti 9.626811319928125 12.908849974327621 9.412011189686677
Ti 8.979144353939878 7.082953994437538 10.561985629328557
Ti 7.662107684024402 9.355323876821137 10.959158833733488
Ti 10.271706776783695 6.681179309468673 8.2525221474336
Ti 9.991259102770563 9.012505341019446 11.89290699107673
Ti 8.878058611737123 8.863613516877077 8.645253930016073
Ti 9.001554140229656 11.442326088857586 11.560350109341703
