10
Energy = -58.67861424 eV
Ti 10.758616053558658 8.42477052540889 8.554582239369743
Ti 8.994973958918031 9.218457888872866 6.575591718403038
Ti 11.779815081931421 8.295345577675814 11.118346406774428
Ti 10.06837427022272 9.839449942614069 12.484259374875991
Ti 9.344012684815207 8.185087358740727 10.82381502970314
Ti 10.973362090707138 10.461459703299465 10.288614338420672
Ti 7.2791885332292585 10.765937427052824 7.941143500860959
Ti 8.088458326272052 8.601258341590125 8.773929111232698
Ti 9.715855711969139 10.877868203779938 8.238630135487497
Ti 8.3056398196919 10.638661562280939 10.509384676187485
