18
Energy = -111.56761003 eV
Ti 10.313840178616996 13.26344164538012 9.548132577017771
Ti 13.66588393292971 9.611684389342253 9.809279841549323
Ti 12.40922020556244 14.425068652341647 10.876931641818452
Ti 11.058170702437735 10.511056466581476 8.86885656938126
Ti 12.719098007958708 12.210959728086944 9.53274100284204
Ti 12.385651248931556 7.494672310772566 12.031592864627621
Ti 10.341047697985472 9.110603515011018 12.61720161383365
Ti 8.393487871213358 11.388309658890272 9.308819808456596
Ti 12.514723112615435 10.201523647882604 11.650342040411147
Ti 14.272866985751529 12.312446626475326 11.327302325972044
Ti 12.04466515848693 12.648361489324468 12.499438066601462
Ti 7.789036694278286 9.949240510375706 11.654259827098096
Ti 9.082506118158694 9.00834714106553 9.839853587014705
Ti 9.506772970808886 7.1857413486234725 11.744886150209183
Ti 11.330718767667584 8.11712877273836 10.021605215700776
Ti 10.025392131623546 11.315152948149992 11.364824435425442
Ti 9.954615944063272 14.147737803995417 12.05240994170191
Ti 8.159147798336342 13.10034839011733 11.122903181799277
