10
Energy = -58.51658034 eV
Ti 8.588425087076487 10.353898992967661 8.626576074491078
Ti 6.658098490428869 9.575510161968378 7.313413403642896
Ti 6.530553525434645 9.65020214578903 9.948868333754614
Ti 9.054845546972263 8.401277543280026 6.7035049023330755
Ti 8.707510657518847 9.366929242140182 10.945740034283135
Ti 6.560401261828852 7.326191929534192 6.745054324414929
Ti 10.511566607632956 8.779838493544739 9.030012753808727
Ti 8.038761970800381 7.6550669982206525 8.962278365742861
Ti 10.314669740405245 6.505200730277608 8.153854667747561
Ti 8.458780404977686 5.809912556375156 6.964062761829811
