10
Energy = -59.02669264 eV
Ti 10.989760864873425 8.709533119411628 10.544110810166838
Ti 8.709368460030843 7.517523450931703 10.913303525539103
Ti 8.807911474154336 9.679374092403616 9.493242667557153
Ti 11.07595163530291 9.639236864624772 8.134697229224871
Ti 6.708703370834553 9.59207451089145 7.7471408337562275
Ti 6.464137021227481 8.773723436639523 10.202445529001823
Ti 8.885640299589792 11.104012055609099 7.212656042353091
Ti 7.5523761518756904 7.289232203750244 8.522429751665777
Ti 8.967126495285687 8.704258858629037 6.832989505987926
Ti 10.133297262727915 7.28530444301169 8.691257140649942
