22
Energy = -138.10468067 eV
Ti 12.395120301955824 14.5868925703624 10.861541921758432
Ti 12.202803076683928 12.835502900344641 8.869100952501956
Ti 14.163204345841475 12.86460416251274 10.969067845173171
Ti 15.230244188791776 12.58661411251379 13.46475720653627
Ti 14.046924405005097 10.502263297156851 12.270325139638201
Ti 13.703115791630786 10.749646537277332 9.724039976612392
Ti 13.439275956377308 14.570179124624245 13.080418704068876
Ti 10.21475208871051 14.187235656113211 10.121902745315852
Ti 11.617420974604945 10.326841059607643 8.631853599710752
Ti 9.483477490844784 11.909078052276072 9.08396326827207
Ti 11.254229318838446 11.563802016851602 11.147017933000644
Ti 12.22335415265966 8.852017047654744 10.847224658750546
Ti 10.587114118881429 14.184131737562412 12.731604286883995
Ti 12.464886101392866 12.501266346345977 13.652564086771395
Ti 9.79718740152556 9.272323573735203 9.82153518142863
Ti 8.713331647410808 12.92679268472721 11.546195312230155
Ti 14.416461937035132 11.1370459197756 14.939264667178904
Ti 9.784672464818952 11.554357436965232 13.561940579992967
Ti 12.102494775467749 10.067792623797695 13.55606097794677
Ti 8.345376205824033 10.653177484576451 11.324081766317398
Ti 10.117023038222435 9.101030064975381 12.434720156001092
Ti 8.226507608154513 7.778019032474944 11.450490297803661
