20
Energy = -126.80881736 eV
Ti 10.257793669918513 11.175611334935404 7.568926319057523
Ti 11.498540833995714 13.248755324876422 8.785369833896842
Ti 11.519852232874399 8.832149855235475 8.876306337300337
Ti 12.717473789125293 11.101632948369426 8.576663175969337
Ti 9.593284841933837 7.713575255135619 10.37204412358418
Ti 7.808827101449812 11.19630971166801 8.987207598343625
Ti 9.146894998202747 13.288182675895841 9.058649372945723
Ti 8.884989338902336 9.121049947910368 8.656994103537365
Ti 10.407590406409522 11.043834287243325 10.24881403284072
Ti 12.136991176022468 7.595042574598126 11.147544716612844
Ti 13.250608274055233 9.872555761455168 10.731634193175436
Ti 12.935298713973033 12.53772098951205 10.682746183346246
Ti 10.507111188625283 13.53807903675234 11.391692280990291
Ti 11.479720422214536 9.982797680321937 14.724582968775648
Ti 8.03652471682458 9.739612631430438 11.185333941755667
Ti 8.108691092248103 12.394116440743485 11.192052676272763
Ti 12.041271329718938 11.577412760732757 12.760295217175576
Ti 13.123132167933809 9.146853201855805 13.274387899584177
Ti 9.575043916196266 11.399550928600757 12.997867643243865
Ti 10.57242311686141 9.097219980212643 12.38295070907737
