25
Energy = -161.43058373 eV
Ti 11.786124586616205 10.708260938422946 7.119663301759132
Ti 9.461791688651672 10.067223108454018 7.912180206264651
Ti 12.872013460794816 12.60897400938409 8.159932021852132
Ti 13.7137962025645 10.05349709159921 8.958461352488136
Ti 9.388128044081435 8.642841624570512 10.02333046473291
Ti 10.116067336741624 12.628879431497278 8.191217488485105
Ti 11.51225187480707 8.553352802799516 8.412853071623429
Ti 11.576971112117562 13.810564622671787 10.188136850517031
Ti 13.86161132732533 12.37381139050755 10.427491575592756
Ti 8.131228859851046 11.14915011732234 9.90171871000165
Ti 11.47024720487542 10.969397667800871 9.768421409029903
Ti 11.987506874964426 8.435486110995182 10.954775518267734
Ti 9.036443548640289 13.34659947281138 10.53744740247493
Ti 13.595971881288525 10.300311993485082 11.860471227383739
Ti 10.113825144438971 11.012019541168197 11.891528658903974
Ti 7.785904999383419 9.54735717923889 11.94486365089482
Ti 9.90176155881309 8.218577097825005 12.49091114291083
Ti 12.360421143883778 12.649476964346343 12.570742725872625
Ti 7.987438299179191 12.12517410054976 12.731338750076954
Ti 14.980870475454818 12.30931346214123 13.07750255054569
Ti 11.737052225436216 9.693226931327837 13.635388578391579
Ti 10.04447033073579 13.84967694602864 12.70239895120342
Ti 9.097489037714217 10.008135095380654 14.129160621064871
Ti 13.57598919565767 11.378808504932133 14.511697318857186
Ti 10.404800512810148 12.060060721567096 14.398543377632722
