29
Energy = -187.86044438 eV
Ti 13.634654301632493 17.423940003367463 14.307677401095706
Ti 13.502313974520401 16.301154879401796 11.341457378350373
Ti 15.232697753291703 15.386199156231283 13.221241302562657
Ti 11.787386138292351 16.313446570577153 15.823692345182106
Ti 14.122523150151517 15.350050971476874 15.724431845636346
Ti 12.462179181440037 15.371307773918664 13.603135374535182
Ti 15.283284353266044 14.909567950075159 10.565260269701962
Ti 11.176716625877864 15.336872464301049 11.271306837611828
Ti 13.31538676441715 13.373611447345027 11.815767267631713
Ti 14.56617651081951 13.087039421360947 14.469485065204475
Ti 12.168906364858005 13.487660592991807 15.545102911975697
Ti 12.888908399612104 14.484268097615661 9.378793368660773
Ti 15.977125295162086 12.817885558668992 12.031641062906518
Ti 14.809932268596565 12.693490488834366 9.580241383740084
Ti 10.685172903315234 12.972280019228624 10.644584500540219
Ti 14.979502142391626 10.917054450568036 13.46734923665524
Ti 12.402838719877412 11.651654913127619 9.653242372200813
Ti 14.583141747712174 10.61670842012039 11.014941100900604
Ti 11.714949640259343 10.923738917357902 12.426627129927436
Ti 10.641652808521542 13.565585395682412 13.44569801366958
Ti 9.068507296665596 11.923773288583911 12.344683986074262
Ti 12.90251348294157 10.953837371187815 14.982242750907389
Ti 10.022656031259062 10.124610126592898 10.493639186138404
Ti 13.484499987035482 8.941893056485045 12.98583804533347
Ti 12.544182528297148 9.183203441770377 10.387298564730871
Ti 10.1114584558474 11.397389799010206 14.760075846481858
Ti 11.274838105463953 9.066421866490336 14.528076849518529
Ti 9.23100551041768 9.58291773030587 13.029185472432943
Ti 11.081883449466577 8.226652680284202 12.104717652429272
