24
Energy = -154.12372966 eV
Ti 9.964141935724701 7.487891555656304 6.921538867213832
Ti 8.641697710056325 7.832997469682057 9.336855714945012
Ti 8.095560896579487 9.905546630337904 7.598806195322697
Ti 10.617128368943748 9.515290907475693 8.022333879496571
Ti 11.31117183798061 7.124919822263979 9.167934424766727
Ti 12.62334836538217 8.285023041337553 7.181369242083235
Ti 6.4338709516254955 9.496631937826074 9.501841302416198
Ti 8.68947971626607 10.494901153073554 10.240390379797239
Ti 7.067365712326926 12.01557328166732 8.825394182294215
Ti 10.201287172974695 7.894431439764275 11.448287859114338
Ti 7.548247066771171 9.004900806060812 11.987773524756768
Ti 12.769383256127135 7.487648702596074 11.471892358755428
Ti 12.481228428548064 11.336092740295102 8.318541987561595
Ti 6.517738419238515 11.463475502096916 11.271154636759048
Ti 11.091765990607472 10.366543755161983 10.483057307564533
Ti 9.654643961352889 12.176660885527731 8.201594998826907
Ti 13.32337818315998 9.200285587222037 9.728788690631122
Ti 12.524272687223217 9.811123613401914 12.517346168805094
Ti 8.741194948278757 13.09330727994133 10.680998583175327
Ti 9.979589034190676 9.677286700392417 13.109307946038893
Ti 13.236866502782837 11.693065796865923 10.864421507180785
Ti 10.936272552538158 12.186616201260843 12.415579328564
Ti 11.289807251146824 13.073113198270919 9.949945541682053
Ti 8.381121985019307 11.4738338808844 12.859386303125076
