23
Energy = -148.16504332 eV
Ti 12.466048630896053 11.85429310518883 12.680042607631744
Ti 10.333802867193558 10.21980409800014 13.25806606955686
Ti 12.644337466271622 9.331050976628752 11.952129387579888
Ti 10.18547084548025 12.913297194931292 12.497642764710443
Ti 11.865823923809982 13.299342080295158 10.298104102780835
Ti 13.735281814824624 11.193962814749602 10.512006462336714
Ti 10.915454193389374 11.078686750928481 10.772232035304969
Ti 8.060378741362584 11.489821122524997 12.046438924986223
Ti 10.441209950545737 7.831090858059565 11.71363838255296
Ti 12.912769754854278 11.608952739678207 8.28383753443107
Ti 9.201996426505618 13.129374727443961 10.184227159937102
Ti 8.181031473566938 8.851751424780598 12.762084962249581
Ti 11.70254428871045 9.225199956816567 9.329091492497081
Ti 11.852677440707787 9.605472518579562 6.973266502784152
Ti 8.99247294009343 9.545359380661806 10.29710511925452
Ti 10.376745058244195 11.841139331643793 8.118018069291466
Ti 14.02322835705096 9.313135029608668 8.627704489195319
Ti 7.629613254905663 11.305760950677207 9.082523269598006
Ti 6.490409864933256 9.549254516582584 10.92782311502806
Ti 9.730115216291413 7.4500806440961584 8.854381645562908
Ti 7.928058126022687 7.240869619495053 10.821312522021277
Ti 9.17327409345447 9.705322407805452 7.488991345432704
Ti 7.274027122036925 8.533749601975707 8.63610388642798
