20
Energy = -126.51556221 eV
Ti 11.459460169932015 10.581296126429903 7.765840800126962
Ti 12.87594680372355 9.125618962293828 9.222391185726654
Ti 7.4069930833085875 8.60827649025063 9.150591135609863
Ti 8.883812186958814 10.898960495826044 9.184741604570304
Ti 10.332453777521508 8.671502364120958 9.012088094143321
Ti 13.425310908843803 11.67073858119036 9.42041865989295
Ti 11.067926814015273 12.759695764868217 8.445991792948329
Ti 12.004812118812737 13.720740383310725 10.469907353953273
Ti 6.560606311867751 10.074202947058641 10.454828369576918
Ti 9.504613982859192 13.37160375490017 10.338543451114884
Ti 9.026839786512065 9.10904493507433 11.291335830387148
Ti 11.153477051808702 10.923148449703747 10.871322818342982
Ti 11.682572133659004 7.840063741677138 11.001233274628996
Ti 13.335928983164875 12.400548531901427 11.967064287464876
Ti 10.741562321055444 13.067045010379719 12.721765945579513
Ti 8.461946746644859 11.69579749005109 11.7173154066935
Ti 13.584194594738507 9.779983728546856 11.647028240789622
Ti 12.231878088070271 11.049184641531479 13.615272206937778
Ti 9.731353242030703 10.685014919105166 13.499800590578072
Ti 11.395391394011106 8.83461318131836 13.06959945047272
