21
Energy = -132.4195662 eV
Ti 8.06800132972448 9.402513433342763 8.49932952188156
Ti 7.83032127606576 9.314405005861364 12.685168646830169
Ti 6.623747568035804 8.913406477813014 10.507485095167423
Ti 7.258001187293123 11.358874614778907 10.320784893382637
Ti 8.604920437508564 7.3500071735388355 10.309727490553346
Ti 9.463705293578528 11.651121160370195 8.50194649313921
Ti 9.11190615422841 13.148315474017057 10.624666893214984
Ti 10.140258017541472 10.111555632990095 6.488878746910508
Ti 9.566716941095748 9.901172077050083 10.752557324017808
Ti 8.642052779910458 11.801494790459637 12.612098910486749
Ti 11.716698109033425 12.014614206553002 7.001323595424087
Ti 10.530456030232106 8.4424240382302 8.490189811646706
Ti 10.297836088750742 10.139500070153018 13.368040698964506
Ti 12.53715551061552 9.537549640630603 6.995024144270118
Ti 11.260042962294847 11.934029298446859 11.625192116171219
Ti 9.977503351844707 7.819091055351239 12.604520236525248
Ti 11.163056388754448 7.037797214597054 10.612192866234098
Ti 11.30370711427744 13.219341794899256 9.311500582315832
Ti 12.34808275805674 10.8406316725804 9.294671515965094
Ti 12.144756464382294 9.297460637042859 11.618191948683075
Ti 12.944802008809644 8.310568492763297 9.297750414491173
