26
Energy = -169.61610522 eV
Ti 12.064020009375989 10.458736230112834 7.636601367721065
Ti 14.4216660650541 9.332959875118247 11.475521528465224
Ti 14.162467838292082 10.706883230519086 9.276480678913005
Ti 14.073543018155128 12.026390508315785 11.70902715119629
Ti 12.558376473605694 12.745454041481318 9.214809130955915
Ti 11.818015089832087 13.624058155735131 11.361623768755145
Ti 10.462569440690501 12.780217108132337 7.54945643504786
Ti 12.894159099064188 10.184113022651598 13.668522477330423
Ti 9.600230414049186 13.611342157628346 10.098019790845097
Ti 12.229976064947056 12.74885324986842 13.474130714370672
Ti 10.257373275874322 10.989558131686877 9.458288397141246
Ti 12.23512031854453 10.41276599027771 11.05960263841379
Ti 9.589161085730517 13.41046719822513 13.012816208848935
Ti 10.152130871785793 11.164799554641942 12.09077754113275
Ti 9.30709634089158 10.479738962697764 7.115758196652752
Ti 12.709719026413465 8.390532471374264 9.505774117312498
Ti 8.315993577631374 11.096219535627108 13.824084595582926
Ti 10.662591949976534 11.447500890841585 14.748156483746124
Ti 12.341410346343425 7.979648632024577 12.172131467420677
Ti 8.098654607106209 12.236094116860949 8.581431376604844
Ti 10.285113767619281 8.53310495607329 8.29849133446248
Ti 8.108156663418109 9.348230263283543 12.041112007933531
Ti 7.7475115459727135 11.922109512413797 11.244959393744523
Ti 8.042827990678388 9.633071396562126 9.430041295988635
Ti 10.324427512585453 9.02024687709703 13.60031162897158
Ti 10.097000524221693 8.213341364701579 10.834594908798014
