26
Energy = -169.78652108 eV
Ti 13.70975494495211 12.629716133456204 10.242271051690283
Ti 13.54239347085065 10.61030742879963 8.66578356190636
Ti 13.504413043300422 9.983341912152857 11.293443840421208
Ti 12.196699699958373 12.791246343750466 8.114036492477421
Ti 12.607212124133534 12.331699018416293 12.359327044164033
Ti 11.232623947840459 13.85662326826978 10.508904218647269
Ti 11.35399722688357 11.424184563694702 10.127000486498913
Ti 11.516741292061873 10.076210767314766 13.305852057405707
Ti 11.095177052098558 10.353057503443255 7.559119815042454
Ti 12.362178559576261 8.342405254332869 9.359489860950413
Ti 10.196033256554639 12.382923640171493 12.575541809722749
Ti 9.512154899187193 12.230455359149044 8.247554762361549
Ti 12.21561766429775 7.721117151926468 11.945378195182249
Ti 10.513915104920345 9.337524455437759 11.034384684883058
Ti 10.250599496060586 7.953791502297758 7.919033129585599
Ti 8.535222818527831 12.407639995434717 10.608861134410136
Ti 9.816530248339125 7.934874343468892 13.014767632845818
Ti 8.75528510984735 9.880628106350967 9.439771355148658
Ti 8.660343160150491 10.314832764540661 12.73310423193871
Ti 10.083180145463404 6.85347294062059 10.436339360474108
Ti 6.910954354983507 11.485642361836268 8.6233322937985
Ti 8.051694204118656 7.352667134276095 8.758830648017137
Ti 8.166045215923054 9.539438047891894 7.07101028783671
Ti 6.629201024500079 10.549757855094752 11.057479933811782
Ti 7.706237935115344 8.089360008723274 11.364102953188336
Ti 6.293043448909541 8.98433158770396 9.05252860614554
