29
Energy = -188.80725601 eV
Ti 13.261029555859928 11.135518137170902 14.765155353099836
Ti 14.094961162055583 9.059881092845085 13.164050280063867
Ti 14.878304231886585 10.35366266110423 10.762603835582773
Ti 14.87469868280739 11.795432637384208 12.984798728085607
Ti 13.34555987941893 8.276032978273014 10.724576862290949
Ti 10.814906877996966 11.641162197297293 14.661540912171251
Ti 11.551491266191855 9.257140655906422 14.376110310073358
Ti 12.623966757041602 10.769720209457365 12.156303042180744
Ti 12.540447652532064 13.232779493129776 13.261790888792978
Ti 8.980123172022 9.93228984386969 13.67911046518023
Ti 11.195005693188516 8.189215408834725 12.242700537646133
Ti 13.801194295531792 12.813140672238635 10.852610597939774
Ti 12.491734507435435 10.924467894224899 9.447525724748296
Ti 13.447430944754663 9.061037170908298 8.304402705735459
Ti 11.014177440537688 8.494186950044636 9.566611190235207
Ti 9.276850150297149 12.84487456772209 13.231619066051504
Ti 9.640483411388464 11.32651304022993 9.46370148883362
Ti 11.330170834529943 12.625425036632782 7.769284668040355
Ti 10.139948225715997 10.804439139595504 11.896710643946149
Ti 8.629011830415294 11.621455811663624 7.20113672145657
Ti 10.993120025448729 10.104690197067306 7.31537762059492
Ti 11.226513920359045 13.244645560704974 10.670305838559997
Ti 8.495897168938274 8.851758986604159 10.875270887331705
Ti 8.59153658125011 13.651079162704805 11.025508068717599
Ti 7.19982049913353 12.734396297702588 9.232878967499877
Ti 8.85619039176494 9.015992926940655 8.14586750059536
Ti 9.410119900208164 13.904110610566681 8.625695144628551
Ti 7.457625673270025 11.308806850742739 11.654906013735037
Ti 7.101424204725069 10.295535940304031 9.18967484157945
