23
Energy = -149.18820708 eV
Ti 13.083924887654904 9.980881999110338 11.34355438069724
Ti 13.052381739353413 9.00516377568495 8.964262378510087
Ti 12.11026360060698 12.45024973949305 11.572170175902086
Ti 11.900223953120557 10.74423220973162 13.568592355837309
Ti 13.236912851637637 11.701397434108983 8.964013209157752
Ti 11.55977476097813 8.400093665068024 13.08588767042616
Ti 11.275493645486167 13.517521184985116 9.37849105678505
Ti 11.571517048719983 7.789254728889171 10.645387360846552
Ti 10.033968271631796 12.276946407644807 13.435185327226698
Ti 11.0868032156357 12.35606380788904 7.195080640176406
Ti 10.89665853949128 10.754101411850224 9.296417753829973
Ti 10.775523475761224 8.143257080241366 8.16283841208403
Ti 8.969664833056806 12.719921286967582 8.58260486670033
Ti 9.363701259844387 7.559984581714274 12.09511603489937
Ti 9.478662281002718 13.114593866754932 11.133343580032786
Ti 11.989675184596662 10.061613562627057 6.984749473182228
Ti 8.71220110710661 8.483111565238081 9.548157244056444
Ti 9.30786421305033 9.693875337944766 13.93600222408787
Ti 9.236561721720639 10.269710525124479 7.390028759632896
Ti 7.545240855139142 9.197483315468647 11.754593028087228
Ti 7.780051900758064 10.84435110329628 9.760009667768406
Ti 10.072485718431444 10.201277891983311 11.599129216809201
Ti 7.793450289088355 11.553285961754826 12.4513998336629
