27
Energy = -174.45948603 eV
Ti 10.271122861827156 12.930506592763177 7.3655905291396015
Ti 11.518521455502487 14.11730392171913 9.109057741768611
Ti 13.698285252478131 13.354564508537445 10.464661463583424
Ti 12.60260028115667 11.932350609079947 8.244611267303135
Ti 10.558139438316344 10.390155727728935 7.531150502472194
Ti 9.617557596831283 12.445053562388463 9.830277589323579
Ti 10.94817630594339 14.179247666132415 11.67237838277075
Ti 12.16817214282118 11.467794203381478 11.033843187490055
Ti 12.518983919609337 9.266612495929309 8.472022838452412
Ti 14.269829928314188 10.495360008724898 10.136750111457202
Ti 10.266355403581155 9.701420948915324 10.361446311949187
Ti 8.498438043350134 13.258128006783473 12.320242251706386
Ti 8.34934246880943 10.35335655155907 8.55031111882001
Ti 10.227417751614109 7.907488362142298 8.642012339077091
Ti 14.389527265061533 11.753426229532325 12.510333595244
Ti 13.475230982974558 9.441448329864633 12.59390536413709
Ti 8.672011407614766 11.005107866165305 13.925761499683519
Ti 10.279960967177006 13.308625747814457 14.195186947825285
Ti 7.68816957037194 10.84332120641652 11.282380711336536
Ti 12.46130452340239 8.099570755065916 10.6271477317323
Ti 10.380323751034833 11.53553244769836 12.417308382797662
Ti 7.981415227187654 8.356884386284129 10.143162860596576
Ti 12.741880045202823 13.514465433502984 13.105982538047673
Ti 11.103877174899374 8.839665472797844 13.107023673916514
Ti 8.54805306345496 8.7631527979338 12.569173837741845
Ti 12.354661472455792 11.23965333309544 14.23549034153963
Ti 10.074673524173095 7.1669677554662385 11.234941829271573
