28
Energy = -162.1554143 eV
Ti 9.758122251904972 11.956751810551218 10.544069919792335
Ti 15.47953423124908 21.04715420604272 14.939924719094206
Ti 14.684250019209209 14.381582114486646 14.866588800567431
Ti 10.802793135400176 13.887333027004214 12.807878564626366
Ti 12.952150537652342 13.072775434504544 16.54629843236804
Ti 13.103447465176888 9.460574614723425 12.708416322896225
Ti 15.192340875714423 11.987352724279974 15.808353645485168
Ti 13.259964028557384 12.243595573541041 13.941577200893585
Ti 17.29645704712431 17.590076384370814 20.408451845674698
Ti 15.39488092132398 14.302416121113955 17.632810242244982
Ti 16.26799078280156 21.15286472052568 11.847349233229526
Ti 17.034937272222404 21.267844797418547 10.027967664056554
Ti 15.575312275602368 20.698138578376987 16.90867793246692
Ti 13.415081755782888 14.5053858529471 12.407369110862705
Ti 11.028769754893736 9.612854521121786 10.641566978021864
Ti 13.529558621061843 9.700395226743758 10.095932338671728
Ti 15.413798581584294 10.29688140945765 11.71064006070713
Ti 12.707421055022747 10.508553943727726 15.559197921255455
Ti 11.623994592246714 13.781960496764142 10.317538152179837
Ti 17.013490641211586 15.439137977513058 19.227479963519492
Ti 11.197864598199613 11.31933303342918 12.558968183754274
Ti 15.105531976001926 10.126053351596228 14.230476109966283
Ti 16.43869586249941 19.05415575835593 19.4020202531986
Ti 15.718496291447321 12.624014401249799 13.148107330160103
Ti 10.842728125472807 12.463894326932294 15.165957369920221
Ti 12.138103566462629 14.737115592442015 14.775322634295282
Ti 13.446068441077282 12.07785681820753 11.102445238413866
Ti 11.777906754787136 11.519211373232856 9.116504871892298
