27
Energy = -176.37867891 eV
Ti 10.76716165172514 8.43279665355798 13.156523062619613
Ti 9.39552009477938 10.683031835824355 13.600954023703077
Ti 12.995683869494057 8.643076093689414 11.6380412649156
Ti 11.901186850698064 10.838470902350105 12.648248606291476
Ti 13.863399272923068 11.236506444288095 10.972559749414101
Ti 10.584145251307081 6.893701611127654 10.93048105856058
Ti 8.292338443853648 8.43719400500616 12.138860160138979
Ti 10.534876062125495 13.088713005955205 12.756062425611015
Ti 8.080786453081902 13.011246563575124 12.95669478755873
Ti 14.490004893189182 9.38195856788899 9.440016063038442
Ti 7.018265326146446 10.712625074065876 12.547897270801691
Ti 9.20196630663435 11.55771337389509 10.955350038925719
Ti 12.758447441131327 7.433730791293323 9.423828340481942
Ti 10.667024732100105 7.955914954597162 8.084077146443578
Ti 13.127179774479297 8.980134202703718 7.360856389296065
Ti 10.216252342230733 9.243512722772595 10.720217867046342
Ti 6.699281250339077 12.607810325925355 10.853225450873147
Ti 8.404280481634089 7.746999976613543 9.553413286634965
Ti 11.93718084704259 10.19660534364076 9.433108188069903
Ti 9.064295608902214 14.026606321783863 10.571325250536665
Ti 13.41960633946835 11.603047028807303 8.185659472950645
Ti 7.061706794548523 10.00616324244915 10.04476182767081
Ti 11.774309063041333 12.810797550222699 10.525571811979182
Ti 11.178857286260772 10.443293812735378 6.877284195730745
Ti 8.930422953916445 9.974704644030666 8.107188789343478
Ti 7.880217922453057 12.315494600654038 8.710586180392504
Ti 10.430371864969807 12.412919529021345 8.481976469446543
