25
Energy = -162.78380338 eV
Ti 10.955620602432514 10.541688107989899 13.604969759116639
Ti 12.463909483981794 9.454848952132643 11.56273154407684
Ti 11.201612620056073 12.175960729169292 11.324636860580874
Ti 10.758355927179588 13.04496525612274 8.845787909154028
Ti 8.535075883094885 12.891976622854012 10.542826451681949
Ti 13.11614443646237 8.253862664246627 9.309498849716817
Ti 8.888601220113156 11.877204736159884 12.881938936927833
Ti 10.631006061900557 8.032011542445321 13.046730697569426
Ti 8.510668190895894 9.389306908881801 13.537785269437606
Ti 11.172366613432406 6.921946824585499 10.80613874405981
Ti 12.380052190262452 10.917241848061023 9.106373014510172
Ti 10.595764676345357 8.809671789195132 9.169474571069244
Ti 8.443879913475588 7.658912497710485 11.330854792149033
Ti 12.133921901139361 9.073459008231872 7.048504840683346
Ti 9.232960342661974 10.922932454988954 9.061593324994245
Ti 10.54233501250511 11.179682347709122 6.842075717222312
Ti 11.428890888991642 6.750934645719448 7.998195184661185
Ti 8.501186448273616 12.916110166942818 7.717783670712162
Ti 9.819664218800952 9.916446280357034 11.40867947530573
Ti 7.176429430411372 10.39439420802043 11.327929343559097
Ti 9.088857691781365 6.674983832151666 8.950074808078078
Ti 9.46393601388089 8.432253007681046 6.872819322094649
Ti 6.710138416958556 11.482388163765144 8.96995132127127
Ti 7.867217123206951 10.54585051143934 6.839357629025727
Ti 7.452006140731837 8.811568342414743 8.963889411317766
