22
Energy = -141.76755118 eV
Ti 11.093056617137295 8.592196821164903 9.901157346308649
Ti 11.3644536794082 10.964242765210768 8.269442853636404
Ti 12.321705191415127 11.00373678626186 10.68030701360639
Ti 12.262568190091732 13.214800181273928 14.101702701120699
Ti 10.599994458646652 14.492807827408816 12.113653776169933
Ti 14.541527863154485 12.696421794483486 10.690715413275068
Ti 13.855323095616976 11.486922147315 8.60928777298543
Ti 11.533288636699968 10.537489560928933 14.233347470538604
Ti 8.094529188654002 10.997701518421128 11.4413663323981
Ti 9.991094591345759 9.171111608038123 12.268011807832696
Ti 13.844372879386833 11.361980105498581 13.002092430696113
Ti 9.41256821114551 10.203987356197317 9.751107280347393
Ti 12.144245366917989 13.494247151547738 9.61061888784555
Ti 10.611595711121556 11.904452359752282 12.23254543781987
Ti 12.722926099464893 8.891196363902559 12.1248481310783
Ti 8.82132624976861 10.869404065002662 13.886687589018182
Ti 10.006409695985852 13.015459562037135 14.51923789952224
Ti 13.08487768761316 13.852604378776723 12.018789260945246
Ti 14.825304536089735 10.162945803755113 10.883272993387715
Ti 9.503566583375788 12.806780470430171 9.92526413866136
Ti 8.381247552895841 13.254680001721223 12.482541132088128
Ti 13.257682399059384 9.02376498907561 9.255500727800653
