25
Energy = -162.31527987 eV
Ti 6.398071422491494 10.46154093101372 12.285290214233296
Ti 7.542221000764677 8.177146962053484 12.625557784325975
Ti 6.253534739356746 8.596062735940563 10.356010584907136
Ti 8.461368784618651 7.15687494991438 10.441471912353418
Ti 6.531364448003987 11.15261824688518 9.68739512950715
Ti 7.976078046746608 12.34545305376579 11.607577888099112
Ti 8.403537929961479 9.884314982695928 10.778711965396527
Ti 8.472191789036941 9.0377181838419 8.348689204865526
Ti 10.174429780516075 7.817630291678466 12.480804945111672
Ti 9.077700458719685 10.328258638085904 13.332058771381138
Ti 10.799298883694243 9.70823709778038 10.809530163302783
Ti 10.868300208331656 7.363836056315568 9.636526704526936
Ti 10.769101510100993 8.262053033236409 7.1149433094488215
Ti 8.973384917582669 12.085934158125662 9.091418200104842
Ti 9.560766632207924 10.539685678568768 6.399862561480255
Ti 12.706544307970741 8.193550151461116 11.368536969219726
Ti 10.902131633717316 10.48108299435962 8.524840248130761
Ti 10.631681484835122 12.096165362514721 11.862571826031388
Ti 11.76359405928311 10.026063151447868 13.088513858624863
Ti 13.031328475262134 8.88621730052518 8.765238198294806
Ti 11.607570805530715 12.887200620525194 9.651850881745643
Ti 12.227227217106144 10.204776380440746 6.33621403433413
Ti 13.11423467274417 10.899753899247917 10.805680191809413
Ti 11.152551633043945 12.553996012916496 7.073244820996899
Ti 13.311888562198128 11.563932530483966 8.23756303559285
