23
Energy = -148.92118762 eV
Ti 7.3756903703847225 10.586419697453469 10.09885804907315
Ti 6.963637079607173 9.484557451683271 12.553163326508246
Ti 8.05335714054226 11.818763939494128 12.489437447367363
Ti 7.765380969328531 7.880673602416901 10.703510993041979
Ti 9.356144203355312 12.59882512643468 10.572885409773246
Ti 8.793803652053816 11.392278689303335 8.023390820167895
Ti 9.067936293642106 8.641259096385415 8.789359901337788
Ti 8.947405981387416 10.053815566159514 14.13980373453088
Ti 9.50691091125339 9.827549038216409 11.388450042666557
Ti 10.807500488168786 11.560998442455999 12.832996739901512
Ti 8.777592745856868 7.687804882853513 13.067901391944087
Ti 11.042679634570083 10.7229386875618 9.157363975200829
Ti 10.396626484726747 9.411143806931724 6.8898003126973135
Ti 10.680009681188928 13.351366051617486 8.668853017517794
Ti 11.06778191425403 11.879928331422889 6.590828513115954
Ti 11.070491656725332 8.826650443059764 13.348939814247677
Ti 12.220170493174521 12.385091843010807 10.783095317901667
Ti 12.874026910191969 10.079149269333382 7.118375119264956
Ti 10.508559654641356 7.455548800399999 10.978577181253044
Ti 11.919798510251677 8.279226673384155 8.929121089015561
Ti 12.38401988474022 9.5892606790913 11.451845947979804
Ti 13.045369230502205 12.446340959086642 8.188103124921831
Ti 13.688321155724756 10.353623968515342 9.548553776843077
