20
Energy = -126.89354357 eV
Ti 11.793934480531314 9.642577319728378 7.483124324746168
Ti 9.484998841994402 11.078974701853051 7.290646523079394
Ti 9.685975485583807 8.458618664642096 7.911441321227035
Ti 9.992581228413357 13.234350495587728 8.914957525409802
Ti 11.81067891869526 7.985409535245886 9.45922044596339
Ti 13.214539755911515 10.365768252615277 9.664031771738154
Ti 7.674802758462022 9.729985897045403 8.936906347248366
Ti 8.065281722697106 12.062673254993555 9.476264075268928
Ti 11.94509679001028 12.012201086160015 7.866405331858079
Ti 12.08812688090403 12.875153853330785 10.220144026039216
Ti 6.607968582299062 8.283567828796171 11.019212128247554
Ti 10.472237139901733 10.539305960679847 9.809540374669854
Ti 9.1450077598456 7.910923832459492 10.340110797890603
Ti 7.865979106711453 10.45799305231234 11.546328370754246
Ti 10.634841738803841 7.299232607064154 12.10176792857894
Ti 9.710792112263542 12.520713956202975 11.565489843704707
Ti 12.346059194956045 9.0348508024291 11.761247821347723
Ti 10.128763311915208 9.93863064029438 12.799576095256928
Ti 12.105074444452327 11.40682477620757 12.002623757846374
Ti 8.144901923350643 8.079885660053366 12.748603366826678
