23
Energy = -147.00850319 eV
Ti 13.596719489791441 8.507477899808118 11.862492323114747
Ti 9.836445563901263 10.43919484238492 13.659286596667027
Ti 12.11858791683295 10.787460189304058 12.409180376432236
Ti 11.08943886639966 8.185487560888017 12.63968049542498
Ti 12.394656420796299 6.510991524272951 11.042070471087099
Ti 13.624285328265701 10.917917053078044 10.19677095236299
Ti 9.50775386646374 9.987688896535785 11.058703694278636
Ti 9.650021374020003 7.320216226658943 10.628922215355237
Ti 12.886769345142882 12.842077100140507 8.540846656250377
Ti 8.380163555087403 8.416511102101127 12.799628501254563
Ti 11.83887100964904 8.759188904176524 9.962959957621894
Ti 12.487797803753766 13.076726238982989 11.125641783586548
Ti 10.91302234188561 12.061495688854269 7.1006310475273215
Ti 10.902537664548653 11.503889966667113 9.656393131898547
Ti 10.043644238444932 12.644463468280335 12.166558019029985
Ti 7.193470461226302 8.649457141722985 10.68704266099313
Ti 12.582463844208576 10.2738382460283 7.893210852808822
Ti 7.291521380857446 10.658032996085344 9.480321969613744
Ti 7.475054653044588 10.942672155824168 12.191834933942078
Ti 10.479006950350465 13.91108749286901 9.299737938449159
Ti 8.711825961813387 12.251461621010177 8.010082699731191
Ti 8.267318960383056 12.79721666285401 10.424428799811281
Ti 9.741935218756215 9.64128120004409 8.149312314741756
