24
Energy = -156.26364137 eV
Ti 10.070124312619313 11.965380574138944 12.091085780266061
Ti 11.51240376096944 10.025927428790686 13.07670968024906
Ti 9.069127010531586 9.420575700914382 12.628488731616086
Ti 10.950968291126891 13.056750252990728 9.919765461214142
Ti 7.577549768659301 11.440705669948363 11.896520758742932
Ti 12.535105186028686 11.412597719660951 11.021178836647223
Ti 11.28535215890678 7.384361277777647 12.336490078805182
Ti 8.307849136605176 13.334882572589425 10.036017835665696
Ti 9.066308594048504 10.87574941660638 9.58862539212293
Ti 13.366860139590948 8.99902568262405 11.786661124243613
Ti 7.201241304272874 9.102681636385716 10.643698080145937
Ti 9.830603781436631 12.820125378412323 7.7657482769331985
Ti 10.981240128450011 9.174953623041675 10.460165790770754
Ti 7.59591330651842 12.111497446362566 7.60018671081988
Ti 13.449360908130165 9.598127140597322 9.258203145647594
Ti 8.893183416159776 7.290551066838213 11.175758101652477
Ti 11.782015484693119 11.178602127312741 8.233561177995181
Ti 12.922659576603015 7.248206242758004 10.046477126709071
Ti 6.399749621182132 11.46835182998088 9.710378183034726
Ti 9.538979285510544 10.215422299366182 7.015352814906228
Ti 8.89569076838027 7.945753203942177 8.599466500450461
Ti 10.713859541710834 6.503261516967558 9.759345227492782
Ti 7.141925816342185 9.650594431910465 8.007310447373182
Ti 11.504913557397455 8.36890061595809 7.9357895923704955
