29
Energy = -188.81824278 eV
Ti 15.05090011922061 11.09488637500524 13.047241028713076
Ti 13.751528014364416 11.009194105728675 15.268177566743184
Ti 14.284341748270608 9.872081873621072 10.862727684333644
Ti 13.896420916519867 8.828682736031562 13.43738797129075
Ti 12.060971323602685 9.560693810474872 9.008033315138734
Ti 14.051572148228551 13.390266995303367 13.81434111494367
Ti 12.526313808067437 8.805475908890598 15.576524983322576
Ti 14.015517428976336 11.530809898733596 8.759166535927537
Ti 14.628720973345544 12.664198354703759 11.143437492272712
Ti 12.338676453318028 8.335392913037625 11.398169619007014
Ti 12.031995202646579 12.976018636820434 15.291707626000616
Ti 12.156390081153155 10.824781086971667 13.141047030570077
Ti 10.952441378477767 8.49317093119532 13.606157879749091
Ti 11.924678271828459 11.437296896675553 10.397674833623777
Ti 10.808564683082835 10.672877519573108 15.435460035842402
Ti 11.795817765202028 13.397967559483394 12.042267341950785
Ti 13.250572174284038 14.014047547154926 9.426126600244189
Ti 13.775599937948288 15.150722127459549 11.798399127817811
Ti 10.048809665876105 9.387462609675739 11.104681758467073
Ti 11.695472983901217 15.091522091826409 13.648523000842795
Ti 11.699146842242483 12.15007765399171 7.867074759342367
Ti 9.816550666463236 12.908415190738877 14.05752494041471
Ti 9.282984862261763 10.438139622420966 13.375774045856337
Ti 9.697552021915955 11.036574987061282 9.005296817826107
Ti 9.118507604989865 12.03599597267001 11.458229506354566
Ti 11.461989671685185 15.743215274704784 10.883010620388466
Ti 11.403592767095446 14.90299751384216 8.222122260386316
Ti 9.458956845798928 14.66069527806903 12.046663808449177
Ti 9.954963188777006 13.638084693155124 9.615164230353406
