29
Energy = -190.09546159 eV
Ti 11.163685288146663 11.791667231832037 7.045991814364055
Ti 13.229741477634382 11.746561206461474 8.686738370462844
Ti 11.126590298674618 13.321435952573927 9.4778189672548
Ti 8.890683385832741 12.965280387588807 7.94587442883542
Ti 13.232874559674777 12.508546109705343 11.143286621991543
Ti 8.475638248114471 10.929519586363327 6.444178701971767
Ti 10.338311430540184 9.196312714034352 6.421824764026689
Ti 12.469741683748131 9.340206739802666 7.95616404593927
Ti 12.59699842200197 10.752863587022425 12.858712372590713
Ti 9.63143286302592 10.519453531043116 8.591477762116943
Ti 13.697052602052903 9.726379391417028 10.578952591044807
Ti 11.472440876892815 10.912271345564852 10.46986134199593
Ti 10.711773065633091 12.657266249763188 12.357111447876592
Ti 8.463876522143224 13.013199051363635 10.538937123753895
Ti 8.279115220176237 12.041257391186535 13.128473261148171
Ti 12.77005441354319 7.401474024596876 9.722079515290122
Ti 10.407004848503243 8.500194231674216 10.13301964415403
Ti 7.052096425109509 11.15128038431265 8.839951168442417
Ti 10.555408323003284 7.0918339366903425 8.05692935056393
Ti 8.937389472726725 10.472334702123561 11.171722894866674
Ti 8.083911152101095 8.518335757227852 7.838420641188934
Ti 6.490459759980811 11.333543099132202 11.39213485032345
Ti 10.138887038693206 10.070611943583359 13.489632744504195
Ti 11.94159076967914 8.20048454426816 12.26160122906347
Ti 7.423975110302508 9.590586192787343 13.081430995471651
Ti 10.80474254970461 6.140480518726889 10.761634398619362
Ti 8.50674791579144 6.68879589662216 9.807191177155069
Ti 7.050267128143739 8.758608808679238 10.495401018845028
Ti 9.054109880884786 7.655816216311268 12.30004748859763
