28
Energy = -182.35545776 eV
Ti 11.033986974253796 15.595875215602593 10.603452806572223
Ti 13.343769381413571 14.18841490069489 10.941568163972983
Ti 12.564367742931875 14.483951078003503 8.557266246497454
Ti 11.720616727679312 13.939054642189403 12.744464461667295
Ti 10.164531152724122 14.526560467217205 8.069149785289436
Ti 9.329867180490048 14.259181035139072 12.287696240669101
Ti 8.54230926857347 14.58941331965785 9.919428537204901
Ti 10.84375220817354 13.04391949688737 10.238826416693579
Ti 13.62009156441156 12.237903539648538 9.12077414742607
Ti 12.90085504639617 11.633323396971099 11.688040475196209
Ti 11.397832873540889 12.258165610329685 7.598124911598277
Ti 10.138133052876162 11.650643932612494 12.769366237563846
Ti 8.782985919738373 12.378930974403387 8.4789686674525
Ti 8.083161820674059 12.308662702733749 11.08620443163123
Ti 12.041262342866606 10.415295217798112 9.462168363619364
Ti 9.398683614981358 10.418384317163232 10.157250978530278
Ti 12.434356271253018 10.729773883109258 13.960560812973645
Ti 8.521815537037167 9.389927889732583 12.625608509478715
Ti 13.905959106686616 9.200419207689123 12.280572234603415
Ti 10.606019345581133 8.443815443757416 8.858150687131225
Ti 11.20456930599152 9.039218608442082 11.870259670049075
Ti 10.21566265064744 9.477720161934508 14.459556487579697
Ti 13.030352173013553 7.966935090759663 9.943448862262354
Ti 12.368056938081496 8.169385951338661 14.228780578145532
Ti 8.804821434069117 7.859805869610555 10.79981701622756
Ti 12.74435426855656 6.835539753203591 12.2309725619026
Ti 10.920276315932659 6.5443114109788745 10.572038089043936
Ti 10.03217115087923 7.110088251846369 13.142104988472216
