21
Energy = -135.38676307 eV
Ti 9.785277207608436 7.875610612064671 6.614434814496946
Ti 7.534208650686844 11.477247540587596 6.766597809100683
Ti 9.40306838141226 10.03654664285478 5.7720861201087
Ti 11.245281646500159 7.2420149702862835 8.259113026879733
Ti 11.56527762442734 9.820029634035391 7.672585795878512
Ti 7.2098141256717065 8.625823041851755 7.1405686393121846
Ti 8.509760162215814 6.575542478303076 8.566909061624234
Ti 10.168923183268618 12.062737930840859 7.286724042777675
Ti 8.308754291787096 12.512464499691816 9.041125906563654
Ti 8.997848111360156 10.003038706277536 8.337864704329114
Ti 10.758474419374476 11.403550151200502 9.858391876075602
Ti 6.445240539290475 10.65652770046173 8.908468658544097
Ti 10.769296503548995 6.225014155797249 10.318311243550397
Ti 9.49041670586707 8.486291893809163 10.15556066505145
Ti 12.014148920162835 8.882861055020305 10.294897542546158
Ti 10.28628451449252 10.167277789230717 12.09217572340216
Ti 6.796529456759088 8.314739971908779 9.952064719332931
Ti 7.995139374054415 10.909398643169254 11.024516369944495
Ti 8.300963104927712 6.450915549307159 11.22947958709329
Ti 10.466516639270475 7.657272327904525 12.41790826934224
Ti 8.084359569499131 8.750677837582614 12.425798556231328
