28
Energy = -180.52045432 eV
Ti 14.684358993660048 14.908884221589615 10.941373707514998
Ti 10.119381797435219 11.617524314565806 15.175136837997966
Ti 10.581204648652909 9.574480227138508 13.91448151892641
Ti 12.41348384704868 10.263182514175188 16.028349034919785
Ti 12.779854365772584 12.35448684552248 10.997273633525309
Ti 14.068913745982469 17.525679898486572 11.810208765907612
Ti 15.403254501122452 12.532909279941563 12.49535998052127
Ti 12.472661073848121 11.282702967010225 13.821032426512364
Ti 14.284387224292471 10.29346586970322 11.924943827619071
Ti 12.52443180602219 15.562857488873556 15.1407729871087
Ti 12.016620266160889 15.015074321435597 12.233591597836986
Ti 10.27981316979329 11.992947114764613 12.470255256314553
Ti 12.029631921962975 17.41042464194047 13.284810736435611
Ti 17.093721901103187 14.538129279168317 12.474054662826706
Ti 11.866501381699132 13.060406610100912 16.26264663278902
Ti 16.504190237965567 13.529386436410325 14.786281112031087
Ti 16.302535229111825 16.911064934166745 12.254975824899843
Ti 12.284201195474703 16.566194503890493 10.588901469265403
Ti 14.69538840555287 15.286904533161932 13.531969134287563
Ti 10.495998719686993 14.013079113741364 14.283850374052415
Ti 14.242413604646375 12.757752288391726 15.786458245033826
Ti 13.02763534958808 13.418567645593287 13.393285728024017
Ti 13.120016666443664 8.820303276432695 13.684067653288757
Ti 11.769698105289649 9.911195144806353 11.62403365415815
Ti 15.010837742169096 10.660279050676504 14.440968809593542
Ti 14.601894857340621 17.601230063055166 14.517526537195868
Ti 16.9661265613953 16.105617020162473 14.618443144987944
Ti 14.952816401272374 15.3310372822795 16.182648654047746
