28
Energy = -180.62861635 eV
Ti 12.607088024836717 14.136503110818921 12.840650407671138
Ti 13.75485377786793 12.413754868162114 13.97027365928842
Ti 14.500110286385294 12.892841188298743 11.489274779971371
Ti 10.197046169192198 14.076812779136738 12.108110632228776
Ti 11.147654693295324 12.007886327665695 14.044339170115727
Ti 12.252928434908727 14.123064578730846 10.206402743096302
Ti 7.844990325821553 13.393071025063412 11.413445946238463
Ti 13.052978985678863 9.97182789692234 13.478855288173062
Ti 8.477486340618842 11.687931498039783 12.653505844996792
Ti 12.27836572287416 11.712887878057897 11.65262219975383
Ti 13.606171955815984 11.93696211736843 9.241238821064117
Ti 9.399289023615497 13.90797618283479 9.282160518354626
Ti 10.369705479717002 9.910890064648447 12.580309952274709
Ti 10.110565398277844 12.026775011538978 10.444952884767835
Ti 7.6326297294774275 11.44615053902025 9.787574935080544
Ti 10.9151416789943 8.523149762098813 14.409233916280844
Ti 9.481815772691169 11.198313280252641 7.709212748847841
Ti 12.27578245100752 7.977970082364434 12.09745050240117
Ti 10.306374862160316 9.510383871200837 9.95787927998805
Ti 13.41215191377419 9.52593730236173 10.395002809061197
Ti 11.535962965816738 12.606204467850835 8.163964648921446
Ti 7.938907536513621 9.066574147670512 11.235410780862761
Ti 7.881929060461768 9.254787021969348 8.574262027504298
Ti 9.969957660999748 7.345772874382732 11.771563772941938
Ti 12.098359789243395 10.01577033218798 8.022802534412376
Ti 10.063566908405921 8.526725187932609 7.477080795660466
Ti 9.022176557862515 7.216562390444741 9.45202248342605
Ti 11.760843978495183 7.497087628537932 9.43295897019965
