26
Energy = -168.45123795 eV
Ti 7.564808592949022 9.92320203175567 12.472073994558206
Ti 8.316964724354419 8.257757790821474 10.809763296718925
Ti 9.963892520888804 9.162015315943489 12.821949527085373
Ti 6.6454209989528845 10.326871397468409 9.894074712940895
Ti 6.9962653069281435 12.159261389987 11.924691585092312
Ti 9.123478522791693 11.046877450574428 10.449863888416433
Ti 10.620823623762321 7.384939958060255 10.841296124682804
Ti 8.574432173251234 9.15939155687314 8.271474769872174
Ti 7.283811741862754 13.000467055260414 9.599443747136059
Ti 9.429386259546625 11.78204161235125 13.094836744454575
Ti 8.93096420658772 13.72153713592538 11.390934127373974
Ti 8.124428162781287 11.57583531037723 7.904121209228802
Ti 8.93211816790928 6.466833885105236 8.855481985366843
Ti 9.937021825778846 13.243947824800067 9.00175581541113
Ti 12.079972642716141 10.83163677577035 13.080508749853871
Ti 12.284465120342425 8.20896407770064 12.486652427408936
Ti 11.334839089423042 12.907196423645948 11.389560554587547
Ti 10.881237200193919 8.290307895843597 8.304962514211718
Ti 11.783725759293816 10.052648870191879 10.460517016841075
Ti 10.569903560324468 10.960647711270505 7.701441452735534
Ti 14.151886309420227 9.523100240505558 11.869129770737745
Ti 13.695893470469093 11.960295764261938 11.332669495861301
Ti 12.570741707137055 12.245059998013975 8.974510435134222
Ti 13.175910952435336 7.893945645482468 9.867237532937315
Ti 12.805040700911183 9.791129893103811 7.875329793171678
Ti 14.42327509848932 10.324795428406802 9.526427167681755
