25
Energy = -162.77300223 eV
Ti 11.06237673582353 10.690932479588461 6.911171256104172
Ti 8.890272201317567 9.292187985096549 7.241234715135595
Ti 11.220833270058495 8.261004011229609 7.822528783267727
Ti 11.738007163487925 12.816987144835652 8.341652915500894
Ti 10.93027419256535 12.019787602488565 10.666826342409129
Ti 7.48937032058155 9.976679417614854 9.221940368142961
Ti 8.917569830348073 11.998358296468572 8.02582084648312
Ti 11.98667494275765 7.8257379273598096 10.308023572757223
Ti 12.852723149529956 10.189593718072308 8.968167992262215
Ti 10.110080495740435 10.07925349232338 9.288959927771646
Ti 9.126572959548625 7.7338625238046586 9.582771504003423
Ti 13.514524448964778 12.381418761933565 10.392978341684069
Ti 9.60648473977432 14.024070449520396 9.587547164425326
Ti 11.933058117474179 14.318994148788342 10.720222071286209
Ti 8.173863759586057 12.010790646603985 10.851267084228832
Ti 13.330297000638872 10.09986793944176 11.741613837518758
Ti 8.094622123062857 9.336868778516791 11.731971283051747
Ti 9.89075492677802 7.18408197535574 11.965405213553671
Ti 10.721104091650636 9.668912105570866 11.799075430514817
Ti 12.175158486205335 12.486301267688047 12.856293878330636
Ti 9.81868327172357 13.80686560073693 12.169831359121229
Ti 12.120770915466741 7.950281887425304 13.068765414519165
Ti 11.815170321045363 10.276306800836078 14.102978417696544
Ti 9.454531373029358 11.466710608964233 13.343288263960956
Ti 9.69684375531027 8.774767022205095 13.960286608739453
