21
Energy = -130.08215162 eV
Ti 11.606429012964972 9.452801308660666 9.539182855465608
Ti 11.716927664110594 10.715983658028609 13.68903058067972
Ti 10.108069128283711 11.918730001785292 15.544805906855359
Ti 11.589771230114419 15.645280220328578 15.077147683512662
Ti 11.229696476645572 8.484676119367373 11.934331721468334
Ti 12.630912500339099 11.85007184639019 9.452260998218305
Ti 9.318137663747134 14.426896607054186 15.048544150627299
Ti 10.740558569939909 11.080968817358068 11.33553393273997
Ti 10.922511729098765 13.936789415886073 16.860046237211765
Ti 14.247761645075563 9.736965631006282 9.148561945909472
Ti 13.158885312464124 12.530461501481279 12.2759378447308
Ti 14.959893800261257 12.326871628799537 8.344607940610432
Ti 11.399429664103529 13.881861266995665 10.765008867312494
Ti 10.59632076844333 13.127887911922189 13.154689011612659
Ti 10.23872513383091 15.696196792564722 12.920162469475317
Ti 13.450505543011568 9.82454696598754 11.64153803383548
Ti 12.963850225315099 7.595444097463905 10.38140688564378
Ti 12.491837515849259 13.082549538564386 15.008492463573281
Ti 14.04149301840116 13.956324318692614 10.174946556581622
Ti 15.11938847641833 11.660259654991355 10.701979718140384
Ti 12.702193409665785 14.973185937141777 12.847008050109283
