20
Energy = -128.70324888 eV
Ti 9.660269122470282 9.978341467349086 7.842379864758378
Ti 11.313172691638918 12.116899737986063 8.1348372595106
Ti 10.52316122038026 7.77350548498065 9.068114102692562
Ti 8.948450334646878 12.732132657986114 8.308036094044414
Ti 9.687323329100808 11.23059599307986 10.194734250749097
Ti 12.885802727792235 11.978409224027729 9.938768285564706
Ti 7.3287890390734605 10.848881320009486 9.208625529260233
Ti 8.436149154621303 8.66525639417884 9.998826034635421
Ti 12.436857739813533 9.67560350378422 8.434246123975083
Ti 10.75512514548962 13.49100624626194 10.539097445259257
Ti 7.675074938452662 10.476965757486886 11.839037674767116
Ti 12.658162998682291 7.63444657683951 10.471458423864899
Ti 11.271830569918992 9.719854292719193 10.743498097190436
Ti 13.797541879476581 9.984661456096166 10.992355105348487
Ti 9.477186243512312 12.251427479311209 12.683770988335281
Ti 7.92140539740287 12.95350460459884 10.771613677173162
Ti 10.25182641240687 7.513560345859395 11.745471428858103
Ti 12.02197327555681 11.669160369611987 12.44517535685965
Ti 12.343513470541831 8.83831104816353 12.869865091078474
Ti 9.994493955894312 9.855585686542375 13.158198812947756
