25
Energy = -162.60710157 eV
Ti 11.745297258752391 12.652772121555046 13.40905841010955
Ti 8.865831597599536 12.674039380246283 13.204788456369377
Ti 11.042516725123226 13.817960352808052 11.20485170693723
Ti 13.549303596718827 10.704097260103426 13.027431952195435
Ti 11.91829477700114 11.243669363917082 11.082022275271099
Ti 8.455442286930923 13.288539521404585 10.468896691347346
Ti 12.366661315702341 8.591706644019432 11.796827962766692
Ti 9.654232809953859 11.223485257031546 11.556618990042097
Ti 13.672137286077557 12.937313083740177 11.675208445205303
Ti 8.19773871004431 9.944042703120989 13.301790905564122
Ti 10.928640865501372 10.313533290018265 13.809499766164874
Ti 12.861741187822263 12.940825856469997 9.2891001323835
Ti 11.072804008046836 8.284367343739346 7.4930590699733015
Ti 8.582871833245623 8.439119999787328 8.178202063148
Ti 9.777403976203859 10.546277834704224 7.141818103793976
Ti 12.826448874875313 8.369024115450358 9.291815125593885
Ti 12.3808191414693 10.680797220282065 7.935255956982704
Ti 7.944407182738477 10.952081829054652 8.99294737276444
Ti 10.338675170540668 7.218979586270466 9.991210234320805
Ti 10.412487926295858 9.659247473507593 9.558692242024614
Ti 14.063443725134622 10.514211887141709 10.248001040820894
Ti 7.970336035744736 8.791357732474243 10.750833710450024
Ti 9.945214693819684 8.351453536193453 12.390904910742831
Ti 10.354842612168119 12.585086658692001 8.772386259007897
Ti 7.11299713822721 11.316600684005563 11.469368951758463
