27
Energy = -176.18577468 eV
Ti 8.55362936200383 9.514164456271512 8.452490520942236
Ti 6.711221075004725 10.463792657878885 10.331758109191929
Ti 9.16049477735813 13.406365801046837 12.252931805273356
Ti 8.962132623714432 6.7309437062314 9.399129051112883
Ti 10.171898422849527 13.933012187476345 10.088036053588425
Ti 12.917758192920363 9.188203934264742 7.3378593082987145
Ti 11.613194247332162 10.524329849132512 9.295673918211964
Ti 6.930708670743763 7.996847221114108 10.274229812255435
Ti 7.3227487682416585 11.84211741909919 12.318351790241024
Ti 9.676350993861456 10.84274304845412 13.240428666576852
Ti 9.977802177834965 8.192529976505908 13.317046630487567
Ti 12.500281444523162 13.002309405767447 9.303904048450521
Ti 7.631721039204365 13.156422197653136 10.023504817614185
Ti 12.293699660782325 11.713300297452793 6.963654085815825
Ti 9.976742067538318 12.430730485464778 7.894944677203277
Ti 13.69129152973396 11.128426783148829 10.972347389451288
Ti 7.493302331696638 9.220380991430455 12.65123484503642
Ti 11.867361865932123 9.555171169989555 12.026097493339671
Ti 8.42949419313436 6.708575986759257 11.958767393001006
Ti 9.337780692198047 11.43831422411191 10.474522443664027
Ti 11.613486612605216 12.359917000808732 11.872862325795133
Ti 10.475063510392282 9.887536363213936 6.897792828953752
Ti 9.417630475421028 8.8764355268623 10.830604304045103
Ti 11.07842574025403 6.934764387418077 11.232630683347264
Ti 14.20141533725027 10.991102238678836 8.583679759484705
Ti 13.469918952053508 8.711017413311984 9.920177973944753
Ti 11.135686080963445 7.861786116000215 8.696580110220046
