23
Energy = -145.07527954 eV
Ti 11.507903317130898 6.147271430902276 10.725196837657078
Ti 12.55523192510924 8.130240988519251 9.128249978093388
Ti 13.602060570381843 10.63191084153244 8.188485737564434
Ti 11.935729804324211 8.339802061967232 11.648477453690072
Ti 12.212065298148064 10.860122484903071 10.285724545392972
Ti 12.012350219474628 10.248794680220652 13.13543635357994
Ti 9.919697625715074 7.637962495578808 9.429465898155161
Ti 13.473518705541398 12.977700838795734 9.608016814747941
Ti 9.585726382275622 7.030076319944581 12.03034724218743
Ti 10.956542134494201 9.6937139174632 7.888454832027303
Ti 12.803951051729932 12.627774408380546 12.12768204886229
Ti 9.689122555554045 10.227016662153613 10.718702699462025
Ti 10.894911498924012 13.374167419935425 10.310713601449232
Ti 8.23937989694079 9.327590652623853 8.565843963710963
Ti 9.597189087089289 9.27601869247605 13.226144575593754
Ti 7.707372470461916 8.60945267749114 11.10966727863055
Ti 11.707611994395913 12.337333063112718 7.9308344723193445
Ti 10.314362101429433 12.064708971018153 12.767411795274148
Ti 9.265380881627175 11.652065721614326 8.374207074056832
Ti 7.790873710126083 10.889081866943423 12.5185557947516
Ti 7.0914493935966485 11.115020755667832 9.996115462238212
Ti 8.511287377071428 12.932541078890889 11.223167456541894
Ti 8.402730092516833 13.635816174406818 8.845838315900108
