22
Energy = -140.95196783 eV
Ti 11.867306711018305 14.274639453025637 12.150502636056393
Ti 13.30083222812638 12.15638213961102 8.692449559511855
Ti 13.903092125297597 13.268859607693306 10.938114879730605
Ti 12.124994086409952 14.40154613120764 9.504510036864497
Ti 10.625885670468092 12.7314870461003 8.144378649985
Ti 9.67974102291135 14.136830002484816 10.4251645222443
Ti 8.25221480920347 12.386874859183806 9.136558431142102
Ti 9.660329918979766 10.128306860239555 8.34476124130006
Ti 8.169014226260439 12.318652053868991 11.903427592034243
Ti 9.001861491713942 10.531817372788394 10.584700667526068
Ti 10.37492033504688 12.428526192972267 13.24682478061939
Ti 12.124864704978023 9.849573838946576 9.039601529144466
Ti 11.305372719783938 12.164684732492935 10.540134075985948
Ti 13.213627879736002 12.070739344062652 13.157334307294706
Ti 14.158916915301285 10.668369165496173 10.8679512205914
Ti 11.730140529530674 10.23515580915994 11.89793551320242
Ti 12.9700261611956 8.162690528761994 10.944122156325008
Ti 13.728556008495161 9.400705330960491 13.240140455149442
Ti 11.497818015524267 10.33675247164397 14.482036487412532
Ti 10.308191953322076 8.314799164690177 10.717049816471519
Ti 9.35813905409464 9.713454989134704 13.001045708605067
Ti 11.457606998264326 8.022934905120788 13.144060423002328
