29
Energy = -187.53503781 eV
Ti 18.811093029537357 14.576201982237341 15.040406937228553
Ti 14.986404537327243 13.90915628774571 17.398506652333303
Ti 16.597333876742553 11.890754544463164 13.851778472927444
Ti 14.701046642544433 15.980430407616364 15.81850610466571
Ti 13.146769795964131 10.747567250772633 10.815260407280478
Ti 16.700454795366372 13.523647164316271 15.73599014241133
Ti 17.02974807155816 14.310784202961063 12.893832382594253
Ti 15.192502139663015 14.6990978559645 11.172565063280219
Ti 12.354418356543048 11.707700296363505 15.22836642133171
Ti 12.184103398391702 12.824005410121591 12.323897664654844
Ti 15.048780858467632 16.345896417642642 13.084709159532466
Ti 11.020878002497998 14.482412367108248 10.25249671598369
Ti 10.216737766374575 11.378679716834363 13.927400185125107
Ti 14.439995298061755 10.724526011039584 13.22757204300191
Ti 17.055664328795405 16.257000396715405 14.639238202147643
Ti 12.559018593946558 15.76022639294543 14.098871420393412
Ti 13.436901336720465 13.361330339247921 9.901563339457539
Ti 17.122792204373805 15.594292393762478 17.05121950010029
Ti 10.643714510730923 13.769115377747045 14.501720041453485
Ti 9.512780983430721 13.038390814478662 11.966733717730074
Ti 10.51898400136495 10.58788479198407 11.571021515302755
Ti 12.90136945220558 15.67867183974533 11.363283900114844
Ti 14.533425776307462 13.767066356283046 13.914246968135915
Ti 12.216179948433338 9.932244731392693 13.257907254025676
Ti 10.607781991914484 15.349598579447317 12.553440298478714
Ti 15.436646479743938 12.211850147118602 11.44287140560515
Ti 12.823934151504417 14.082553661349488 16.117456040598697
Ti 11.11355868657797 12.130221737892098 9.861190265607869
Ti 14.749102267304377 11.673918153199018 15.795040528950794
