25
Energy = -161.56675884 eV
Ti 10.33473991568799 9.318716007282388 7.33550857339864
Ti 10.538329036459283 6.763176808448926 7.68506564470118
Ti 7.9957890291930545 10.450986685518497 8.81295585414029
Ti 10.99730861519563 13.535623326434914 7.99128822197343
Ti 11.739047173245229 11.48649715935012 6.657521277475642
Ti 12.910088588991057 9.73246810306709 8.223007098267676
Ti 6.748486639532292 8.948958277072775 10.277139434582852
Ti 11.729075294615932 8.402427342187005 9.867080890557164
Ti 10.502925951756385 6.891929833645876 11.359008961940978
Ti 7.864648561355852 6.943282829993442 11.590549141519302
Ti 10.772486085051371 11.063739532777326 9.288579208612806
Ti 8.087341363342388 8.049988647813606 7.050893663022226
Ti 9.315888104092538 7.845992921872034 13.508009151911661
Ti 9.314745766944686 9.377376104377605 11.192961264201985
Ti 9.187018424061833 11.809752729468787 7.18531007942418
Ti 11.467462928429084 9.248987654236991 12.606746390543426
Ti 13.176293278575473 12.320626335236662 8.59963535273446
Ti 7.134569256771178 9.049417424470285 12.878416111790452
Ti 12.831114144044946 10.84274538581033 10.8528928754495
Ti 8.973894798501956 7.735576869587887 9.262311049429213
Ti 9.189356264609868 10.414751302816809 13.63124606278789
Ti 9.052506234755546 12.933833995445909 9.78857468989795
Ti 11.689609373271153 13.299095249326799 10.449466066541952
Ti 7.673167399186549 11.335211153212416 11.521146897797786
Ti 10.452307043638044 11.877037591854837 12.06288530860696
