24
Energy = -152.47666999 eV
Ti 9.371429118766592 15.790220755049706 10.857282164454222
Ti 10.135160885160126 10.577345902014775 14.256234232820617
Ti 16.873171119454636 11.92363610832648 14.075209678515833
Ti 10.77427581480756 13.245717362907586 10.792717459508017
Ti 15.322482697430539 12.909428792986976 15.758636548664759
Ti 13.031181443179074 11.636469060695608 10.977457259836683
Ti 13.72248150721076 16.470710714741394 13.550303037408584
Ti 13.722605892470266 14.692515917541197 15.33791841387924
Ti 15.853558601851699 14.52547316426636 13.615827868561583
Ti 13.26891377887432 14.013573099242043 9.96838261992985
Ti 12.571771880936138 10.296797380693896 13.4517160912681
Ti 11.910119334620365 15.680072700617322 11.57725520881811
Ti 14.540032487620747 11.789627474417657 13.397400341242143
Ti 12.816694560834174 12.036003832346207 15.582705929474617
Ti 10.67262615378209 10.709796082748996 11.720258284695154
Ti 14.988965586750137 10.424195044443412 15.444085186562772
Ti 14.799838919867241 15.585724006686576 11.269861409690096
Ti 8.879360915794987 12.224531407099525 12.463351328868841
Ti 11.231336501163105 12.714682506066834 13.487722797228402
Ti 13.351808320782835 13.926301025516016 12.712930068442773
Ti 10.611366030989496 17.304526962743243 12.765654555156864
Ti 15.417386987544695 13.046085739928966 11.257173886647891
Ti 11.472878071070767 15.456166815736387 14.524912477823934
Ti 9.65983416459167 14.879468815840461 13.009473349864827
