25
Energy = -162.20255226 eV
Ti 10.051151907961131 9.914298950817827 7.0653867498682
Ti 11.632712093984093 8.223482361392687 8.014273239108599
Ti 12.51339618747865 10.822500543769332 8.01227992626804
Ti 10.102934157347175 12.469438437747952 8.122882395411109
Ti 8.90011056112417 8.241290510521766 9.23196683572583
Ti 8.118373593965735 10.655494721099389 8.49254016061114
Ti 13.441160953934787 8.869113234454009 9.976025271990197
Ti 12.15115811271974 13.025491294963066 9.46349285937272
Ti 11.193764589424712 7.375444202217304 10.253169606097229
Ti 10.56555928289945 10.068107417997613 9.556162147944582
Ti 7.963591055120508 12.728671686875206 9.73115409658562
Ti 10.014412239040436 14.292502986444317 10.695722354141191
Ti 12.426908731551029 7.895982356308865 12.320533246750863
Ti 13.893716395493668 11.504470306973781 10.26555367527071
Ti 10.065068164328311 11.907208832689703 11.184372074512858
Ti 11.942824425674132 10.382931026413287 11.669417970532963
Ti 7.788627369702813 10.328262472334147 11.10972587026558
Ti 7.953495391666789 12.890131125176495 12.223421686263935
Ti 12.443847646607747 13.305233205519112 11.958460201513052
Ti 9.702376582880698 8.561431342069728 12.032397208847188
Ti 10.136972842051636 13.47658681695561 13.336533133829567
Ti 13.833811526787965 10.210276890923696 12.82430228957221
Ti 11.410815130466196 9.358931205407533 14.061263949722852
Ti 11.734439182960834 11.809019277619464 14.039964767611622
Ti 9.19547875916242 10.860405677643538 13.535705166517545
