26
Energy = -168.42443659 eV
Ti 9.32666855537882 13.318175120158113 8.134071922446692
Ti 10.065118109692474 15.350147322566585 9.610170105833701
Ti 8.165987677622512 13.78886794654758 10.422360914104006
Ti 12.06083456048502 13.861226292280493 8.3546322009864
Ti 8.285603520640317 11.273194481346502 9.592973715734367
Ti 10.791052523028034 11.196232556276893 7.851913259677819
Ti 10.7989291038856 12.984064251629643 10.354321379779373
Ti 9.890601820201423 14.611506596384523 12.22978435000251
Ti 9.587536164001197 8.399814284505592 9.47285966910089
Ti 12.219484071810207 15.037687682412368 11.02183043688456
Ti 13.088462359236821 11.36817155745562 8.82511905669139
Ti 8.764788028484018 12.08796752951412 12.226737823627703
Ti 10.627616067938723 10.660167372943771 10.415930353373865
Ti 13.581360019254827 13.040794871966364 10.531946994849166
Ti 12.233690453399879 8.901747853500549 9.15122173767716
Ti 8.464333231966922 9.380054716744606 11.76500084391018
Ti 10.531229771728828 10.799325819995373 13.432779100038932
Ti 11.099501077287115 8.692001796962936 11.66360289613848
Ti 11.564742498517615 6.532205561134015 10.343703707709752
Ti 13.18572387917757 10.62506733919942 11.509722771855618
Ti 9.387791321153916 6.808175187958248 11.782000051711146
Ti 12.037108124688906 12.905887385966173 12.713907489875197
Ti 13.573897453393336 7.91677475742421 11.49487934411374
Ti 9.928960784190071 8.32555702563176 13.950765831507912
Ti 11.7906732074457 6.645729364497515 13.01339115183897
Ti 12.581548514014136 9.122698223620707 13.767615789154771
