25
Energy = -161.88028794 eV
Ti 10.141357399055028 12.608365244127388 8.354852829893591
Ti 8.474216187033624 10.480347011564588 7.965869762791458
Ti 7.781391210096605 12.508127123135642 9.51859335528135
Ti 10.999280729421123 9.694836559554771 8.264211560295339
Ti 12.269781694745014 13.864411417068611 9.825746463576102
Ti 12.496574041710575 11.581172868990288 8.496359021736009
Ti 9.650427340691252 10.88412614102541 10.357823584205589
Ti 9.036280659292933 8.386304081751328 9.49942095449735
Ti 13.724232197452153 9.652418225921755 9.791710542405324
Ti 14.373306366038124 12.054678293764661 9.995962332483643
Ti 9.653807186072278 13.762661025821416 10.84000649774499
Ti 11.363516416025094 8.893477134738397 10.980927437872895
Ti 10.97864117680725 7.62619952488534 12.929125630066348
Ti 13.575802575192691 7.974581645063072 11.919188562919777
Ti 11.964624727517933 11.705717867695073 11.38096736409231
Ti 7.113122617697581 10.086666303180174 10.156132488715873
Ti 10.177191940928674 10.309651900444392 13.443677511459567
Ti 13.977899437784094 13.362390034881322 12.067112902409015
Ti 12.51519910138144 12.120405718664102 13.902310422807728
Ti 14.363847257767125 10.67811004900254 12.256452528699498
Ti 8.567268640368741 8.984952030326992 11.998343389466605
Ti 12.572513267489176 9.480526557286886 13.65620804218592
Ti 8.013870172934475 11.712547416889421 12.161579442044186
Ti 11.720709139300956 14.247863763205137 12.407873528963918
Ti 10.013088682180882 12.857412225996184 13.347494008369894
