24
Energy = -153.22839186 eV
Ti 8.569468351197798 11.33098951324679 12.905904888855519
Ti 10.263753243239373 9.100409143624454 12.70333260105518
Ti 7.452266676411076 9.040493373210758 12.24652688007536
Ti 11.08870855802348 13.560567189311596 12.597191106611712
Ti 9.020326831119279 12.932191987792956 11.123266499512143
Ti 11.334394589490339 11.466861915882294 12.411629585308203
Ti 11.286863151978839 7.136578769919578 12.640548690280976
Ti 9.025782213926153 10.056653152803063 10.484106170469035
Ti 7.033520976950062 8.55610262543322 9.626169692234157
Ti 8.968740333735008 7.281742907387536 11.04220701640856
Ti 11.247238800193646 13.199488304783824 9.915427926979582
Ti 12.873810448069023 9.359323396492952 11.791619160626205
Ti 13.343094776272517 11.817243721354311 10.595759114556603
Ti 11.282102209837065 10.439725469078644 9.749008988812603
Ti 6.852228436666546 11.204721612432955 10.606492578154917
Ti 11.523581407699108 7.763305145332968 10.17551910585361
Ti 13.677830263528408 9.5407772059453 9.289195598591608
Ti 8.865627216446029 12.415933080537224 8.78817665664344
Ti 9.53084390726664 8.038900877081822 8.540192326861971
Ti 12.633158964975324 11.571128685847777 7.972578248702125
Ti 7.6827214372504455 10.362464057557034 8.014442239198122
Ti 11.88838058769232 8.988712859072328 7.5514659708841405
Ti 10.044957078509482 10.75455277831843 7.150176507673869
Ti 8.933005929475243 8.504604821896121 6.509413895838592
