23
Energy = -144.75200546 eV
Ti 12.556007035588117 8.330294128576856 10.391674937820131
Ti 12.370639643181592 9.802769696139183 12.500647227430447
Ti 10.412372253563857 8.139869784285812 12.459455855545643
Ti 13.164135827748334 10.958671806208397 10.214259900028505
Ti 11.032757332435125 6.298902521034447 10.749665216231262
Ti 11.98391324178371 9.696644580855338 8.044270791863362
Ti 10.684961467919445 7.674629228799344 8.457071228189097
Ti 12.830157001344883 11.874177798961021 7.593451682719826
Ti 10.498064042877582 10.170408913078512 10.55778635486369
Ti 9.947849734611594 10.67248886311504 13.253389569075921
Ti 11.617242991032304 12.199131505503777 11.93159677173174
Ti 8.719253167692147 7.51069021893953 10.358715859625937
Ti 7.2818867783950285 11.363104996692478 12.826862382365956
Ti 11.194606258278418 12.70712422705073 9.411548078863845
Ti 9.84870344661202 9.167938804436957 6.408096184642634
Ti 8.201549887826687 7.4814706183539075 7.822660276761954
Ti 10.265813622814328 11.668647959072766 7.115945558113792
Ti 7.968392311033568 9.325111291110925 11.815442804338792
Ti 8.631342997669627 9.9500247078824 8.516427880567994
Ti 9.088081697559254 12.51588995910842 11.395112751276365
Ti 6.557315711088514 8.849572384675826 9.52074499919596
Ti 8.66730011758944 12.606204505534034 8.83895056313151
Ti 6.961528199525674 11.35095173284216 10.227172080509721
