22
Energy = -142.56903563 eV
Ti 11.50374367159725 7.9746506943918005 9.05211309160727
Ti 11.471196226878915 10.260071370643416 7.377601766276104
Ti 9.359531527280144 8.801309403936239 7.578661865979682
Ti 13.138930828728732 12.035980105665123 8.665264322514647
Ti 9.01912702407096 6.91614047603278 9.103759539379396
Ti 8.774513717091487 11.241801227197243 8.021716935766156
Ti 10.780136135030768 12.879790839139211 8.134832097474682
Ti 7.023986200293441 8.764012858185614 9.107403537345164
Ti 13.393171132148053 9.607950693233107 9.32183784628123
Ti 11.10153241303341 10.882751928085751 9.874028876292625
Ti 7.1041943785610835 11.296046497527156 10.02879661960822
Ti 11.828677841697807 13.362028162970434 10.527053050735018
Ti 10.430803702236654 7.081811236877808 11.265158566488115
Ti 9.161128521113994 9.366447284825872 10.35403786185971
Ti 12.09040056193326 9.0401418295721 11.686901283116297
Ti 6.903232531680585 9.46220981799528 11.787403100590957
Ti 8.371870475742822 11.4183143546327 12.236042583374644
Ti 13.321790537440004 11.338280129949334 11.250088413192369
Ti 9.260292785990591 12.859515451719854 10.272647429594276
Ti 7.889241561090946 7.275047597875792 11.340904165010139
Ti 10.91979072363355 11.453780630862278 12.460314199698633
Ti 9.497640837572852 9.012163293939237 12.905128868574803
