23
Energy = -148.55590371 eV
Ti 10.683514834832328 7.152090658555751 8.84545391404246
Ti 8.065666054730295 6.713841577063738 9.567171370527072
Ti 9.758695605433516 6.559482347735388 11.324230364915895
Ti 8.642545754924084 8.499065949516341 7.5841331182345275
Ti 11.20545081804621 8.8680905319903 6.727315279839168
Ti 12.88043535364937 8.719394462927747 8.474738772542102
Ti 9.110229211268935 9.056729138538751 10.485080468564195
Ti 11.913530596401586 8.18746592326272 10.95699478201628
Ti 6.6236848693226955 8.728377639407837 9.391331001152503
Ti 7.45524392931368 8.02178059725906 11.941071113257584
Ti 9.68868160698411 10.825879906724493 6.59712043123385
Ti 10.649120088038211 10.166589952546788 9.06420689184291
Ti 12.23332516875701 11.29119424069015 7.5977655988049895
Ti 7.696126246079189 10.865473823256192 8.2967103680488
Ti 10.020889564645064 8.353190367390605 12.95699777032336
Ti 13.156660661477444 10.509756127434349 10.094099768017786
Ti 6.864955255593893 10.703417894292354 10.989705702382265
Ti 9.81164717584593 12.740663510926094 8.298203191636482
Ti 11.184651476738605 10.62607428671596 11.974146944754352
Ti 8.612088610531513 10.386390468161027 12.824131618638813
Ti 11.680135132751472 12.496442817714618 10.03757834597575
Ti 7.418367791411508 12.976297760109672 9.581659359044377
Ti 9.273575803003839 12.18153162756111 11.019375433985658
