29
Energy = -189.51095433 eV
Ti 13.150955079346963 8.825502914933036 15.725103574466116
Ti 12.622065389578689 12.267835233819065 12.562938200968967
Ti 13.391549429372464 11.55484840035677 10.069872862880823
Ti 10.952454194539357 13.102469879422733 14.815392871339837
Ti 11.320262528593563 10.51108417267378 14.577990280117088
Ti 11.153026368191744 12.901686914572151 10.510896033071603
Ti 11.852968194239967 15.819444811414943 14.83355335434242
Ti 9.980059888223183 11.890642465954738 12.706555837519746
Ti 16.518765744500055 10.871357407449654 13.798723880731345
Ti 15.476184135031307 15.572204133517442 12.09392884265375
Ti 11.67540144980259 10.17490852815053 11.54253655098835
Ti 14.736737537429319 15.71917896646474 14.837520291719473
Ti 15.621661823551282 12.290109090065696 16.139135968551855
Ti 13.20033130662232 11.17766222819855 16.824350072792868
Ti 14.01696626782147 10.975218328883894 14.334247875926994
Ti 11.351193542159349 16.946386515681326 12.478733876591216
Ti 11.389141038275465 15.344293804787547 10.502793401115262
Ti 13.065546062618367 14.838145832059993 12.78625161028131
Ti 14.626433055029677 9.978338950468041 11.769463977859177
Ti 15.369211133935499 12.514561805484698 11.51675693091351
Ti 10.26306821641391 14.52716060616782 12.804834486105143
Ti 13.705931602953846 17.340731361625796 13.34697832391577
Ti 12.738881973406274 8.685668148387654 13.20591854287559
Ti 15.42653512396227 13.463100246940737 13.832035349986393
Ti 13.766529466195147 14.154085430077014 10.176544269980534
Ti 15.483594122739431 9.797802205101927 16.189326250694865
Ti 13.389973737036943 13.544160159823308 15.455078145049555
Ti 15.175531576325179 8.570227240079156 13.972472913373696
Ti 13.473483899154402 16.74801239689815 10.874493574020933
