24
Energy = -155.3332475 eV
Ti 10.489285796467884 13.820873397496413 16.211573099634283
Ti 12.892306555669604 15.485814110293688 11.396973144428895
Ti 13.165469718653068 11.731622098053803 12.22166546521406
Ti 13.009398533367452 14.621927605713488 15.670313106222828
Ti 11.89328677717344 13.737347050493478 13.453779911698875
Ti 12.27194652580563 9.132895150446704 12.55349018634087
Ti 14.375670840324814 12.323746091516536 14.895290261174317
Ti 14.562058520261452 14.649768461818054 13.405252995160183
Ti 15.813454266673983 12.49687256988194 12.846684852947233
Ti 10.502449273712186 10.828531989691621 13.399216976645794
Ti 11.78289343207206 12.045826933712092 15.670294383472262
Ti 13.615018368041518 9.566264160116223 10.58224841345928
Ti 14.582394678068692 13.743972358727664 10.810860201866916
Ti 9.277570874009358 13.426810437677254 14.03438725606413
Ti 13.3117294623088 11.807102707256814 9.405360194512152
Ti 11.163253414934443 10.749484398159938 10.693734098956567
Ti 11.699193007161645 13.523401092101771 10.289562848132
Ti 12.822141991896453 10.193199873443355 14.638194771254609
Ti 10.307033739249277 15.323290297886446 12.15172719945081
Ti 10.501854551576786 15.72930365655658 14.773713384864095
Ti 12.528823024120198 16.349654312512943 13.583855050123216
Ti 15.452584567866786 11.268406683993152 10.74906167358156
Ti 9.810243783950357 12.709853863248536 11.744401234069056
Ti 14.9005797430792 9.937642049635388 13.047399728516988
