24
Energy = -154.48576905 eV
Ti 12.361926816557284 11.925468356598449 6.7087954657045765
Ti 14.112080349118106 11.177507346778375 7.820156568872716
Ti 10.869265963647424 13.276056969412807 12.040275405201761
Ti 12.263040291068535 12.318489247434817 9.428098895022544
Ti 12.843021606728087 11.542563358406804 12.238066307658755
Ti 7.74646206059928 11.936621861436924 9.61162469799801
Ti 9.790754554391658 11.454400860609766 7.966865383919139
Ti 10.537037882590534 11.198465409445458 13.489543939717597
Ti 13.24975349028676 9.93473466416512 10.356223594275509
Ti 9.631193767626643 13.327819775084292 9.91280350793199
Ti 11.796825748229654 9.85579978657034 8.27668357073788
Ti 10.699491568413059 10.975456171767489 10.829881640966473
Ti 11.683070843538319 9.039651645123367 12.516557601204788
Ti 9.156044221421602 9.176624846055189 10.019273235142663
Ti 11.786175825843438 7.807300936752093 10.094415383706089
Ti 9.379650582147278 8.725209976819448 7.433718758366219
Ti 7.325794009278795 10.17364201603028 8.146691824422343
Ti 8.439026404577179 11.9237628105965 12.059636991089242
Ti 6.794104402118652 9.819189771483023 10.919635728069629
Ti 8.83861938794706 9.246800734959606 12.813984080380477
Ti 9.513926828134482 6.661781660620666 9.282035299602368
Ti 7.233202459509983 7.872910597289265 8.824816334331091
Ti 10.068375689057614 7.126835092186709 11.77886771677413
Ti 7.6943197969486725 7.31607065415288 11.244512618683533
