21
Energy = -131.43213169 eV
Ti 7.716955349762659 13.050571184505449 7.869546992694095
Ti 6.781661129938818 10.635745555265752 8.420894025961344
Ti 7.522459422385946 12.037398287117632 10.237316430100462
Ti 9.430762322054473 13.607128321956916 9.592735295576363
Ti 9.478621098038273 11.257341454846298 8.304262532446675
Ti 8.541049842714125 8.72513926393381 7.727732628727859
Ti 8.00939415031385 9.1695623303986 10.22013542661576
Ti 10.852898562598465 8.762616912305036 7.0511588866251245
Ti 7.739448361927284 10.254017362881617 12.651262465272975
Ti 9.7020502424075 11.559316030096449 11.509822712839012
Ti 10.847501439146326 9.619173529989041 9.733374381121624
Ti 11.884402444109304 12.086744140829301 9.968087021763262
Ti 10.103556698246347 7.257521946280211 9.24933566437627
Ti 11.963565718304926 10.380795020415682 12.238254834172375
Ti 9.694441777462702 8.57201032239785 12.101498533711064
Ti 12.404765845849377 10.667576573016282 7.816270733063217
Ti 9.921895252432604 10.417835947175453 13.983979885703656
Ti 12.702063717651862 8.078772553465802 8.547634533147733
Ti 13.517532773164694 9.9599656399278 10.063291407024712
Ti 12.18348947976521 7.9205982581976 11.203981066427678
Ti 11.459916652899437 8.442983351598626 13.973445706318662
