29
Energy = -187.73829802 eV
Ti 13.544348703839288 8.38138917053818 12.653142785412825
Ti 15.993157290068542 11.495494498877544 15.77625705350722
Ti 12.251587490765164 16.36403991938773 11.85219022603926
Ti 10.719860216280338 15.857339907816499 14.335279895309581
Ti 13.30826263890912 11.471614490620782 15.831793912556446
Ti 12.804616402445891 11.21929439208479 13.010975082763524
Ti 12.319542995976775 9.12275277141879 14.705143436248392
Ti 11.231649251050467 9.360197523244963 12.266019484250396
Ti 10.248895116069992 12.054791650180054 12.335135971744895
Ti 11.627956276488295 13.14554117896781 14.587595130650342
Ti 10.463166140800201 10.771453284759014 14.439744847771854
Ti 14.82527572218724 12.814181196447754 13.73324745241006
Ti 14.834896654012036 9.71048012174347 14.516134663606145
Ti 14.851529035099674 13.943657306090032 16.092096741238937
Ti 16.935277041940942 13.562795129977665 12.12894936459894
Ti 17.300529485216735 13.233399804010926 14.709643285352081
Ti 14.767599307879173 16.482650289294984 15.451428474983938
Ti 13.284323376419652 14.965129865681934 13.670647801401753
Ti 9.202754226253408 13.41304038835127 14.450135660967172
Ti 14.663320195926119 9.955210548369125 11.502878792135887
Ti 10.399875348654593 14.51582587331487 12.36726236171991
Ti 12.478317775447918 15.377665691840848 16.202225425040538
Ti 12.649494347133869 17.460211564958236 14.48182602767149
Ti 14.596043711365692 17.193966794139683 12.892233241587451
Ti 12.551757986413739 13.570736593510643 11.247995373825676
Ti 16.305764598317232 15.432820211261498 13.663341785713385
Ti 14.79546930776433 15.09418947461794 11.35649420346768
Ti 15.00576163708393 12.348969798424415 11.049353144769269
Ti 16.68392412249311 11.104497015865272 13.073401090336452
