26
Energy = -168.03449884 eV
Ti 11.466549958480043 16.142759434104665 14.501523338763079
Ti 14.281438206982202 10.126477942329522 10.375379135662724
Ti 12.846429767236 14.985359631770955 9.829422167135094
Ti 15.352278320167555 14.191789125468226 10.515282353442894
Ti 9.965414496867497 11.736749847619967 12.521913153449484
Ti 11.25175204212734 10.602611264339494 10.083232902557599
Ti 10.930581319697797 13.49252607357288 10.907115979279697
Ti 12.613515274875908 11.265996848390756 12.085705444101741
Ti 12.653878843302872 8.529462291191088 11.110173571696068
Ti 9.86885116259201 12.246881014852066 15.129759969037247
Ti 11.744059415251675 13.41899935086528 13.81996830643514
Ti 14.245866453268953 9.559545726825569 13.025347632326431
Ti 13.68362839239915 16.502860844105978 13.655036675117591
Ti 13.387466316012857 12.512919590272302 9.77338864938854
Ti 13.47373980654409 14.07095905002787 12.2569957361419
Ti 9.566562630747425 14.54126127605072 13.47265287238784
Ti 10.843731384006873 9.190291258420558 12.374188748717708
Ti 15.631023906965009 14.694083204271442 13.295720662643637
Ti 13.609546428868443 14.649540782710483 15.471773560711371
Ti 11.543917759195503 16.046534116728793 11.906487601844132
Ti 14.29417044155962 12.105881216089376 14.421886323150002
Ti 12.365418802062546 12.400194144652733 16.21900880542503
Ti 15.267942940102934 11.9893228065904 12.05462656915125
Ti 11.864520853396385 10.581450426042695 14.50826347878903
Ti 10.796103369565078 14.461189915974016 16.03574178120149
Ti 14.374837975530307 16.388310792974337 11.392290183450335
