21
Energy = -135.52326523 eV
Ti 10.361770128908312 9.566576433488462 10.739148193337032
Ti 9.531252617876046 11.986735458401817 14.173393920565832
Ti 9.485541860956527 9.659060842711952 13.282333053601606
Ti 14.238350823936468 12.001881433716312 14.50783631502955
Ti 13.03082082925887 10.015677658440099 10.613506769202148
Ti 14.07883542568697 14.6475165035501 14.051004888297513
Ti 11.79276527570853 10.537539181810327 14.92770604528601
Ti 13.978734864242853 15.117762413239907 11.313617097684126
Ti 11.738988977052617 13.364176658390795 14.779775039338165
Ti 11.414391695642603 11.190800893563834 12.452310630785286
Ti 13.029456813621698 12.96292423332908 12.400018766914789
Ti 11.921489181772408 15.385949541156634 12.875432561381361
Ti 13.860929924111069 12.602525698614178 10.011032705749974
Ti 8.934814003577621 11.653864675054088 11.594511570890708
Ti 11.182639421573107 11.902304501773141 9.856234629589741
Ti 10.08343522045902 13.82947822329941 12.606479586618816
Ti 13.740158571452826 9.691204636786503 13.323864916906006
Ti 11.662545151376255 14.34755081326783 10.470190923154064
Ti 15.560671123092977 13.336954644541757 12.287774659803524
Ti 15.05720476340432 11.043459755610026 11.979369254012168
Ti 11.739791660214904 8.60291780454523 12.738420456380497
