25
Energy = -162.06979867 eV
Ti 6.315374300493372 9.86002800155276 7.405987467763742
Ti 8.344590155831806 11.59110267414317 7.470500192878228
Ti 11.139001878572603 7.997239148372214 6.852784262054262
Ti 8.824503538676325 9.414190522896384 6.494300558800813
Ti 8.346183810499172 7.320440903960317 7.481906438500234
Ti 12.474669899056634 7.118228726345456 9.069867514433286
Ti 9.839377779059213 13.011318651180103 9.17362702743825
Ti 10.824295368038007 10.834804954752508 7.480057476830998
Ti 12.777441862020316 9.465933632786276 8.377196787680198
Ti 7.110160256075032 12.08388589505432 9.495794763416189
Ti 10.248437946084437 8.573282579583195 9.196551143502802
Ti 10.292676198949895 5.969907838384792 8.571492069682055
Ti 12.14873869534783 11.554031927294684 9.850033819821443
Ti 8.228832179408366 6.800955625766183 9.936647259645925
Ti 9.649099944421149 10.805355669874201 10.63478910265698
Ti 7.723043064081699 9.417596842067304 9.181240640692348
Ti 8.282405181727652 12.981594326765517 11.515704840110411
Ti 10.720963468696102 6.832009582081476 11.123297285218523
Ti 12.554638094048164 8.943259484560459 10.957931373139777
Ti 8.46500565166259 8.493283459015961 11.858907293967535
Ti 10.732097115165656 12.998281053075798 11.68871247885089
Ti 7.040569515475484 10.655262821464097 11.58640534785469
Ti 11.8431805796171 11.03315875696763 12.461442952486667
Ti 9.235984425962421 11.129870866099504 13.182029987265878
Ti 10.635315948411943 8.911562913339786 12.749378772691678
