20
Energy = -125.98655301 eV
Ti 12.979381474088008 11.89470529246103 9.589999308925183
Ti 9.684847705081232 13.404592912727555 12.3725443539383
Ti 13.095736958116712 11.046909875191856 13.977461319978785
Ti 8.758229778105994 9.23851269946391 8.917781393572543
Ti 11.395726127031013 11.603310983706855 11.936246520849709
Ti 14.018807912366704 12.376302388507955 11.971669058104084
Ti 11.184900345075766 9.277855643625404 13.38874085643779
Ti 11.161242530738896 9.538110766843424 10.3905055553332
Ti 8.96915459020504 10.714022903737003 13.035691522945516
Ti 9.103560687665103 8.71327974075041 11.519636481895757
Ti 10.967556790777406 10.87710388591291 8.094700123041122
Ti 12.216965255097097 13.519469087999589 13.5811916149641
Ti 13.012949458733571 9.273842643328948 8.668736326046025
Ti 10.636978603696924 11.66631684095299 14.49359891885427
Ti 8.459179421952717 11.666876085161231 8.115787105066756
Ti 10.904921440406556 8.216955243063072 8.186285724242685
Ti 8.618538750375519 11.301863373799964 10.603957673415369
Ti 12.138152867293664 14.02966183583237 11.103857466672316
Ti 10.427612683489716 13.033989621492958 9.673724477590012
Ti 13.502738340076604 9.843499895813455 11.615065918500026
