27
Energy = -174.81670248 eV
Ti 15.976550795723997 12.849974231803527 16.54057957112602
Ti 16.555299867991216 12.070910550893968 14.300916584757413
Ti 15.35323001345301 13.977208050344354 12.077311718974368
Ti 14.546212783601147 13.712499242626757 14.625924111690084
Ti 15.592300755713497 11.534149678224038 10.964148114495831
Ti 14.379869234698917 11.157327837743473 13.000358944681958
Ti 13.421274623698954 15.367678039868245 13.045614289216612
Ti 12.96465795388947 12.784155725591983 11.168469639212079
Ti 14.17386051146682 11.140435344445695 15.444225853460546
Ti 11.674767391469334 15.052750562139675 14.98937095112114
Ti 12.921707933483995 13.181868658328954 16.5980951294304
Ti 11.984603343596904 12.598175258953242 13.980476316094272
Ti 14.061153472792395 11.456611655879321 8.835825942921296
Ti 11.063808378684033 15.06811522228534 12.309195162696723
Ti 13.393991263015613 9.966377510223776 10.758382410758555
Ti 10.351575201723916 13.004795595809274 16.12005778477656
Ti 15.136955175856832 13.68570978114547 9.546050431724666
Ti 9.474143860945658 13.825774693181621 13.98250618845117
Ti 11.64511745899686 10.87730883831352 16.200617922559395
Ti 12.318932837657128 9.754861592230387 13.9653806240042
Ti 13.232255258971211 15.357043664462498 10.491760832101347
Ti 9.941540328422835 12.546130913416054 11.772931593574357
Ti 11.179769375928709 10.530863179659544 11.926468522045631
Ti 9.796986056307707 11.122058805981798 14.267258566098564
Ti 11.421250937008136 11.445425480957434 9.40953145961606
Ti 10.841191090581312 14.094041519725568 9.945817141009327
Ti 12.761761510645437 13.577259734214701 8.53538584038384
