27
Energy = -175.88289203 eV
Ti 8.057474231358782 7.437979837433373 9.348588795698614
Ti 6.785316662267908 9.63610821117296 8.877454077994308
Ti 7.001439185503476 8.747366182456116 11.27383060592424
Ti 9.378132274880752 7.644359673957189 11.794071224084062
Ti 8.298345658203663 9.845433026311841 13.02910733588293
Ti 8.126493993344068 11.67585615887444 8.389023639876717
Ti 10.512650984468893 7.476171961779648 9.275165003454033
Ti 9.23610528942802 9.769352626568596 9.95804252524502
Ti 9.01090459688326 12.343601741399283 13.026625781428143
Ti 7.236914985043762 11.377069576459292 10.9935467183434
Ti 10.806856131819865 9.15561712249557 13.693404728008591
Ti 11.956586175616623 8.318073443062667 11.24243189459859
Ti 10.527444502736 10.733304025844074 11.838288752638505
Ti 14.377996965728684 10.07517241434686 10.252936616854942
Ti 11.930747599657408 9.556871406991226 8.739125373569607
Ti 9.164271980672249 9.21601651759045 7.535562561107552
Ti 10.707559163348504 11.645512029674396 8.335535201504717
Ti 9.375574327170206 12.95890644550815 10.26720841719184
Ti 10.876275974139133 13.762219323491145 11.996477649070643
Ti 13.16005368489106 9.790045974492923 12.7874905107243
Ti 12.102934589286994 12.060065719579386 13.635967147815231
Ti 12.365940020775687 11.663971523585886 10.656162375414821
Ti 13.382584749355042 11.757499085649007 8.242548658781798
Ti 12.18274580018663 13.956492404709683 9.492733165056476
Ti 13.304031121410558 13.927094431523345 11.966153234732701
Ti 14.667220481801369 12.836189815849746 10.072316485622517
Ti 14.557594267079303 11.726276638973085 12.381533953340423
