23
Energy = -147.87456129 eV
Ti 8.503113910589816 10.076551976363842 7.420399253165806
Ti 9.070034371051996 12.67251237761216 8.037183333406922
Ti 10.875607451276117 11.165823944929386 6.746676129961454
Ti 6.205872047903009 8.991115561489982 8.025568510721481
Ti 11.559261212383129 13.005644464955912 8.489627240341964
Ti 7.895338074554226 7.659742403236574 6.736687795551046
Ti 8.191754340215605 8.071299446780666 9.227401632308464
Ti 8.246431109588768 11.204857315612525 12.184399938238942
Ti 10.557462974786493 10.756534131982175 9.271884660753168
Ti 12.939514389971135 10.608377944695873 8.488600014282436
Ti 10.63050129863518 8.513150109128913 7.7100465165523575
Ti 12.357503002984513 12.235984503269094 10.698183452278409
Ti 9.721976039731704 12.787811089841776 10.691961513091005
Ti 12.341436943224606 8.180271141978679 9.723026225072083
Ti 9.741852512319964 9.245366817296041 10.936289641668184
Ti 10.4581363272845 6.7490692840569455 9.969039926847211
Ti 7.612080715563502 11.016959395659011 9.667775527877287
Ti 7.100121050353397 9.008305935743154 11.52296769270148
Ti 12.825014140383605 9.920248907278452 11.165192732531521
Ti 8.813199482235898 7.011518323418366 11.845979397258915
Ti 10.902013107714328 10.994035296448322 12.635110067505657
Ti 11.359681863254268 7.961833161080731 12.344624025783823
Ti 9.033486123902716 9.104378957050598 13.402767262008583
