26
Energy = -168.93130847 eV
Ti 12.002969649723875 12.322544014589099 11.613835740652595
Ti 13.632926642251153 10.109007749644324 11.356508793918419
Ti 13.799417126225185 11.979668698014615 9.779768224060483
Ti 9.518456737213464 13.466324282524353 11.378058320684625
Ti 10.375606551296954 11.915799854989714 13.570706871392202
Ti 13.147603788407512 11.622714560087532 7.430780423737029
Ti 11.520630452192458 9.594766633866024 12.766922005261813
Ti 13.831581610693675 9.347007081293247 8.789103248006269
Ti 12.378015276411004 7.957533859458636 10.807798084184713
Ti 11.497959628307033 13.165997586382893 9.071281714201799
Ti 8.848987054795353 9.564602059242151 13.611345202947932
Ti 7.8863634523618895 12.19711986244854 13.204264773405805
Ti 11.605821393784078 10.473940697676639 9.39337266476164
Ti 10.039046964469431 7.409823756684472 12.371177079468413
Ti 7.1660752132572965 12.371758015741007 10.68581079049873
Ti 10.689901658224295 11.692777607153383 6.989555687294982
Ti 9.003032574303928 12.020935045264943 8.84907439362819
Ti 9.284296452716706 10.940637155546543 11.411770702676767
Ti 9.78593676257408 8.852444202489885 10.279752322193433
Ti 11.9172874969238 9.448390898666794 6.832681172345692
Ti 6.693636354634029 10.264517856971935 12.082201358646994
Ti 7.2930075488056865 9.832023218668839 9.504818992302352
Ti 9.343509672193857 9.47677525580792 7.6368498328766306
Ti 8.631613561024151 7.191645265630943 9.287772086501946
Ti 7.635837739568803 8.062158466439381 11.625896854082349
Ti 11.368059873370038 7.703366455213963 8.479896111929966
