25
Energy = -156.94720502 eV
Ti 10.465070276965942 10.001709049179299 7.360639241450516
Ti 8.137184115574751 10.123493158260903 8.492347130883813
Ti 9.401649724272971 12.394654559219846 7.985872539026077
Ti 12.411234582931712 11.710835543713813 8.427407387317265
Ti 13.725373059759635 13.391884418727654 9.806317834733266
Ti 9.895503680794398 8.182377656832642 9.039889719764027
Ti 9.047416526744573 14.936711577814162 9.427430899470227
Ti 12.463750786092502 9.188077228093364 9.17151899888475
Ti 14.686901797307458 11.058664148799293 9.588745565080213
Ti 8.305316816741556 12.632327348065271 10.379356637323912
Ti 10.204145271043208 10.702600470591214 9.882506578684792
Ti 10.909452545016897 13.324833617349094 10.124180121870035
Ti 11.77188491779099 7.176516154444268 10.60762102312533
Ti 12.756195344233227 11.323508735384886 11.165490607145003
Ti 11.012749485807628 9.389865234127116 12.002790642560155
Ti 10.008957201771306 12.03916562827288 12.590519481808029
Ti 11.993136848048634 13.884976936573171 12.397723877450424
Ti 13.564031434883665 8.64552580046583 11.712697908546575
Ti 11.737825063919386 7.2318444726441715 13.165455628163604
Ti 9.335858223745737 14.4780863444909 12.028545814124467
Ti 10.144650428377373 9.755214365980565 14.375139406101441
Ti 12.812737507997449 9.123791269830305 14.150453625644237
Ti 12.223695981097215 11.588985831172693 13.890581948940174
Ti 10.022485113654968 11.77928890606509 15.390393150968096
Ti 10.736562113244002 13.708830391718648 14.61014307875088
