20
Energy = -123.29033212 eV
Ti 13.418777989591947 10.017103255342578 11.6249718223543
Ti 8.610192051294579 10.268101331369524 12.22473938365704
Ti 7.5499387367796915 12.904080663156119 9.179959333729393
Ti 8.234689501880778 8.610522578472432 10.293820946163887
Ti 10.492004975040942 8.85406086105888 8.551045803739015
Ti 11.575419872608995 13.612455929710968 9.985564697915557
Ti 13.501572423070803 12.621964928861305 11.35677466920747
Ti 11.051543874943004 11.60367529390355 12.022870704886401
Ti 14.092919202638113 9.169429695553088 14.03034695117173
Ti 10.80039684395593 8.871709038772565 11.186265713172087
Ti 9.854847234226213 12.852692668991416 8.302167981498975
Ti 11.498609483515924 14.162398558773255 12.340899823265548
Ti 12.801615865904203 8.356215920995497 9.633765890309814
Ti 9.376300695156843 10.85323367396917 9.876595912301175
Ti 13.031388385935271 11.691512601136267 13.734915629324716
Ti 9.092757871244137 13.218462579081397 11.225081177322549
Ti 9.183180952668344 15.003575802975753 9.633151425399562
Ti 12.041314057347925 10.916803485120349 9.39407256790858
Ti 12.912661901542696 7.617383055599193 12.472958147649097
Ti 11.611808415982495 9.526558412485786 13.661971754352482
