20
Energy = -126.50802517 eV
Ti 10.77259712666645 11.090699937394957 7.454121729338992
Ti 8.045987782593246 11.426867483122 8.153403966887828
Ti 8.985063997614915 8.914193569959291 8.105198521366628
Ti 11.780200586132779 8.550445704315857 7.918037836313197
Ti 10.500966252251224 7.349318738083022 9.826202749823278
Ti 11.203753113737132 10.24724043161158 9.858286891610911
Ti 12.309687098774447 12.6252751385187 9.286184978856701
Ti 9.735343032701081 13.007335560356957 9.049240039653025
Ti 6.73754508441812 9.858672758894935 9.78045282860243
Ti 13.385922695230368 10.443388960434078 8.670154044663484
Ti 12.94329297854311 8.436122721623802 10.300218169816498
Ti 8.022398660990554 7.780602161238379 10.357138247098428
Ti 9.049953402622851 10.462969159580565 10.371890837055508
Ti 12.847730677860946 11.043947391463519 11.47000918124719
Ti 10.718431603347286 12.802117529444796 11.31151138035622
Ti 7.8764235492362475 12.305105366321195 10.986922968064412
Ti 10.74836508478937 8.765699597566368 12.139375658302754
Ti 10.073949044351904 11.03883254211385 12.819649430082523
Ti 9.154570965646025 7.048259757101676 12.454014466928719
Ti 7.779468726377124 9.474556954739377 12.359637537816024
