23
Energy = -149.53168269 eV
Ti 11.754439253144112 14.521577536740136 10.409152694272002
Ti 9.972140608642182 11.232542726389196 15.059854346189455
Ti 9.412686563148975 10.866918901062107 10.833721122986326
Ti 11.597299864170907 14.89553844098783 13.051808638442152
Ti 11.848126193369955 9.670783715255073 11.253122505867182
Ti 15.768796125108654 14.152365105233836 11.726026943079036
Ti 13.464780518637403 12.745894405756621 11.976691943990742
Ti 13.87349037519411 11.634412187503454 14.684268190367119
Ti 11.266727223409784 12.07219724701248 9.732959811805562
Ti 15.755925164051998 12.134222019898221 13.343997717106717
Ti 13.67657993480719 15.441404415293833 11.58148050827244
Ti 9.888227714683785 9.549718441639586 13.00941168613106
Ti 9.563572088015874 13.549440607137713 11.312398184085724
Ti 15.672541455616727 11.747778026215638 10.786092655405884
Ti 12.189316430612667 9.868379721804143 14.051097335537186
Ti 11.108156329298383 11.919824858751653 12.665142666654097
Ti 14.185295344874115 14.269855978612751 14.01945796409959
Ti 13.560688355969008 10.993562895391031 9.822908658376472
Ti 14.175004238467636 13.670549480278448 9.599815075680844
Ti 11.898519776000185 13.163538958408385 15.033206470019056
Ti 8.378038747846185 11.695828232285193 12.997451928286669
Ti 14.253608579766443 10.115233041891603 12.323606177858947
Ti 9.572137766165602 13.614744463018097 14.094979188833209
