28
Energy = -182.98755505 eV
Ti 8.320925006037866 12.42834057147328 7.35687920229963
Ti 10.32600427450683 10.5529501953239 6.729428177518301
Ti 7.5415867159970995 9.74237384278538 7.6642512385171155
Ti 10.681255688372941 13.162293651548165 8.127135762978002
Ti 7.7923814322970815 7.066491618312448 9.294352773338773
Ti 6.85351965114827 11.747230122342273 9.459268264416329
Ti 8.672235252193822 13.413134307365064 10.097880605001214
Ti 9.374659633056762 8.05365945406828 7.067252806183456
Ti 9.503453207535063 11.034758425846737 8.9790337711466
Ti 12.631653387651394 11.336528139357755 8.289133246416899
Ti 11.871655912834589 8.618055400665376 7.90997849665521
Ti 6.767855244170785 9.506430198778816 10.290104881792342
Ti 10.425895557190795 6.391537593515537 8.678047438431097
Ti 9.454494730749317 8.563171474759697 9.699548809092965
Ti 7.221794951479604 11.63196243970877 12.24706025226102
Ti 9.144582275992253 10.87901808585308 11.255866145352295
Ti 11.384660864739486 12.896726523227212 10.592509245160084
Ti 11.639238552378723 10.038293210891219 10.366530898070677
Ti 13.934384849311904 9.304107479975512 9.491165257853796
Ti 9.720614688534583 12.886473540406815 12.683322552375083
Ti 8.079926105452254 8.457431080913084 12.113593423817763
Ti 9.80728385920345 6.510083091516684 11.256843299742895
Ti 13.675936563152097 11.521050412673157 10.879232901392827
Ti 12.221040526920948 7.347802290847629 10.446296842853522
Ti 9.298349394705573 10.402440735359585 13.72376150862776
Ti 11.754713664757801 11.173280924412945 12.882506429263213
Ti 10.853070202586636 8.501528895776264 12.681485395016452
Ti 13.382151495079285 9.168169980332694 12.07285406246219
