22
Energy = -142.56103885 eV
Ti 13.42014908328061 11.37976616161292 9.784836824771997
Ti 11.945848009348573 12.758781485254774 8.088989022164398
Ti 12.548244406942983 13.891903948602595 10.34108605324056
Ti 12.79243385856495 12.519829619981257 12.458096885486494
Ti 14.145097770763858 10.197003757920768 11.891805457757695
Ti 10.32813025809123 14.452219204593806 9.298241102450545
Ti 12.748941785239783 10.442880185578886 14.065943157778142
Ti 10.352223980616936 13.885483391484003 12.059980017700996
Ti 9.375338488549362 12.30453873195193 7.983388433709413
Ti 10.614650686207144 11.989807968377674 10.32464665582724
Ti 8.300404769951466 13.263724188545739 10.20255939383046
Ti 11.361523558098703 10.283369996380435 8.315315240975352
Ti 11.449093553865517 10.066960440907717 11.736402871156782
Ti 12.993514939330513 8.144987393643952 12.770822398167384
Ti 8.44022107732717 11.865905940581817 12.184348877811377
Ti 10.707286741300402 8.822312328735133 13.9862871054583
Ti 8.310938290224106 10.63726932511693 9.81827823264604
Ti 10.483818122247634 11.658761304491293 13.718519073592814
Ti 9.969564677233306 8.640486615643615 9.723195413011705
Ti 12.749504832435509 8.643249271608385 10.016902034777319
Ti 8.8711242744422 9.308925740019683 12.088218794386366
Ti 10.795699471935386 7.500293515014679 11.703751821986888
