27
Energy = -174.04416004 eV
Ti 11.293889035084865 13.304360586340755 13.776895039904542
Ti 11.374331586091552 14.217695789252486 11.215642824676415
Ti 8.94443817250385 13.158679151647243 12.322125902787356
Ti 12.23118717077631 12.173959409209377 7.262907053313806
Ti 11.23772817360278 13.917200293205273 8.58487015172406
Ti 9.139531134056876 13.673299694437521 9.777887069432428
Ti 9.403514455332546 12.412892937621741 7.363971906624257
Ti 9.77123435512147 11.305137480768417 14.246648943676439
Ti 7.9246804775098925 11.439942993822388 9.721942788142952
Ti 8.48523938453501 10.419044385003406 12.209549705395734
Ti 13.34216499837779 12.881824271318251 12.397313930115898
Ti 8.717639268002829 9.807912828614034 7.78418297620057
Ti 13.162449423671287 12.546288017912145 9.825083785173131
Ti 10.975870587514299 11.659984222978945 11.758025624075778
Ti 12.550626736785222 10.845518995893842 13.854752466503806
Ti 8.700924636955516 9.08443675566857 14.824212294843681
Ti 8.937979984463768 8.978532159191149 10.211499668992062
Ti 10.574935295622813 11.145530809775405 9.209766469356428
Ti 11.043552316871253 10.1783581909082 6.778237534759316
Ti 13.074253259732817 10.000388057164907 8.736652404949798
Ti 13.93305259876939 10.39835449808767 11.479821367959032
Ti 10.375103465546774 8.632746712390384 13.141314521620654
Ti 11.153558218945903 9.217052219335107 15.490336740851467
Ti 11.579271242025193 9.215766186863387 11.055981350454141
Ti 13.020576424676777 8.439614295595478 13.193584076940091
Ti 10.873399588679378 8.374231211293703 8.616998924331643
Ti 13.48181502614749 7.868442327518428 10.461734809473649
