24
Energy = -150.32846505 eV
Ti 6.9769146066511345 7.334691324146393 8.196042583334785
Ti 7.367354951250637 10.09253855945619 8.29437446008838
Ti 8.546589248138199 12.517995566729876 8.777722451224802
Ti 7.302613017402717 11.236068966198065 10.79348700004953
Ti 9.346020925640923 8.095959448785516 7.967600111297482
Ti 7.537352477607078 8.482744773233149 10.469870796456338
Ti 8.045804906160255 11.900446688791858 13.249763574303564
Ti 9.02776093008091 9.679675244178165 12.645878350897389
Ti 9.824010069467764 10.734792200217871 7.12875241930096
Ti 9.539148462560627 10.174316583182252 9.777690023314305
Ti 8.701624078906423 6.244483285114729 9.771389678173135
Ti 9.713947037019999 12.599005314203511 11.471437131012468
Ti 12.418195984369264 12.635160240637893 11.94826302771074
Ti 10.31952230867533 7.814754009246664 11.211159928366335
Ti 10.521785582004542 13.144193406492702 7.022329062714921
Ti 10.590340223092022 11.547912035461064 13.775479551740794
Ti 11.338409500778836 12.36036083693928 9.37099930622983
Ti 11.27765996843342 6.704290959492348 9.123322222198466
Ti 11.864037514615518 9.207826681167603 8.5734572554623
Ti 11.55690659034804 8.883147349893838 13.386947896416356
Ti 11.577950551548508 10.417962374709974 11.500094689284328
Ti 12.466106833478996 11.435983725896307 7.259748365750561
Ti 12.897214295368537 8.20034150100346 10.774202622340983
Ti 13.492480641591177 10.807994295220965 9.781252519295423
