20
Energy = -126.60585886 eV
Ti 10.0440178233775 11.988664359653708 7.976859214382774
Ti 10.566204140327134 9.567236717709628 7.7779620499095445
Ti 12.505098738865726 11.337605218271085 8.481730186977806
Ti 9.687159135656433 8.106999476545907 9.908351382025606
Ti 8.419868986790851 12.39809455724642 9.832052347870746
Ti 11.01318865965324 13.318843882014702 9.816430412652304
Ti 8.362378001729713 10.089364036920045 8.738708293928816
Ti 12.176123262472089 8.559636710322204 9.045176176891918
Ti 13.686653632791339 9.925965487584262 10.317950243495309
Ti 10.795355861517479 10.520866761190078 10.618172426904868
Ti 11.971191795403339 8.129945936123729 11.546946856361988
Ti 13.205022198996351 12.422330110762129 10.879401653070223
Ti 8.016155546547335 10.082160583506896 11.194409742177463
Ti 11.42143490108613 14.327150597153857 12.00175367305238
Ti 9.077103838046868 12.802111155074458 11.851981147903286
Ti 11.128531109930185 9.670735995458832 13.537205574928539
Ti 11.438220366318774 12.243143814403338 13.106039225381428
Ti 13.187463101494147 10.423884175733384 12.546341979395512
Ti 9.38174892572346 8.352654300659195 12.432904643154787
Ti 8.992337031909425 10.807863182302729 13.464879828171519
