38
Energy = -250.50667752 eV
Ti 8.751846794721946 14.239891522434892 8.716792097991721
Ti 9.520083343145311 13.185197747801364 15.210912792059231
Ti 9.817477970298762 14.771409804662008 13.049898966831785
Ti 9.331211656695253 12.283396714249658 7.214818186348949
Ti 7.807861192669938 13.055472836636653 13.575167451186022
Ti 10.584056917261758 14.74914734638449 10.423116977985478
Ti 8.032309508786343 13.848784776082567 11.162496038733552
Ti 11.18936611294939 13.733352870016088 8.100210711356231
Ti 7.359931600439623 11.981072895863008 9.201278354169514
Ti 11.899152804605272 13.828462774784901 14.556887382426932
Ti 12.531261215907966 13.973786868241993 12.196073982642428
Ti 11.305334914284098 11.430555953057432 15.429182963257015
Ti 8.808326840971615 10.730766591174202 14.52760292178088
Ti 12.641496315945409 12.87620344553345 9.919306999132111
Ti 10.375167876526737 12.106459491225904 12.806130420028119
Ti 8.857825548852778 10.025501443531525 7.874517295891405
Ti 9.85517394315141 11.996721309925004 9.937133518945574
Ti 7.511112528464317 11.314667906790705 11.915723485528519
Ti 14.765015020661156 13.883985149571727 13.735847876726709
Ti 12.561471205466198 10.484371408834303 11.34758631744483
Ti 8.17014357215424 9.42288559128287 10.192434675419463
Ti 11.795180809150205 11.163175817116839 7.838348246048371
Ti 15.897615340056255 11.77814290992115 13.734557476308536
Ti 11.342409222022761 9.574284676323009 13.75606926136361
Ti 13.316553380065029 11.646918658962907 13.47502733853648
Ti 14.953742629496535 12.660881007333211 11.4371827856911
Ti 10.980081799829016 9.2102404570287 9.73841908495108
Ti 9.512174637558003 9.259731751918903 12.327346971591647
Ti 11.061981205066987 8.557080203294317 7.112695223871104
Ti 13.81201106366462 8.915344055069387 13.16341768455711
Ti 14.272371359881445 10.772523361814823 9.291072002994103
Ti 9.62587933646097 7.07061441164899 10.826447568099262
Ti 11.82539766088048 7.504856166343604 11.92242818033482
Ti 15.362037240416225 10.190922341222917 11.675245736339987
Ti 13.225211488940362 8.86512307450876 8.090906653244508
Ti 13.938440609515837 8.224237882874338 10.499685545997238
Ti 9.265399073705995 7.519218138350979 8.493625519394513
Ti 11.799549908005435 6.826274286857794 9.186068953466867
