35
Energy = -231.54706994 eV
Ti 13.599685920163601 13.151576581281956 11.629958266865955
Ti 13.271720266053832 10.890103532327245 12.877118236243662
Ti 14.388718355274133 10.898944826499886 10.406939328671802
Ti 11.570666735408473 13.16790523957324 13.136538849108486
Ti 13.347417789734179 13.08026620716476 9.178360741532817
Ti 11.255004895940077 14.028117037565186 10.530435627032155
Ti 11.11111735877429 10.740265394283 14.150108353931346
Ti 13.303903021533703 8.525367739609255 11.351497366166372
Ti 9.460199703758025 12.533764554257539 14.493057974539502
Ti 11.740500128254999 11.444025032948442 10.781098709590403
Ti 10.85847397959922 9.130150207018826 12.309399918390032
Ti 13.328217924061216 10.912993144210633 7.815331436668081
Ti 14.397909970487467 8.81581613491275 8.927014794613115
Ti 9.026604909033567 14.039077654025489 12.260137997753063
Ti 11.01972418034661 12.494035084845642 8.228055575932334
Ti 9.239948385861226 11.457061414521748 11.961172459432056
Ti 7.264038111957896 12.334507674701845 13.563239788393307
Ti 13.04385962990328 6.8050892991039875 9.36406727286633
Ti 8.553727580530762 9.99167302488476 14.022353144345209
Ti 11.653000892490297 9.118550238738461 9.167578989160152
Ti 12.607461643129648 8.177562908101418 7.025574215256973
Ti 10.8876091996771 6.993971139520195 10.900210353365402
Ti 8.830143442450314 13.050712562618594 9.521534486154767
Ti 11.164150688863524 10.446449592354648 6.650333076140838
Ti 6.952669632077529 12.843224385443389 11.176859056229832
Ti 9.064341027740719 9.706944572839095 9.776918002460787
Ti 8.397460800787345 8.0733012360121 11.961417427769309
Ti 6.689182081402506 10.253430879789182 12.048215188156034
Ti 10.889391692649749 6.545715832700271 8.275644576941213
Ti 8.76145868648932 11.065592218107895 7.452305986641352
Ti 9.702773286382145 8.449165717974658 7.024901787518448
Ti 6.7938577487543395 11.079781010175896 9.363505166777797
Ti 8.628138609714162 7.0830887854780915 9.34650862649107
Ti 6.629672538464471 8.515821873211095 10.214562911882064
Ti 7.326211821087027 8.91490990203571 7.8670069458143805
