37
Energy = -245.60567668 eV
Ti 10.698480816046478 6.560490119883241 9.0051845773491
Ti 12.996362966476946 7.4297959609792485 10.066927201285525
Ti 11.044551265112943 7.016978432015572 11.685899783665723
Ti 13.83481763220509 7.695859558767141 12.970550602810016
Ti 14.871306732452092 9.01968912918542 10.779573223136216
Ti 11.944537288815667 8.269717205824415 7.597176817564621
Ti 8.671536594607527 7.595595724140379 10.20133485285223
Ti 13.481741014836528 9.97333757593089 8.86560499897212
Ti 9.369030158059266 8.519798322475166 7.795162017981693
Ti 11.35968913237407 8.27328316217506 14.225390224326741
Ti 10.859664645455045 9.121926079269576 9.892767437589912
Ti 15.028052601529627 10.159969697768794 12.956653512572942
Ti 12.446175170231319 9.529516935373575 12.123665757316383
Ti 10.919284391744629 10.864513417942923 7.750955009021409
Ti 12.969311843970809 12.644312253809087 8.469594751035658
Ti 9.463982608892882 8.932398632263602 12.399567799610884
Ti 13.302074231176906 9.828938439673239 14.66610429233098
Ti 14.587767302615491 11.654875887252155 10.839770833463147
Ti 11.999826189718014 11.608468264077933 10.829087967686503
Ti 7.058793275923185 10.127849666062662 11.869646104238013
Ti 10.600155710621348 13.39364992435721 7.077607376547569
Ti 13.378380577756603 12.25293339812962 13.163406536074215
Ti 8.469335392090024 10.26386170481737 9.593822329225981
Ti 8.471591647966074 12.190324630494642 7.695592968606145
Ti 9.333811330289107 11.573751270160294 11.996433547468428
Ti 10.13866711834238 12.832876606514033 9.690906732440329
Ti 11.036268568696594 11.03183765404428 14.084489494731898
Ti 12.969561808158277 14.034640097790346 10.763949485501687
Ti 8.30326096073025 10.506907201579706 14.193577184982548
Ti 11.64555649670182 14.939876162074844 8.672975597380477
Ti 7.328031045485108 12.481495655041412 10.290368353599947
Ti 6.93267314286796 12.43256153057277 12.994012274844431
Ti 11.113757013448208 13.745989455080258 12.835779244223273
Ti 8.918787214838403 14.756454049557568 8.805528961565832
Ti 9.062425904867993 12.991984130966943 14.256711833663601
Ti 10.63974317034448 15.322084923464422 10.886388743954976
Ti 8.521356276256737 14.191806382190261 11.778180812084548
