32
Energy = -210.97062239 eV
Ti 14.909843036992857 15.553920968345333 11.123188613261282
Ti 12.218401616583238 15.866348235355051 10.633407705182414
Ti 11.990473933640637 15.291094271556666 15.83741664654582
Ti 11.897014127992737 11.525561071309793 12.535163188093055
Ti 13.684916367012354 15.099977548947523 8.625674508215875
Ti 12.120785190106954 12.680986187272524 17.095682400363362
Ti 11.37975104823067 14.01948241306943 8.986865677436885
Ti 11.35450968709844 11.499962318645599 9.853842970379217
Ti 13.641584056039282 12.334557429492122 8.302247619223392
Ti 10.196802866821137 15.191750545668864 13.944604944725517
Ti 11.108488733285222 9.34956772182304 11.50954741654068
Ti 10.756697413023621 13.825270151814932 11.693246264915784
Ti 12.815177812824468 15.173389487131226 13.176751978773474
Ti 10.096643897744961 10.062255292937753 13.906408476418886
Ti 13.485838581249245 10.299718648575277 10.67985390061213
Ti 14.220493801508347 12.876458988294734 12.948354451125363
Ti 16.348639141129492 12.634940016117511 14.298611987919243
Ti 16.56526063196204 13.35030417259719 11.705681003792359
Ti 13.354838313026026 13.361024298927326 10.584133775293706
Ti 9.887058856907588 11.51139727573993 16.125073198302463
Ti 14.183015575872185 11.300492454998292 15.178949231739857
Ti 15.465070074216376 10.644782609499034 12.639981616518792
Ti 15.56300131446819 15.071205272038142 13.585764460552978
Ti 9.816996494887302 13.976722723326557 16.218214415245402
Ti 13.06326172083127 9.412434651309805 13.426624955192123
Ti 15.706383364587335 13.813720171145683 9.224634621432909
Ti 11.679342246703763 12.979187207942251 14.634681639838977
Ti 14.223535944326152 13.869705229616915 15.490351988131083
Ti 15.566283687943404 11.51311515172123 10.114897921008309
Ti 9.07151252485462 12.680016969971804 13.835433052430107
Ti 11.993140401998396 10.286378499337854 15.717880364258704
Ti 9.417171843747015 11.398100684119 11.609060706475478
