30
Energy = -197.12590043 eV
Ti 12.28972962854542 14.442936583831338 9.615383347287132
Ti 10.03287691559296 13.728289370093927 8.351417151085696
Ti 12.552028736181079 12.70433790165347 7.815048160183887
Ti 7.860683516187622 10.267879773085523 10.650755496933183
Ti 11.021474836899024 12.02110192399464 9.85147625539235
Ti 12.75966049941084 9.987549770322307 8.962639337001864
Ti 9.20391635182585 8.30752026586628 11.935539716579449
Ti 10.709807731640465 11.193597062459542 7.34239239053778
Ti 15.203757853914455 10.299694245847206 10.687714201452527
Ti 13.113799426893099 14.252158720907977 12.084257776950569
Ti 13.845522829973127 8.15215234504161 10.82449682347228
Ti 11.472720208323226 7.905805034607798 10.353551782811097
Ti 8.587900626199525 11.558751571096973 8.583737533599733
Ti 14.010256198406468 12.565190813218845 10.111423395903248
Ti 9.810330287240385 9.25291107507454 9.020876910121082
Ti 14.630600817278276 11.97654721880487 12.787455662729801
Ti 10.343973591564577 14.8122819942606 11.285665581362226
Ti 11.16379191203334 12.513416111606247 12.490907386297705
Ti 8.37361020633142 11.074674044163253 13.151419660127662
Ti 12.838205302063358 10.464567637017893 11.648326198365536
Ti 12.060028869205503 8.135433878784058 12.913844754111224
Ti 10.351385109915991 10.140559772949384 11.589557231430161
Ti 11.152044165831986 14.655415663981001 13.871398196306284
Ti 14.602794884608931 9.223927939550412 13.058867677968408
Ti 8.435915869411314 12.832087050753715 10.920641796450806
Ti 8.856817518394616 13.700528709185262 13.270775906988645
Ti 10.203918260157215 9.558113719284158 14.249483661204435
Ti 12.611796189384593 10.457762823165806 14.444019037192112
Ti 12.90871865055151 12.95927249880705 14.53959201419356
Ti 10.324772773168569 12.18837424771879 14.920174723094169
