34
Energy = -225.0470204 eV
Ti 8.172281722774573 13.198807148429026 12.128909978250974
Ti 10.171864714129208 11.776806191968852 13.098278294317076
Ti 7.755758355207302 10.51620744714402 12.903670033651204
Ti 10.580843834431098 13.683234558237103 10.983539305168062
Ti 6.498817969764406 11.697631034744592 10.904576458441301
Ti 11.885386657301817 13.750670937659805 13.427484663997108
Ti 8.004753226469335 13.245040629192024 9.361569732427958
Ti 9.230726393314185 11.377388043592937 10.570980921434504
Ti 10.118844570490086 9.201611181261441 13.30939329836049
Ti 12.628773818025863 11.254073488203986 14.281559959551148
Ti 7.967163952055904 7.874927774952187 12.917893058491241
Ti 6.52254711372332 9.038532846944854 10.872180372286943
Ti 10.551371350043024 13.406169526988226 8.376705727326103
Ti 13.254000884569058 14.366128802076666 11.304825597099105
Ti 12.500520188551278 11.808735545253235 11.735272950711432
Ti 14.379345500566986 13.013920130069344 13.192698377637942
Ti 7.214311668416062 10.591221111066979 8.750519246738639
Ti 7.666276739112214 7.956521032329577 8.623025371341528
Ti 7.756599765549902 6.554862644337232 10.786987370659554
Ti 9.171715862213418 8.811733917291457 10.692710122985318
Ti 13.016603923399348 13.305054242801399 8.859299908928566
Ti 11.86626612521873 11.481984636229736 7.018512152244633
Ti 11.735121733109448 10.863487380491952 9.479954415431875
Ti 10.187824175054068 6.772614720077483 11.963761055765675
Ti 9.185877806882278 11.6166275562759 7.566955866700963
Ti 12.579428379089634 9.10997339923557 12.518327443344454
Ti 14.674289182282442 10.56044658020863 12.73358480902173
Ti 10.096539796534701 9.21272599151363 8.096666772032266
Ti 9.859940724391333 6.705733279032979 9.245668334691612
Ti 14.852576889311514 12.264373834153043 10.567065457032665
Ti 11.768158101028682 8.244332541177632 10.223165193784153
Ti 12.800819173769877 9.039653251845433 7.940781494932771
Ti 14.196699764885365 11.160445810227532 8.24092371761241
Ti 14.164279354686645 9.554652201338495 10.338881953952754
