32
Energy = -210.08165082 eV
Ti 14.248747656987524 11.424911766936413 9.203016405065954
Ti 14.857335457081831 9.29342455641564 10.437608103198503
Ti 11.872217137078353 12.083890186079064 8.133086518157214
Ti 12.340969301426457 9.592159418328082 9.649357456190595
Ti 16.069248980878985 11.581106812763197 11.20744150012016
Ti 9.388181408202412 12.788441366292588 8.768914529027183
Ti 15.407618645033423 9.434210947646314 12.807024399268212
Ti 9.918970646958757 10.352826284145191 9.118607951660932
Ti 12.840066185801335 8.6332635768715 12.342245274630256
Ti 11.285697336755586 12.101355120390942 10.580167965518848
Ti 10.368084361409089 9.425112113424856 11.552708489296075
Ti 15.613028554124982 11.843014306807115 13.733545544582709
Ti 11.334083129063945 11.489252762368888 13.450749146949496
Ti 13.47838988549534 13.84529041712486 9.693705924572676
Ti 8.61522656556835 11.668067768310575 11.078577395729237
Ti 10.923844976908011 9.284228677383776 14.568356147204996
Ti 9.022282761472425 13.214858553139104 13.29384748207505
Ti 9.155374940911724 14.24825546061256 10.836184222774182
Ti 9.534550958260557 11.519055029812323 15.38050581667194
Ti 13.581257738578062 11.10443121517738 11.902187714431005
Ti 14.21046491023037 13.55389894833947 12.160785807752125
Ti 8.835587464407062 10.353497699812161 13.353412141388832
Ti 11.245060338706955 14.625296747341997 9.427492580688355
Ti 10.959325779840087 13.838597573555623 15.025102010063769
Ti 11.867674968826114 11.394957335447735 16.07182202487659
Ti 13.609650316910525 10.029654440546226 14.598346163561253
Ti 13.20360053971644 15.944299149110332 11.65416282468187
Ti 11.594091702331387 13.948633768102493 12.242318179775769
Ti 15.406886395098313 14.910963199248261 13.569071679978808
Ti 13.569434207032641 12.947850314408685 14.821124989000236
Ti 12.902203385101068 15.43554067149045 14.145554367814452
Ti 10.452292922989512 15.801103371753904 12.90441880248084
