33
Energy = -216.67169613 eV
Ti 12.122611588468274 13.011893579090767 13.66205180302493
Ti 12.238437705336038 14.461016642665816 11.807468485641216
Ti 11.44525075399531 8.633095233293593 14.335963991568823
Ti 7.941115816831801 13.939313544343594 11.558815207874892
Ti 8.983091967088935 13.532640602677322 9.052716547569133
Ti 12.644011928463282 7.070693969780758 12.321502382072602
Ti 8.674349288827969 7.609707149967174 11.018249830745539
Ti 14.281277716189788 10.407522413764719 9.382378512089451
Ti 11.492727106098656 14.23711664820493 9.30968178709918
Ti 10.26297851929754 6.994504699891201 12.7025842814194
Ti 9.92386959002583 15.18059362714874 10.967305148216873
Ti 13.514666601655232 8.264603822709141 10.318459182114376
Ti 11.39725118704224 9.445310537669528 11.847346888513764
Ti 9.698720372711989 8.706476608955892 8.523206208554035
Ti 13.275123637126264 11.06079631603195 7.071744214752062
Ti 10.874828307757904 10.158457853097158 6.6637645587625425
Ti 13.121751555638872 11.702193375669248 11.503194552545388
Ti 12.865988259783968 10.772631610013287 14.050387381086473
Ti 13.992914847957705 9.21190295645572 12.711660198592812
Ti 12.555571319349161 8.633576436581999 7.935030795507774
Ti 13.460703491377842 12.805718121117295 9.004757239586842
Ti 11.537213177341211 10.799297532832135 9.193341436443754
Ti 11.131882957058101 7.202472169419645 10.10823624000661
Ti 11.154671107101423 12.675137022340254 7.276544662115624
Ti 9.131168544525128 10.247184315559464 10.77303473886843
Ti 8.87793450017296 11.073020759168454 8.132314764640512
Ti 10.296416671224774 11.181145963408788 14.021350521492124
Ti 8.768661300713426 9.039418070079451 13.32466792958596
Ti 10.37505652853835 12.515638131042337 11.317357201800595
Ti 9.717411517098073 13.889607109392049 13.451345036674047
Ti 6.931780793632596 9.590960299782312 11.23311425518092
Ti 7.896056120609074 11.69475313354517 12.883210077065637
Ti 7.1860321000188385 12.044961487477714 10.29220540690535
