35
Energy = -231.59830903 eV
Ti 13.783478055003977 9.425944329964246 9.128946248328104
Ti 15.244157269762956 11.184495214313374 10.26804191852387
Ti 11.060422215916603 12.806553709677122 7.457838944152311
Ti 13.529831177943562 12.042201385021125 8.284885155741577
Ti 11.650272412916232 10.116802011553732 7.363855256106207
Ti 12.128978226406003 14.11080780345887 9.546267206074939
Ti 14.621556994143956 9.309757062171666 11.913413468030878
Ti 13.379893161200556 7.276602790009816 10.61901530382147
Ti 14.341478011647649 13.450445670876345 10.465752518443797
Ti 8.914590124633106 11.260954306488133 8.190011485565329
Ti 11.78817893937809 7.785193678616263 8.706671217778934
Ti 9.434711723441573 8.861731481389917 9.019634700955395
Ti 12.82972434496489 11.40110226084256 11.60661570161202
Ti 10.53927337473904 15.428940463301313 11.198308928195182
Ti 11.279266596331512 11.217750964949143 9.463671703952008
Ti 7.346879737529152 12.587301492100272 9.953173454270042
Ti 6.920954412806441 10.031335683902372 10.458914083060163
Ti 9.176466619707785 10.791108207155869 11.133403031761192
Ti 9.462431594473053 13.747100664800616 9.311342953603551
Ti 11.471048247573355 9.096678534028118 11.05783527023364
Ti 10.590811341912259 12.863858992181878 11.840641980823735
Ti 10.848976125129116 6.6714785171827495 11.033107873020198
Ti 13.356649896656808 10.154238747571828 14.046506214294618
Ti 14.832942374164013 12.08038742429715 12.798020591723335
Ti 12.530683828324623 7.856498193007267 13.04639524175587
Ti 10.726714672089184 10.333069159077995 13.619337687965814
Ti 10.381767567975233 14.639746991701323 13.671400645986047
Ti 7.778519425917419 9.662188505254852 13.112066623732114
Ti 7.014065745358136 11.943432935797635 12.341899277569976
Ti 8.470417303480087 8.040927880419527 11.163145084546723
Ti 12.793375209064587 14.295438603752459 12.38775638840582
Ti 8.989743978484823 12.382265451979992 14.019285205244246
Ti 8.328755434005952 14.191590939033171 12.003635598857295
Ti 9.878900927136918 7.937301782396749 13.179003990100718
Ti 12.115199424178698 12.505463888731116 14.084633623881148
