36
Energy = -236.32468836 eV
Ti 11.29114385436067 13.248724818901378 9.091610706314608
Ti 9.928643316539823 11.430129831124491 7.6316523800785
Ti 8.422082814169809 10.485063513744334 11.705438729073963
Ti 12.682978273767821 13.49469944191164 11.390552984130638
Ti 10.7092340697395 9.498091483441835 12.670043117128841
Ti 10.318661868630562 12.441691076019918 12.029753819859502
Ti 13.625238005287574 15.5381030248793 14.285817460281018
Ti 10.55396154556628 10.663680379924044 10.087633733430474
Ti 9.515225972019726 8.297650737197703 10.643378530454244
Ti 14.194687404531223 13.200003947951426 15.460711992943596
Ti 12.533956797993335 11.169431264188315 7.701655039408819
Ti 8.33089735888549 9.881487989582725 9.021301257153935
Ti 13.914841085869828 8.969344497908464 12.749740326889745
Ti 11.82334855912803 13.704804902113858 14.058508605575378
Ti 11.481130379905098 15.880521016121499 12.444020441245593
Ti 7.833843102661581 13.159227691614053 12.318804035569958
Ti 8.669262259335603 12.546765848988157 9.797165566479977
Ti 10.764098383524006 8.89773348490606 8.225132093247042
Ti 9.238605007516199 14.916731708625916 13.62170247532094
Ti 14.726059185629934 13.321103346525573 13.10057642511141
Ti 12.982307478482976 10.715429671114515 10.405161473635207
Ti 12.121014104709376 8.056830044385162 10.700503481043267
Ti 16.503315079454396 9.668130465264376 12.398661210210227
Ti 14.896948845948423 10.823759207479444 14.314536972836375
Ti 14.942034927593973 11.2813640719577 11.539912460521819
Ti 11.888299195057444 11.853388190500318 15.985421104171001
Ti 14.83296829900292 8.609899874380982 10.46033215217086
Ti 13.340277930257939 8.805855880182584 8.445184359863049
Ti 9.626811535353141 11.847993508213241 14.340368515369248
Ti 11.098848714010721 16.06828948824885 14.985062508458599
Ti 15.092176347447353 10.676965981429902 8.768851527524868
Ti 9.974968489227601 13.826623747359422 16.01373553892777
Ti 12.410239463979373 14.503732936492364 16.539183717961492
Ti 14.029390690630251 12.945451391964694 9.253893388264272
Ti 9.579650758353901 14.756809477024332 11.055758181828836
Ti 12.616361052943303 11.307998215847732 13.251745845029754
