36
Energy = -237.97530465 eV
Ti 12.425830987353622 16.179373155357272 9.441733442088795
Ti 14.392138911358655 15.162498565458817 10.699350247030383
Ti 13.610648585744357 13.908683435506928 8.510999153840999
Ti 11.942335113689337 14.124761199476078 11.231193773403977
Ti 14.070844384766614 14.215353880256012 13.012774887440592
Ti 11.84839539761601 12.178686468997833 9.71898388155335
Ti 12.307593699433541 16.358972125952043 12.16414393650919
Ti 13.17323321245582 11.58089245228894 12.787249618972155
Ti 10.558682681616997 12.359930792337327 12.728480024991999
Ti 10.67251944488718 14.390686047040372 8.402923052243134
Ti 14.612383674119188 12.478563538267618 10.674226549440485
Ti 15.718591964948198 12.083864865745872 13.263003858989766
Ti 10.14591835715704 15.964154415006716 10.475877582421813
Ti 13.876267960588757 11.171123951975515 8.33315231429836
Ti 14.093288040195187 12.663825894308058 15.15997043976557
Ti 11.865377593823125 14.213899790597202 14.323830681507522
Ti 11.886530511918073 12.367240163725043 7.0760242893165675
Ti 15.221162333076723 10.04744166805587 11.972580827565391
Ti 9.870211082868805 14.997117228922637 12.815466838108026
Ti 11.467748390362239 10.040611960446943 8.292146475538681
Ti 14.317565262080755 10.059294633230083 14.612712692833764
Ti 9.225368203479434 13.435208066642415 10.51417077482866
Ti 13.000274578333872 9.87648434664137 10.551361103300827
Ti 9.625369495618981 11.916994996965357 8.298555652187837
Ti 11.95874749351624 11.513239642668267 15.487299088973748
Ti 13.353266869057009 8.285599582248064 12.862567346575872
Ti 11.032054470176963 9.706262940505795 13.043849803753035
Ti 9.613384082998486 12.972061135319663 14.941463585985511
Ti 11.409709512651148 8.013067289947633 10.911758196634
Ti 11.789194185693923 8.7511190628621 15.307136840525818
Ti 8.424208897274726 10.657669607657482 13.050407648636622
Ti 9.95880330637674 10.486385052246282 10.621173136534173
Ti 11.031770879524526 7.079254708676824 13.321841262151814
Ti 9.67697998104569 10.481884851950948 15.458394450183905
Ti 9.068992800975103 8.234878227124593 11.878276039175702
Ti 9.138531715394128 8.397831867176684 14.433250183981386
