31
Energy = -203.71760655 eV
Ti 13.002904845950951 9.497084707485081 7.075711034618329
Ti 10.533142486380576 10.359198408172638 6.688217420310622
Ti 12.690186724421178 11.960214295060544 6.50233494410884
Ti 11.312074099177037 8.409143615777541 8.7552813235232
Ti 14.42893947717405 11.389402511839887 8.361122015582243
Ti 10.590617013125547 13.027907032346143 7.52757339111982
Ti 13.75942339714754 9.195131198015948 9.55954164858315
Ti 11.782253868937822 11.016214080142154 8.923849906136018
Ti 8.937059851649764 11.340559618583328 8.552781238605858
Ti 8.776594168546085 8.864942341502756 9.514505753106928
Ti 12.917850056110709 13.484308029937244 8.659950267049068
Ti 11.911427953680144 9.286064843163695 11.253103886915245
Ti 10.867698551339924 13.180272676857856 10.30765619094996
Ti 13.451903028116158 11.858378815360537 10.881415222342739
Ti 13.960169054191056 9.972546776670663 12.735304356725141
Ti 7.114947822938245 10.784730534917252 10.244364197840268
Ti 9.594534503613103 10.812826034504857 11.27311813042065
Ti 14.044065635824586 12.596250595594984 13.431867637908654
Ti 12.370713272952113 14.051880312868347 12.28215812733429
Ti 8.26207417348842 13.097226373319682 10.482909029128715
Ti 9.878083997212007 7.900623636026584 11.814976866196089
Ti 11.638133775936762 11.482881309093857 13.042659425159858
Ti 7.629919534213085 9.008278512991726 11.922861927849098
Ti 9.726842916304449 13.649067708155144 12.680938769955967
Ti 7.586303427113392 11.613055397409067 12.750181557644517
Ti 13.302103114332384 10.898299143967174 15.117297839681255
Ti 11.872128754252593 8.847348463846002 13.939169418414902
Ti 11.82051119153173 13.241726592389497 14.892393887579463
Ti 9.25225434382098 9.59703075180454 13.90464695787859
Ti 9.336176420114214 12.159291893875226 14.595539865331608
Ti 10.974061880896034 10.743213128813002 15.651667102491228
