35
Energy = -231.60668126 eV
Ti 15.33579439588262 11.87863065937551 11.643544230861208
Ti 15.82491146677396 9.444009368298783 11.010748527618377
Ti 14.3197919691634 9.988863226960772 13.187364095077767
Ti 15.124226069614796 11.133146977368703 8.99943458083629
Ti 13.663710011356514 13.237397703249409 10.24856518420295
Ti 12.97035821063556 12.276529339151484 12.709027996544773
Ti 11.28125558355031 10.909178090648654 14.230673418650355
Ti 13.810639967987848 7.83725245157137 11.630852477240133
Ti 13.285067771616504 10.359682366411935 10.725397324292251
Ti 14.42399199854365 8.452181153038966 9.200799818484326
Ti 10.54634739878696 13.500055686664489 14.242922495762128
Ti 9.080779832137187 14.58800202341367 12.262954171219567
Ti 13.357572073103714 12.645527278088638 7.814914494273195
Ti 11.800349093125167 9.083034990868393 12.647717818271367
Ti 10.972840412402379 13.868499272775248 8.469437863560735
Ti 11.324883730464252 11.55442914892514 9.351569135733994
Ti 9.028652223817307 11.451101421735164 15.191674748407934
Ti 13.05951441311024 9.96923664344431 7.623609126744156
Ti 11.179016417602597 13.412069311185139 11.420878321353337
Ti 9.231601885533257 11.883520845681394 12.561180082390486
Ti 11.395794084174991 11.837747860583423 6.671222147219904
Ti 7.852083711605681 13.4460181805872 14.29368250209542
Ti 11.775348373317648 8.252106963082618 9.735945592797288
Ti 8.87770572403799 12.914986118255849 10.037318490847863
Ti 9.913715798512184 9.888912033826626 10.911629290999548
Ti 10.021188243748092 7.400046643570537 11.743977608953749
Ti 9.236482306842221 9.21946204469669 13.696765441699293
Ti 6.900356944940462 13.233514548117391 11.982907500736484
Ti 6.948020060105291 10.939135930301072 13.481690711765564
Ti 9.188427249870507 12.024281444312633 7.6168427239979755
Ti 10.316368417291736 9.532987555771136 7.707497822280116
Ti 6.896061117285003 11.117858505217733 10.813549005336537
Ti 9.13386649547898 7.756739558085444 9.428154365067646
Ti 7.640254851019848 8.729868431790324 11.487385476368418
Ti 8.028838900150749 9.979803426534533 8.963982611898633
