30
Energy = -196.95275244 eV
Ti 9.191920689416232 9.413844472171156 6.4384683915720515
Ti 11.52187636345639 10.733999324562797 6.776302159343418
Ti 8.990116579708433 11.828551709901062 6.822375787091598
Ti 10.86920925030254 13.330806785019115 7.311504578081667
Ti 11.168505344888 8.33354884538387 7.998344784753151
Ti 8.436760884827233 7.747040027101591 8.039059355417544
Ti 13.139426021983773 12.496396389782834 8.024907788237007
Ti 13.470048476815553 9.850201353562655 8.727610987790808
Ti 11.0259867551498 11.642523633069903 9.370496671197216
Ti 7.030688942168603 10.105474480715225 7.911377720560703
Ti 12.725828450347496 7.466109159945767 10.049427413106692
Ti 8.806805805072157 13.177191666407479 9.045160212535855
Ti 9.11362590992876 10.08702292155088 9.077231446731455
Ti 10.01523385461255 7.1979008476874995 10.133213491363195
Ti 11.548836954104486 13.923198919420138 9.847762447393645
Ti 7.285794224056133 11.135638549130366 10.851596998532694
Ti 13.617646677654653 11.94807589723028 10.387299690035185
Ti 9.444855638761313 12.563970441461674 11.493732667024236
Ti 11.495139779757492 7.673339313340941 12.476287706655523
Ti 11.56600879055629 9.626384677903447 10.597787435624973
Ti 11.989399579767426 11.990365093212795 12.171047469554857
Ti 8.841622173791121 7.274155468545452 12.327477307682207
Ti 9.494136585801714 9.904869177767756 11.999070067593049
Ti 7.364915753251321 8.439272326866245 10.313398452550503
Ti 13.70297813806143 9.499763150302291 11.626087137502536
Ti 7.90442338084734 11.340715638599896 13.527203978310345
Ti 11.917907955830085 9.815572130340827 13.661735439578395
Ti 10.197817613410317 11.58023222308097 14.124358953935658
Ti 9.328200553009324 9.053693085411101 14.36678206103011
Ti 7.098335925907993 9.124195343770573 12.806944452460492
