31
Energy = -202.85709333 eV
Ti 12.783550692435043 10.016155286857897 15.157535292404793
Ti 10.532245665079918 11.12410258018386 15.047323275142952
Ti 13.047510549229877 12.420484139064287 14.457424376657851
Ti 11.676352614058244 8.750116791392427 13.507511915612378
Ti 14.013708217074587 10.077741172385979 12.858632011691698
Ti 14.262518340964183 12.445183081446311 11.998012179325814
Ti 9.062247586759735 9.371510827099636 13.61294907421354
Ti 10.66121129793301 13.505400484726703 14.12743113488571
Ti 11.50359081536427 11.402766146254853 12.552258185000875
Ti 10.457748616062858 7.905492101641312 11.441733634635955
Ti 12.467388258617243 14.161757262611227 12.581477356603298
Ti 12.901744282068053 9.19996359712522 10.934246715680617
Ti 7.872919345698866 8.10006550943901 11.67460653827563
Ti 8.62632850763529 12.087066492313369 13.24789861604596
Ti 15.03455677462515 10.97506534278198 10.005252191650898
Ti 14.389895469794567 13.580646704078084 9.586574184496365
Ti 11.826773357746479 14.354873171447254 10.171500087415398
Ti 12.434191871200209 11.694910787091613 9.811237771667251
Ti 13.551177957274515 9.616908710001733 8.361592503859864
Ti 9.407291111017432 10.362941187110843 10.990725968230025
Ti 6.9004382163732805 9.780893397892985 9.908814908357565
Ti 11.069436029575408 9.300363805808136 8.948410791880026
Ti 9.865412749015926 13.685325465126269 11.596068260749323
Ti 7.0177774162692765 10.425491541275758 12.341322386892296
Ti 14.221122769420377 11.903978284891634 7.6351428585979235
Ti 8.836259422637744 8.206123153405192 9.325203714844138
Ti 12.342868243523084 13.596797314354038 7.877962716421913
Ti 11.640182576894473 11.201054610288306 7.242116577413148
Ti 10.00702907294287 12.809980167674302 8.930270191446404
Ti 7.715237508356225 12.26860914815515 10.46412619287341
Ti 8.757787776176388 10.65106858722206 8.343415344583647
