33
Energy = -214.59833327 eV
Ti 18.52487598791537 16.60531130194017 10.024822895683391
Ti 11.106586734690467 9.916828197082665 15.218332116258923
Ti 10.618586129324981 16.539527567630202 13.062800413470166
Ti 15.637389608667027 13.478161507440594 9.98880371049865
Ti 12.558930319554143 16.641551449254123 14.936033467514422
Ti 13.838203762902012 9.683088376447406 15.359027919992178
Ti 16.63958406489276 15.724990026568817 8.913124555618635
Ti 14.628821638621465 12.543357100138381 15.613090588377991
Ti 12.499729195091149 10.277491551083386 11.188783970264161
Ti 17.149036066289725 12.639021313629057 12.045196250834731
Ti 9.631634753828337 14.164865816259056 12.803009172904485
Ti 10.324660831249938 10.499734697415793 12.850644910775554
Ti 10.293858682015046 15.10170763309219 15.131432063887141
Ti 15.837737080398849 11.244468546273529 13.894080875297478
Ti 16.651299619150407 14.07410378477596 14.274178667849117
Ti 14.989286975409211 16.31907627003521 13.474702439933312
Ti 14.513213193032726 9.298947488161396 12.831797785557677
Ti 10.972534966478571 12.473321240210714 11.503031278954262
Ti 12.212157513768387 8.730253629126869 13.388096353421435
Ti 12.872990607162768 11.418673351552583 13.6254653692309
Ti 12.909442505570269 16.965081436526997 12.254683805158807
Ti 14.151962976171554 15.436290235550947 10.633109775142179
Ti 18.335719667282554 14.118111783739199 9.811650968018617
Ti 15.105541131653535 11.075434750321184 11.19171577347609
Ti 16.785733316813616 15.19871130183531 11.675369603754152
Ti 13.07981953619703 12.878509051676781 10.332129075289568
Ti 14.710892526006909 13.540405512951953 12.65236544894094
Ti 12.42613748726328 14.051588403406596 16.17330165066521
Ti 14.626940411996264 15.094861727078621 15.539107108188206
Ti 12.369536178473115 11.528897952388405 16.47823741184503
Ti 11.451401213749072 15.07687515720665 10.941778415051045
Ti 12.329805602012334 14.505443684759767 13.432853130262533
Ti 10.403435312439745 12.477204237809094 14.826437007958907
