39
Energy = -257.52659389 eV
Ti 11.574318096221957 15.277269333590711 13.911832350705346
Ti 9.326475281722193 13.942779038564826 14.430167320564246
Ti 9.565547694425605 15.101366489558146 12.239331319141003
Ti 15.05147464276281 14.613323482010637 11.314881739321406
Ti 11.543887555253525 13.020570735932868 15.371911363510296
Ti 12.232455947925487 15.053684181391882 11.144820355808548
Ti 15.692512608663707 12.602484154290206 9.599816068743134
Ti 9.627154013325894 14.350513109900842 9.823301101147663
Ti 8.581673038848315 12.443960303988197 12.12140814699455
Ti 13.726526871645843 13.735222878448688 13.433399565439096
Ti 14.054824395534474 14.45964407973645 9.058135143481325
Ti 9.485908008816237 11.281981059997019 14.702920929272475
Ti 11.179083841478073 13.009512300124513 12.79070246563751
Ti 11.709698456656984 14.229818132267694 8.545013058659162
Ti 15.900024266835137 12.23706741550348 12.222443805819537
Ti 11.960880388911868 10.524395169050983 15.320943736910575
Ti 10.112455939683068 12.174918057863135 7.80082116277515
Ti 10.804103984458246 12.167514843330016 10.256368199187394
Ti 8.000085236085885 12.584570526126583 9.428342376784151
Ti 13.716229854726127 11.018803037485531 13.158448333139033
Ti 13.455042300066664 12.549991987709477 10.902532705907436
Ti 7.970196397077116 10.246074531502344 8.102720060333612
Ti 11.206722618484102 10.327182865213896 12.654632096777902
Ti 8.55648451261535 9.34062170583552 12.529396035734235
Ti 9.523896929030132 9.742701850545828 10.182196407330137
Ti 12.857268457148438 8.486483611246037 14.088843024847133
Ti 13.012256130124232 12.03486286575427 8.225023093580766
Ti 10.240342519421807 8.70831962706673 14.519067426468572
Ti 15.197725513690052 10.202522116879646 10.778456250051729
Ti 6.9953853233377155 10.828621238419492 10.64842628158881
Ti 10.817338484388594 9.668767272001864 7.784183730305778
Ti 12.453803755449083 10.061064595166028 9.91323609464795
Ti 11.054506670059647 7.808882115730297 12.119206115250803
Ti 9.081839603333732 7.050704122646108 10.804008787709249
Ti 15.491219595991733 9.509817408676577 13.358425032222655
Ti 8.979034212818364 7.839045842858583 8.315896644240068
Ti 7.18301753514104 8.508680517350127 10.117399324330695
Ti 13.630686474623296 8.470768490550432 11.727128967903747
Ti 11.342005338953667 7.679653421535147 9.451655250276572
