33
Energy = -216.32826245 eV
Ti 16.287931937312567 10.719271562264163 11.54290020194935
Ti 12.401798135208224 8.457773172201586 11.030547349087099
Ti 14.34244880758907 9.739096914331602 12.624506051439907
Ti 13.850333938568463 10.81264092488749 10.239186413056428
Ti 11.635508681042483 10.54006462405163 9.117008027188328
Ti 15.968252012605786 12.552797063370027 9.724546846079123
Ti 15.615984667771022 14.961104060536414 10.873103477818837
Ti 17.18576964035918 13.004954972950785 11.907989136064343
Ti 9.885485800543842 8.99468023807489 10.290200119970603
Ti 15.92348281272345 11.725636553726687 13.960818231595685
Ti 12.314616909802215 9.17225985156936 13.938890031301634
Ti 10.259066241905803 8.401031537077921 12.779060221438407
Ti 11.383585694680054 10.680858329795994 11.80881121610195
Ti 13.76579909235909 13.475725907332611 9.293546644707742
Ti 11.688356931293344 12.981068509500659 10.57728561917621
Ti 14.373531376502056 12.91395493519113 11.971207769910976
Ti 16.10862241779841 14.440384506241863 13.551953241757207
Ti 10.279942014628434 10.807059440029365 14.321915269638824
Ti 10.098258062619037 15.002420582076603 11.199795476461462
Ti 9.319981715137533 12.684632591462416 12.436545310235017
Ti 12.68906575958731 15.380768229482536 10.933268395346694
Ti 8.577875362740139 10.243231020427181 12.101014675453898
Ti 12.8229616233505 11.702076413449923 13.908402555823686
Ti 9.420785651606083 11.582325872405354 9.992773227533709
Ti 13.838844175234742 15.48399314396562 13.071515165170172
Ti 14.102400815898685 13.584382049326644 14.982550407063846
Ti 11.474340657997708 14.021571848451876 13.3971933293156
Ti 9.219815488024595 13.130230171031897 15.067819640845313
Ti 11.200001459449895 16.62064794621854 13.20073169287769
Ti 8.936513940148357 15.172806830741283 13.416532523871982
Ti 11.643776057695844 13.176564936689887 16.09305898720181
Ti 12.626355755044155 15.672487740886668 15.365064355087785
Ti 10.245795547384274 15.40509798372843 15.512038251462393
