31
Energy = -203.85530532 eV
Ti 13.311104080202224 10.459912856690606 13.80663800806598
Ti 12.63430705128491 12.996787993741815 13.34549257670912
Ti 11.284233843767868 8.846444236636753 14.307086764504485
Ti 10.811006080774298 11.43486588934114 14.553489276651126
Ti 14.362021496597375 9.731119720335027 11.405758611204234
Ti 10.254274087503386 13.981318070717958 13.666189822321119
Ti 7.941353403232466 11.099365181452747 11.184371279981894
Ti 11.79287002175715 9.882226709925982 11.81458906948015
Ti 13.115118607872585 12.217826980062352 10.735781914398675
Ti 9.093099279283637 9.651474575916389 13.172420117583616
Ti 11.604675224242833 14.477050931067563 11.531286590483704
Ti 10.474243549251327 7.481369192717945 12.134850692426056
Ti 13.124598641020604 7.93042670675267 12.826340412182475
Ti 10.489027606667815 12.059086689467524 11.91953310182664
Ti 8.397824224267879 12.20405764334692 13.471652189625422
Ti 9.948489173282766 6.695684944458317 9.574398443188526
Ti 12.362232722852305 7.765025940428303 10.207304932955248
Ti 7.8487263913508505 8.11198634361366 10.775212048642349
Ti 13.142855778030727 10.116328837615571 9.028474731445284
Ti 8.841161939486794 13.877624909444473 11.234441201160179
Ti 10.644457013950777 14.107551734331869 9.205237440752395
Ti 9.879734880131476 9.256199148759318 10.099631917415522
Ti 8.49905909788833 8.039104654013405 8.096560190513125
Ti 10.751169407989357 11.468084463453776 9.199623586613743
Ti 7.402899116913948 10.100497616679224 8.96335123298583
Ti 11.128159145692896 8.482168819490969 7.788340314815162
Ti 11.87767621021631 10.779683756536306 6.777325997690526
Ti 12.791856389495218 12.728668858736354 8.11445028609444
Ti 8.36377186581175 12.556494797300719 8.764283872361164
Ti 9.23670438367317 10.391184858855 7.062634702831316
Ti 10.355903894343976 12.819529039851574 6.993192708730296
