39
Energy = -258.37776432 eV
Ti 13.838874115423687 15.019293749771395 8.977864434682516
Ti 11.676646316723762 16.11797499808169 10.022711308865848
Ti 14.165498811765643 15.883760128946365 11.483404473662336
Ti 11.72215498773356 14.083776652771217 8.187352804735031
Ti 11.730266777750984 15.728525866804011 12.822252554761166
Ti 15.599946260482318 13.99218120727533 10.227794013402313
Ti 9.681108837805356 14.103142181371483 9.64565101617516
Ti 12.253696759491893 13.856989160400222 10.800261333973088
Ti 13.774360063865869 15.249772128533102 14.027622282033963
Ti 16.122611242876193 14.069517654998162 12.906441874719564
Ti 10.439967143898857 11.816858852503993 8.476095916978435
Ti 14.171910151861201 13.082987103645827 12.35902185689548
Ti 13.686893236346208 12.126243727447243 9.173811658582638
Ti 8.373857369850978 11.943387576018205 10.1366931533236
Ti 11.615420480918237 14.449619890550528 15.25782819195937
Ti 9.893386551140479 13.948487519695918 12.29506835522429
Ti 16.130701516008678 11.681778468773409 11.083353167212037
Ti 11.932376928217963 12.637038450842809 13.480855870052636
Ti 11.169392688713552 11.51863433951344 10.88177010492014
Ti 14.169646637781137 13.112312745071613 15.231794228933886
Ti 7.227452663041023 10.40744849775941 11.75085712350542
Ti 14.983439943741384 9.834606045061603 9.408877574459122
Ti 7.519686836801223 12.963434522722451 12.502561495340455
Ti 15.929003183205502 9.088586004412813 11.683995134273083
Ti 9.186374821841621 13.001697960620245 14.799402231075527
Ti 13.600499553819162 10.48198731852144 11.684320826623317
Ti 12.271450699691401 9.689861306033391 9.3956067037918
Ti 9.63433541956446 11.16490772112084 12.791575344955097
Ti 13.643208134269235 10.670478772827552 14.967371760893519
Ti 15.680570958782297 11.06520553399551 13.576035278445502
Ti 11.523468128194313 11.899767734474269 15.923295518414312
Ti 9.336058216652372 9.531969761972547 10.395306813197804
Ti 7.393471863789247 10.97807290792491 14.201495956029861
Ti 14.026905703982813 8.492226536002864 13.392725371265644
Ti 13.809677644038251 7.96894225624478 10.77455212012649
Ti 11.573681430842463 9.606465907913405 14.138616971547677
Ti 11.42788513833986 8.731262564999577 11.762003012238134
Ti 8.804606484285923 8.809757568668495 13.224417008885764
Ti 9.428074637131845 10.308477829799038 15.404143430855754
