39
Energy = -259.24890009 eV
Ti 9.310002877457336 13.222858857516833 9.996528146683898
Ti 11.595436387866483 13.374003712027466 11.467205569274524
Ti 10.447554311454164 13.387554065195873 7.333424454721704
Ti 9.159045843829649 14.326999257883987 12.541194199371272
Ti 13.935479841173077 14.335168798783677 10.059303208691292
Ti 12.390427582966847 12.467056582094777 8.921103325715219
Ti 8.769093818751886 11.482702415590825 7.973631945085558
Ti 7.500915683905784 12.78132332537883 13.960716909260677
Ti 12.022048154483429 12.852136171884926 13.704747436493802
Ti 9.45868387517183 11.685281499869225 12.455073439509588
Ti 11.057981214888436 10.65651175682299 6.987647692630512
Ti 12.87394276405476 10.935357431257653 11.456155919613177
Ti 11.270958414347932 11.15894868556531 15.737163842880284
Ti 15.158089878805837 11.86853258108221 9.929334865875854
Ti 9.72295328332623 13.135447118564558 14.898977197357127
Ti 15.378811852610998 10.440458227043878 12.100358064688434
Ti 14.511707678870438 12.869244053892636 12.361942425513138
Ti 7.185477947023886 12.810275563402824 11.465239449312095
Ti 13.6112684395451 10.894334724020155 14.100900070731385
Ti 12.61607480516121 8.737638579143146 15.31354631700389
Ti 11.261229910184522 14.95845837938438 9.608030277356676
Ti 14.700196603535955 13.157706555503474 7.761329412253946
Ti 13.446289158365541 8.548582645076314 12.750719061123172
Ti 11.115726646809861 9.827333778808892 13.371485611250144
Ti 8.620959025691562 10.716872991623786 15.229706528245039
Ti 14.214619709298315 9.163799233468417 10.038537161376514
Ti 10.557291102776263 10.707989692968212 9.898089061629431
Ti 10.192184830076682 8.682732905646468 15.697199201090276
Ti 12.765094429652759 14.77379783531885 7.62470847067574
Ti 7.849356430363753 10.557166185078875 10.183186924322875
Ti 7.185110017930155 10.371503429040692 12.859042103457341
Ti 13.868760453696243 10.597651819354285 7.678918081318575
Ti 11.073238033671016 7.2638535188700555 13.622960537634874
Ti 9.111570270250478 8.793206566065054 11.40227266332348
Ti 9.462786421052664 8.933507283675281 8.534451643942386
Ti 11.690951580226006 8.228454692133885 10.966390016360668
Ti 12.703556402224983 12.584807541723665 6.245987071874304
Ti 8.648243976482457 8.421536538102886 13.834346186823675
Ti 12.122862878183577 8.855187537303486 8.49442804169509
