30
Energy = -191.07940992 eV
Ti 7.525792483440911 13.982188336354955 14.061119304017618
Ti 12.582071865708736 9.59465424547384 13.47488815838914
Ti 13.698301221129018 13.518215431451798 8.642943198409979
Ti 12.27095971820837 7.177481995490629 12.174715981492607
Ti 10.864004221919833 9.229894557250539 6.905719123960444
Ti 9.062584868218625 9.462243771745792 9.033886360410952
Ti 8.975874316326259 7.228602657330592 7.817954322294378
Ti 13.105040903271359 9.183304943046162 10.758920129619586
Ti 9.21757461581295 12.66789425378951 15.330586482279603
Ti 12.498125618927991 11.593149563492322 6.905892599392977
Ti 8.78254019724529 7.2351721965639335 10.339623733969361
Ti 13.31426600195854 9.264874640786173 7.963008243737876
Ti 14.748722207557215 8.472824729044662 12.461111153819642
Ti 11.371173934828429 11.21815254213365 11.675535226599294
Ti 7.149044601988981 11.306825365544734 9.119941064467627
Ti 10.432999935678245 8.883867413649627 11.499571998463027
Ti 8.239132199265766 10.464186193183755 11.494912175088041
Ti 9.447465024915669 12.887707913210493 12.714924444030789
Ti 7.447246827909588 11.472224853959183 13.86011883215718
Ti 13.982240643269282 11.386549835559691 12.263429512913115
Ti 12.294073560362811 13.377680518235138 11.002280382219464
Ti 9.668508422280588 11.639858279837634 7.309006121730031
Ti 11.37246360313064 10.627683968137022 9.074441533339117
Ti 11.233642876643566 13.332280281311307 8.49312349534568
Ti 9.188025409057731 12.459363836795198 9.89631146695783
Ti 7.001521496443679 12.799929946737791 11.622600366142077
Ti 9.88035099218504 10.46966012350118 13.949892381419911
Ti 11.234044972838417 7.7420644158695335 9.156294006599223
Ti 13.92808457784367 11.429111226502405 9.451473694600883
Ti 11.853898855596054 12.26212813797373 13.915550680095519
