30
Energy = -193.01971037 eV
Ti 10.524440458045078 12.192201378265128 5.527729831023857
Ti 8.933513323492797 10.593119844644649 7.010303033753848
Ti 11.484992235693326 9.484750322887157 7.034581633999354
Ti 11.714919473388457 13.97980379322412 6.688886895094567
Ti 9.520814050473955 7.870125857334315 7.282864866599876
Ti 11.344382924445998 11.799691256111727 7.90398578309249
Ti 9.244749421572529 13.385331112392613 7.5410945083371885
Ti 7.476200351839446 8.692315423830738 8.966887813750235
Ti 9.843868160958037 9.453167158151816 9.248864518962606
Ti 11.792977147201118 7.56844780348333 8.925989883081348
Ti 7.718512481154481 11.750738991799473 9.247594851125996
Ti 12.892671402558616 10.019111555052666 9.472619699179933
Ti 11.112142583983452 14.366938756865018 9.29047425307063
Ti 12.873620791726346 12.749449109998185 9.966226286069125
Ti 9.409681594314094 6.7630765362567615 9.723981872651082
Ti 10.896802034571268 13.525195169004832 11.942467939716026
Ti 13.344926416753943 8.182360283985911 11.579451672800388
Ti 8.84901237849122 14.153012517990883 10.16752191393243
Ti 10.310220268185972 11.824003966574814 10.285147902748824
Ti 7.817568536077816 10.189565338849555 11.262016720127924
Ti 11.160099205877996 8.82493771878918 11.271982939917148
Ti 10.846839023570043 6.292095086456321 12.05754948341956
Ti 8.328401629639849 5.421394520197349 12.110950538837091
Ti 12.45815876095092 11.059479608396053 11.950109233496503
Ti 8.234960348695738 12.510718387754183 11.879227074231498
Ti 8.780470978976155 7.960117263313154 11.992808873160952
Ti 10.903534989739729 8.38475021127855 13.833850032993945
Ti 9.98017406240138 10.78753160340207 12.87179191783807
Ti 8.258487139444757 9.141665485747756 14.128540241705378
Ti 9.271611559517419 6.403657671703356 14.16325151902371
