31
Energy = -200.48617442 eV
Ti 16.967226321940878 11.98836767247337 12.84345835654082
Ti 13.120429117512842 10.096369865875422 11.689453386863999
Ti 14.910674802662133 13.284029997411727 16.422239521935296
Ti 15.629819314611574 9.688891181908051 12.913361303536233
Ti 16.59595126503195 14.677581960927105 12.543731329808738
Ti 8.719611370042518 14.829148962533658 9.899604741353697
Ti 12.262828559798669 16.915860946398684 10.897239135332208
Ti 14.722577885241504 13.447794870302998 13.722542548254026
Ti 13.929962654237798 10.949784015445207 14.30615451200703
Ti 12.215582785130007 12.338314051503819 10.166352679824916
Ti 12.205652047698017 12.510911946922043 12.782817479036916
Ti 11.99494448480477 14.996438161719198 12.660862880939712
Ti 11.231559978677357 10.442163184949111 13.923975581078928
Ti 12.447723953356702 9.564457836233164 16.019170180858822
Ti 10.084440503249565 17.01709005855865 9.458880787748681
Ti 11.464971071559537 14.762324206527657 9.923234681044883
Ti 9.767526873810562 12.723352132195112 9.212624353867273
Ti 16.48191526645644 11.080997624334504 15.34178920585922
Ti 14.967866669055296 8.888836118488225 15.494733297303412
Ti 9.90790911711656 16.133227771938216 11.776334681189178
Ti 17.210976637631642 13.497725773008332 14.829424552158166
Ti 14.864302914398035 11.85566222668753 11.305644695843265
Ti 12.275897696380648 12.395264501220034 15.757083741631543
Ti 14.333705159911084 16.075042153479476 13.095278345971641
Ti 13.12302398569239 8.505344356841992 13.687415900178955
Ti 15.799883207528335 15.44833459928314 15.067674770876424
Ti 14.303725959273203 10.884544585164946 16.9885899525927
Ti 9.776844967980647 13.30374042295574 11.825702407863826
Ti 13.189428204203189 14.960004347458757 15.257207457396346
Ti 10.585298243619336 10.818629525374163 11.143630887982576
Ti 14.113548970748306 14.404666486552122 11.070827532825394
