38
Energy = -249.82985486 eV
Ti 16.423488639347585 13.649338925546209 10.99622093872401
Ti 14.46640772854219 14.855133704430674 9.922830065369272
Ti 12.583025715352175 15.605107055349505 11.477259412370934
Ti 10.61339539441958 15.125651179439114 9.839733295684095
Ti 14.873528745299058 12.28505702575543 9.395957919248477
Ti 12.377424727568243 13.174586980510107 9.593097662929596
Ti 9.842512911134628 12.809786071548045 8.78607674762031
Ti 15.056724899190037 15.290976380644667 12.717837768135505
Ti 12.414189954499337 14.774739344058334 13.776671051430604
Ti 16.267481553716802 12.963096200168614 13.384300896393079
Ti 10.13768909815218 15.666768894591478 12.28224277513602
Ti 11.966914106082074 11.193399649230287 8.20527955790576
Ti 13.24309911478609 10.547617384059615 10.65037855733671
Ti 13.891549212445742 13.088722034523059 11.977453773242312
Ti 10.98704211007276 13.077758626730098 12.00371159648953
Ti 8.575837763525383 13.971562108560551 10.962243850018558
Ti 15.736328788562263 11.108103012575233 11.570887506840144
Ti 14.428525420561646 13.749941494826357 14.855013232875399
Ti 9.53050411393162 10.189147287102433 7.873008019369648
Ti 9.140860924193904 13.92005866782988 13.621716732987535
Ti 12.500760139503084 8.008804465568273 11.307014423626114
Ti 11.87673706437043 12.344968077502072 14.890369238561739
Ti 11.581069785354861 10.348414136106125 12.972561814991321
Ti 14.231815999378354 11.257855427878624 13.830944267098374
Ti 7.73008963947865 11.551927058125079 9.46278152532537
Ti 10.352995795194092 10.626838434605867 10.425085266010282
Ti 13.926639269649833 8.855710291237164 13.025334358353232
Ti 11.705559633612678 8.839052654615898 8.940103544949762
Ti 8.370524994882393 11.620046354247778 12.139509428475108
Ti 10.047438863026846 7.95249680465114 11.489020956692645
Ti 9.3726355905034 11.577626859669673 14.436073629671293
Ti 9.05226471200905 9.218801491593862 13.482302896954442
Ti 7.226257853628624 9.151748966965116 8.269442372780626
Ti 10.60024301883735 9.792862283738973 15.50594785414385
Ti 7.902509494208153 9.23552303033135 10.683185467723979
Ti 11.464898192443492 7.840996298989481 13.85411511001288
Ti 12.929353357784938 9.663627355328531 15.265990713260706
Ti 9.324260782815022 7.833739240622788 8.974873518941157
