32
Energy = -210.19417806 eV
Ti 10.677128226046467 15.418382066931915 16.912572492069064
Ti 13.693499224175829 15.358050864771773 12.59831747753712
Ti 15.14781277081102 13.71498381080197 11.0483644280397
Ti 11.473293856181542 16.741353973922504 12.94721818602049
Ti 16.119029108765137 14.254165618768749 13.391188313664136
Ti 15.395201659241808 9.495220666594614 12.170980314121755
Ti 12.672878216024541 16.319305088962565 15.375855176138593
Ti 14.302529119470181 11.830378688039856 13.07574253111016
Ti 11.169320963250916 14.363802247519406 14.324981531636302
Ti 10.652141422550589 15.376630253723262 11.033884754008241
Ti 15.396718325028683 11.245246485204737 10.486988406968184
Ti 9.387418225735901 12.916364662962337 11.444995015028738
Ti 11.887402986154648 11.726368839800955 14.838751814861824
Ti 12.690565097283171 13.857299067043233 16.65974699699095
Ti 12.072443924993786 13.13252912784993 11.860192240873987
Ti 13.273870531470381 12.250881061154331 9.503916539936817
Ti 13.12112496077601 14.979097606830685 10.045691811656113
Ti 15.869726658519083 10.031828234352735 14.46837949444584
Ti 9.147285439315525 12.504551567339352 14.049630384973126
Ti 14.024774929364243 11.226792385750299 15.817359261746393
Ti 8.937926486548479 15.113295826499389 13.006207344938089
Ti 16.915486809876416 11.761996814624942 12.608042872659933
Ti 16.226821040219615 12.453444844450667 15.137710632301834
Ti 10.849511979821969 10.729344303739586 12.649543809394425
Ti 10.941737895888695 11.198875765420146 10.204720948997513
Ti 13.244437603537508 9.496115233152452 13.818806523620205
Ti 8.685227063972322 14.58917253762954 15.481945642691018
Ti 10.036326142339682 16.779432020862004 14.880925151611752
Ti 13.079682067455648 10.04833231891904 11.126679528030133
Ti 13.937816364025515 13.893979650564502 14.697522299838244
Ti 11.013126474916174 13.604058346036254 9.398473417895437
Ti 10.275568622480414 12.837915449328436 16.532429302635702
