32
Energy = -210.26194928 eV
Ti 12.565987159078048 14.298470535170242 12.604633231322445
Ti 13.36368144600421 11.974810095862926 14.428591546768116
Ti 10.041010278481805 14.540376470336428 11.52399077875591
Ti 11.051648098894942 10.852952961301666 15.107989935017383
Ti 10.285916282630325 12.605175586970246 13.250927983403258
Ti 8.706392820721666 10.398022884947016 14.458085332176832
Ti 14.182238924197774 13.91752792406336 10.40772379159284
Ti 12.971233832937987 9.337682032265315 14.769930372778505
Ti 7.568633131078139 11.587309923372505 12.733264527693809
Ti 7.22439108637689 10.516494842638675 10.460463640454455
Ti 8.762004190478924 12.537996382956972 10.465086186895428
Ti 10.174430953463949 14.149642348201155 8.899211870047413
Ti 10.475607167583428 8.478703308621236 13.996431019312068
Ti 14.546665276061011 12.489720001360151 12.299112277479283
Ti 12.093810253960491 15.28350125875853 10.09833038469786
Ti 12.263589310669591 10.72551418673042 12.485796029765227
Ti 7.997581176808852 8.787982798543194 12.362160844673411
Ti 11.79640304805053 12.670911116154343 10.625816898324544
Ti 14.595397902927862 9.930391144446187 12.731594696198364
Ti 12.706314529737897 8.013536276766095 12.614960692785617
Ti 14.229136763370601 11.380900274738003 9.869417431920157
Ti 9.798950260416355 10.329501294494717 12.025069808418834
Ti 12.811570836033795 13.241902537944929 8.256862247613393
Ti 8.234399222920855 11.184438968766964 8.151850634716629
Ti 12.581830307323239 10.39810927012418 7.785544775044667
Ti 8.705286093057815 8.709496935578311 9.38693951247904
Ti 12.944702811193908 9.165705729272801 10.29945729764618
Ti 10.640124505965364 10.603178935394952 9.514560616137034
Ti 10.592298011932561 12.171774116244753 7.320382981425347
Ti 10.552322531569136 7.848522772953051 11.196097984211349
Ti 11.244958617250667 8.126931160003334 8.645131165443255
Ti 9.99007976111217 9.691283401132162 7.124034353514855
