36
Energy = -237.39668374 eV
Ti 7.659498613641927 11.686421807928559 9.350452894055302
Ti 14.146948580794845 9.372013867458008 8.971515855524268
Ti 12.992041949432597 10.846186810003118 13.04947360541924
Ti 6.572470073460843 10.602049779033704 11.409788505369663
Ti 11.218945736146498 15.153255066595085 13.463200495098217
Ti 9.144953197175317 11.219188216892896 11.478138020689341
Ti 14.063534899020047 8.820119670307397 14.502039451245182
Ti 11.024838593391408 12.907515225606547 12.037968448901832
Ti 15.356546611847346 10.600034651005112 10.744857398605921
Ti 8.345000380789834 8.999698136452203 12.662508226838598
Ti 11.925112624879883 14.947086978606375 10.792267933252008
Ti 14.269805532473933 15.776289373251078 11.565068892190187
Ti 12.195455833374295 10.153551018896025 15.568457654222826
Ti 10.796064093850067 9.147828490239837 11.526580967412992
Ti 13.959828686601192 15.29029114049431 9.123769721482464
Ti 8.369685420912674 9.191210958809751 9.988835424468517
Ti 14.456205773258883 12.027307965267074 8.55875296197865
Ti 11.67083777012445 8.74754003643813 9.256594298597332
Ti 9.077759206615884 13.397106346789888 13.88812533026333
Ti 10.12719645266856 10.955669088041223 8.857519451148066
Ti 12.022355035793542 13.223784159341276 8.63068652384469
Ti 14.496437708863414 11.502329451794324 15.022516484079494
Ti 7.532508292503454 11.256779647962418 13.64892665274728
Ti 12.411062469681864 10.740272178585744 7.678889561056779
Ti 11.673829079182727 8.39495162804927 13.752217230765456
Ti 15.59529568021192 9.883081633523087 13.122850940148647
Ti 15.516785091956828 12.369676881805006 12.730341785564315
Ti 10.147231836118284 10.65734824626916 14.015654281797511
Ti 13.596813567468871 8.548027009770466 11.570552696629706
Ti 9.35122188184318 15.024574339075727 11.785656241036339
Ti 9.457959289347999 13.60333317292211 9.662857899777645
Ti 11.683588959475616 12.733936143484213 14.786248376738325
Ti 7.439434877942287 13.200347865591183 11.64827896210742
Ti 12.524568883007102 11.123244642739314 10.328841721740305
Ti 13.376949840171381 13.734827549275241 13.222999908029367
Ti 14.12719265772158 13.324969121723145 10.706514873791871
