31
Energy = -200.77578575 eV
Ti 10.119141223999623 14.297024468159195 11.440736578921435
Ti 11.546871285840842 13.328158182766122 7.303177011903444
Ti 10.740508465601003 13.109675484872682 14.12132543359066
Ti 15.342659169245389 11.379731224343757 10.584175874482135
Ti 11.496113106157337 10.67030374468572 7.3440456490502655
Ti 9.774184406678508 14.325613396580989 8.770490683526518
Ti 10.524557411199465 11.726785086859792 12.037512730108501
Ti 13.650524399180409 12.338379914693387 8.825631921390098
Ti 14.847538027793135 13.752508052200145 10.752100777166957
Ti 8.28871949206654 12.634456792086075 10.105431077223244
Ti 9.228662434766795 12.100319185334508 7.555998866985905
Ti 12.3531830207722 14.363446327057416 9.845405671193934
Ti 12.999803265118922 9.965496276140936 9.708912523684292
Ti 9.35669780801596 9.902380252651971 9.18290377480739
Ti 9.855344168460588 15.49848532596128 13.694227570272226
Ti 11.207106176441462 8.327774859710326 8.752475808972642
Ti 10.980745019462248 11.99811305862372 9.492649301329966
Ti 12.386117761901495 14.571526342201134 12.68347862739207
Ti 12.435727368931715 7.275682562118831 10.742809842833386
Ti 9.598682391488586 7.315060309311106 10.391774607514124
Ti 8.349632561913252 12.904799398734944 12.872212777992143
Ti 13.675865332184609 9.581338272085125 12.123594362970643
Ti 9.366860422497652 10.49845624139839 13.998479184731165
Ti 10.928544913578692 9.187653099411923 11.751493607193925
Ti 13.069174212305727 12.14209289517554 11.640366445037703
Ti 12.075216481700975 10.354867572220497 14.126193763422965
Ti 8.175792356794018 10.43054153018715 11.576286896041836
Ti 10.61095553320422 6.541771307567971 12.57176990713811
Ti 10.469381827319095 8.210766780504775 14.552065734543742
Ti 12.664873532425991 7.798227248035376 13.411578800143573
Ti 8.57000747259591 8.166951689964078 12.786847137829605
