36
Energy = -238.77725566 eV
Ti 7.1522656905103945 9.815893309111695 12.762563223754636
Ti 6.960967984754048 9.150131872960245 10.207985743261087
Ti 9.24181487343264 8.450347322227062 13.763539703063577
Ti 7.818949404940936 7.425105432430048 11.791632687443087
Ti 7.8981716661825025 13.307924999584328 13.011884668343296
Ti 9.520344211988727 11.218631384894582 13.416047525055758
Ti 7.448180233801885 11.674096108822047 10.769769752302736
Ti 10.787676053062523 13.56152974505623 13.661532031283034
Ti 9.369711544924805 9.567938691366088 11.34717254726319
Ti 10.378139964159683 7.082863443881286 11.837877335920231
Ti 11.759845906592535 9.097855332464675 12.91263043296941
Ti 9.194093103224366 7.83544430265054 9.396076072894727
Ti 9.704924259262512 13.02886110163354 11.138219750397308
Ti 8.831393545488133 13.141848238972615 8.507146597563068
Ti 13.913833927721608 7.877722419505605 11.871289606543012
Ti 11.91304562533074 8.394729948042324 10.088326237405067
Ti 8.52289930651362 10.336361680882588 8.406718365986677
Ti 7.545039170896213 14.399335924883086 10.636916068104936
Ti 13.673143973339881 10.33105974394904 10.959832441316882
Ti 14.331632952659735 10.210478070563033 13.53191520339123
Ti 10.90302690281967 9.187930428792262 7.776725889108439
Ti 9.827213584871789 15.290390905196073 9.718094538669451
Ti 12.030008618215916 11.208788905459475 14.550520196834938
Ti 9.388896413038463 15.406831774838572 12.235302602874008
Ti 14.584238884445476 8.531179433448566 9.358933317329504
Ti 10.65239169407475 11.655028475801629 7.2047316770153165
Ti 16.02927423774771 9.39052508191489 11.447621692243093
Ti 10.859810510723749 11.002125387142769 9.66465747534714
Ti 11.818311793485371 11.73520367721944 12.00583991703375
Ti 13.082241943852098 10.807727716144859 8.386221424577144
Ti 11.514322501001688 13.614049907232202 8.793481749073393
Ti 15.634326994802418 11.91710670564792 11.854758094162122
Ti 15.590135023242937 11.04003874995643 9.397039891960757
Ti 11.910701644622767 14.601550742800637 11.457173564846189
Ti 13.777098299871206 12.994463712878288 10.205532152748482
Ti 13.678590564212177 12.955562331461781 13.17095283172788
