32
Energy = -209.68597148 eV
Ti 15.172407289568774 10.959170909794624 11.169302724284242
Ti 15.376712741082269 13.549752075377361 10.363166953982978
Ti 16.605170012114385 12.804309822434547 12.605733046068863
Ti 10.876041115982051 9.36682851432617 13.47839160734963
Ti 12.141834283283208 14.771761976057636 9.69722933318753
Ti 16.152228534630066 15.34474823764187 12.012015011347469
Ti 11.940546844366393 16.79764693785478 11.85273604763201
Ti 14.111484502597 14.851607308905137 15.656198957056645
Ti 12.331757662184973 13.023750443957118 15.22767783104902
Ti 10.242464567513956 12.920204996450504 10.2620568754321
Ti 9.895320606345818 15.609357152357022 10.456479653273545
Ti 16.216324032586815 14.728073139070816 14.446942458567383
Ti 10.185744175489896 11.378715014641353 14.968958126769815
Ti 12.999878066036034 12.369953259221338 10.569616066540105
Ti 13.760322598052051 10.946448667638496 13.502765267006104
Ti 9.795791792161305 13.90370335323938 14.480037490599505
Ti 9.075929832910461 11.90461834029754 12.608357579320117
Ti 11.35985958381577 14.260482145431272 12.275695697151821
Ti 16.43763438400933 10.511556436097543 13.59330290593676
Ti 12.75200839199219 9.53120925395247 11.417300374186956
Ti 15.151480763353709 12.376488900781926 15.266691492751521
Ti 8.580684122774423 14.197505957928524 12.029122297332552
Ti 14.066007319143264 15.78056079785414 10.887106539382385
Ti 15.015271463022072 8.694849262637847 12.61712553757266
Ti 11.85798735566804 15.729759613734407 14.571180633984424
Ti 14.248351507445388 16.461355687571597 13.5413075937463
Ti 9.736901454183034 16.21930510792774 13.065381659810118
Ti 14.085135568252838 13.77245128798408 12.992169085316018
Ti 12.283178522857682 10.084044281682209 15.634069107934112
Ti 12.979799413748045 8.2674524123252 13.931775457106507
Ti 14.912326681033875 9.393526879932729 15.238921911544857
Ti 11.50733335374691 11.696576578630381 12.612038484742383
