37
Energy = -245.13965662 eV
Ti 8.250072488016864 11.835715312873266 14.13804667268338
Ti 11.797563419216077 9.000677872480745 14.70287194531665
Ti 11.059763080381174 10.228431839164845 9.878645557400873
Ti 9.223632334846478 11.448754102850652 8.417442139391753
Ti 15.24896107406609 9.570735091850814 8.971994665414815
Ti 9.345147545735035 9.61185047576132 15.043260270510064
Ti 13.256169770163476 14.170608890164072 8.94962249173171
Ti 11.02382019384781 12.95163692926213 9.966868489948823
Ti 7.654139396409227 13.841827043620228 12.488214581303717
Ti 10.549540324985403 10.08576923333885 12.673335700554064
Ti 12.238827073358362 12.115381557262683 12.169567899867802
Ti 9.289398504944879 14.936765420199965 10.794341907640913
Ti 9.511420316801177 8.305953775520326 10.897400165305118
Ti 16.334767032375712 9.686352027263547 11.335271593697005
Ti 13.403502233236791 10.939056020851542 14.374914686022143
Ti 12.05608155117356 15.024176239053272 11.428048980600717
Ti 7.741698569565793 10.141875905044044 10.18154415986745
Ti 11.376758188096984 13.038009829566617 7.433500655777086
Ti 12.099662824183294 8.13646134426956 11.783717533644964
Ti 11.109647568953687 15.357481283033584 8.799752264683379
Ti 9.897065455968146 7.685678666183314 13.388505491527463
Ti 13.681126225407326 10.222165349217066 11.04385364552236
Ti 13.272914710619867 11.474161586248876 8.718827222140714
Ti 14.617669909800933 7.794297800878919 10.84721790075627
Ti 10.256649004216658 13.790813617313475 13.169584423145862
Ti 15.261900675667176 11.740642709958902 12.811909314371132
Ti 9.12692076729359 11.859350009531807 11.609111274735513
Ti 12.792260095686576 8.577327506030597 9.104829321289582
Ti 14.260179327435848 13.618712286459472 11.227353064553759
Ti 13.176236177788704 13.595694804178365 13.755690986365883
Ti 7.46319657411218 12.9145240322378 9.898255638566559
Ti 6.5671597566601125 11.551549637797613 12.042015539236159
Ti 15.683459052874317 11.869912839532555 10.085759285291342
Ti 11.026355271108384 11.756812623327788 14.824821805357468
Ti 9.136563359572419 14.009197826688967 8.227660538307909
Ti 7.828911236923626 9.356022404292624 12.826051152224938
Ti 14.617493748431304 8.992250946614526 13.226825875169546
