31
Energy = -203.39994896 eV
Ti 16.651508990252534 10.77846960161192 15.451622911170988
Ti 10.954359399487643 11.648928066244968 14.35760399047587
Ti 12.7665625881099 17.131566738181828 11.689242606521091
Ti 17.16552144777552 11.831249379267499 13.432661040062774
Ti 11.008883203433985 10.796184396717123 12.065543715136469
Ti 15.605115743127964 9.572314011365348 13.15975108705234
Ti 10.162875587274975 13.346821331352029 12.233049963763012
Ti 15.820090533793893 13.535436815521233 15.26721427313986
Ti 10.726797496190335 14.109320346624035 14.723791826875667
Ti 12.816954711581285 13.374923365074325 15.91068639576748
Ti 12.739559428252404 9.603266325103283 13.662637965589193
Ti 14.445419169409682 17.48806579016987 15.457215862191301
Ti 16.29907359235005 15.915899532214981 14.712833325158789
Ti 15.781796997408746 11.660942353377111 11.520280737478346
Ti 14.453424438224168 15.556161270591526 11.02935872436784
Ti 14.694981168246926 11.80071291620333 16.90744996939616
Ti 14.057764456272638 13.07588317786439 10.258790312666086
Ti 15.790146394536455 14.082907396423158 12.5625125851478
Ti 13.672507410811273 15.380732673438802 13.886811044566633
Ti 11.889124071801795 14.857207899779246 10.750179588731903
Ti 12.719104069685253 13.002723212560959 12.586076452316455
Ti 11.678783662966062 12.263563043286183 10.225450212482594
Ti 12.048298407566714 16.163571147264328 15.795665241170443
Ti 15.06495188190482 17.458836570924902 12.891819275167931
Ti 12.604556168880855 17.991287853557893 13.951315212061129
Ti 14.433538955462193 11.652500426855891 14.170647196864946
Ti 12.525418838903233 10.708435377384575 16.10442093406775
Ti 14.580077282277085 9.376249186079168 15.609478542330113
Ti 13.515733314330658 10.547777349791327 11.244983086216404
Ti 10.936193695574735 15.9890804128276 13.122687533916087
Ti 14.506424158665297 15.337880708045304 16.652526753614826
