37
Energy = -245.32137777 eV
Ti 11.002783420074778 6.891669610551404 12.647539589655421
Ti 10.618260548708983 6.688600213075275 8.421171839346707
Ti 9.274074226612715 6.991250991094092 10.761828698866777
Ti 8.209006535802532 7.456907496238088 8.431112646770872
Ti 12.150093582353334 7.208988308213692 10.405825641297902
Ti 11.047434433144584 8.608355566471682 14.410337267760505
Ti 8.805515436433273 8.442007984616824 12.976537244442056
Ti 13.227716330856298 8.418713739922449 12.690406980620539
Ti 14.173949710924848 8.756647609555358 10.222297375351932
Ti 7.556139864386764 9.074164705127675 10.416129191744504
Ti 12.61542474726762 8.45053037081292 7.9946578911699655
Ti 10.004322503868126 8.64260721373285 6.728866264212512
Ti 10.973029530954152 9.573360055327614 11.932989458803629
Ti 10.0122235730983 9.239202655193953 9.236560204033397
Ti 7.73095212757721 9.751139214896787 7.737766323238889
Ti 9.824862733829596 10.869774993111067 14.002020930887639
Ti 12.587085124415728 10.727928274030564 14.03296974768313
Ti 12.23849909206381 10.600306566199935 9.77885931167521
Ti 11.3812010380784 12.709849125157529 15.143313570496886
Ti 11.929932020194165 10.568410806870746 6.973635744708738
Ti 14.11743120006886 10.917178922844382 8.706334807992672
Ti 14.01104212950482 10.965117928196037 11.81016789236633
Ti 8.113530387329808 11.323305183369177 12.130368658611557
Ti 9.55991868171078 11.453880524383981 7.262137655888657
Ti 7.582825541788508 11.63757682162491 9.471572052058004
Ti 10.047165353140056 11.949096997051495 10.257057267360642
Ti 13.587670886193177 13.273279480569563 13.568914460123194
Ti 11.343077274775931 12.668558533895508 12.437556500524755
Ti 13.362569318842644 13.113699238196288 10.502683851809369
Ti 11.700390137032608 12.852799252355219 8.071816435937624
Ti 9.098557184195812 13.477222492899052 13.714462053858712
Ti 11.43683942121719 14.894862789227023 14.143222691061943
Ti 8.300176416941623 13.732387927892116 11.08298308857518
Ti 9.100508468113466 13.696610025252545 8.532796611970472
Ti 12.656498403039892 15.12626290253865 11.984458785500673
Ti 11.2053125265614 14.559777004309122 9.9436113781423
Ti 10.071644154039749 15.345632540335654 12.092693950592103
