30
Energy = -197.35082455 eV
Ti 13.982320993002258 9.254818710590381 9.05277084508958
Ti 12.26002990339056 10.70158528121504 7.490552383882957
Ti 10.115218066988106 12.249163186585191 6.755670320948241
Ti 13.563562067241303 11.91652477908778 9.678094274134152
Ti 11.702162503284319 8.033351381096235 8.169228920255485
Ti 12.008331111907289 13.318552088299507 8.07147672511344
Ti 14.182335220644516 9.861478877286151 11.51813962884471
Ti 9.6137411409331 9.709624219407067 7.2070354868253
Ti 9.072115931094247 7.273517342698779 8.027396729355921
Ti 12.651153097164018 7.5905109131760415 10.791785263950594
Ti 9.591641185942802 14.026693347682722 8.603026199157894
Ti 11.979699361050002 10.046332705801714 10.434589495067819
Ti 7.945588022166391 11.813981627914231 8.276771255778522
Ti 10.535084684143765 6.303904907705488 9.86618307663437
Ti 10.310815616710236 11.626727086425317 9.297346932682796
Ti 10.042116046213318 7.5080964490921005 12.237290765553771
Ti 11.32878712864408 13.64240260752988 10.669645921816208
Ti 7.388102791732511 9.148675660572003 8.958618994485908
Ti 9.739219216480793 8.874484061360716 9.994674845472659
Ti 8.095106520938504 6.902580737604541 10.424897251814071
Ti 12.405058303389485 11.864156682007678 12.403639662745068
Ti 9.712194095238544 10.877910885820453 11.833701185327223
Ti 11.875030295634192 9.335048040438771 13.054287138449881
Ti 8.460358842968349 13.261503578251814 10.860959265611044
Ti 7.114114115412768 11.131161854745791 10.69656115853017
Ti 9.173565296687904 9.280297107330544 13.971567600322995
Ti 7.559320286940417 8.98903710971845 11.942840068278471
Ti 10.02923795699106 13.344511288339806 12.938614969466446
Ti 10.490875255131712 11.346871517702645 14.308686391222688
Ti 7.9350411724654775 11.62842219504549 13.325873473714385
