36
Energy = -237.3272827 eV
Ti 9.718790538781388 9.106728115128428 8.701006433724165
Ti 11.809838570707065 8.318304655711852 12.745530076031875
Ti 15.466040411944148 13.617329085552193 10.636134808840625
Ti 15.659782441229723 13.200171768183123 13.110009895671103
Ti 8.190580190433531 13.679354866438034 13.384825951738504
Ti 12.016678477855855 10.431504470347226 8.356856166321682
Ti 11.309132193188123 15.311527894079227 10.320616903572436
Ti 9.114031588481875 9.33791829216536 13.045922253820459
Ti 10.677107301236322 9.447005692642781 15.135306913307923
Ti 13.424067638104251 9.779747751465754 10.747287051910641
Ti 14.496665941992283 11.450115793845512 14.846808165590831
Ti 13.665733952677623 12.18693047870049 12.045933040648064
Ti 9.53551532251995 7.8216230168226355 10.962557024309897
Ti 9.303471506011709 11.719542968958907 8.872792091314686
Ti 9.287890852900812 14.187104207183673 9.297704500493298
Ti 13.429606991855044 13.666723653029548 14.451335461745316
Ti 11.840895910373861 10.958102522186573 13.350435319227925
Ti 9.003015927325807 15.032595212807026 11.630681383862528
Ti 11.90548278536734 8.038978100250713 9.659783014672234
Ti 9.57224606363569 12.34354871921126 11.665344353643482
Ti 13.087360958856083 9.359591488354802 15.07100580814691
Ti 11.985557364981055 11.807624322190465 15.743204839129497
Ti 11.784576275071831 12.693790423133004 10.288280737449996
Ti 14.530177503760616 9.545648785724637 12.965778828765655
Ti 13.569752032929875 14.567660227136535 9.490170859734269
Ti 10.738087867398828 10.10704426981949 10.900717559591152
Ti 11.569019385968367 13.53438685092489 8.072597103822705
Ti 7.362345127438135 12.933180155060386 10.747620936895862
Ti 7.98067738479243 10.04332400052319 10.55573902715285
Ti 15.8163374426309 11.043530483960028 10.94818884894309
Ti 9.461169386678073 11.732377131352496 14.571572653570305
Ti 7.432072187198777 11.242726857023335 12.879515515122366
Ti 11.086672880295703 13.777863014700186 13.314232283852094
Ti 13.591051007239084 14.901831568559833 12.151152225548676
Ti 14.187892272270798 11.956467577638945 8.956437858667547
Ti 14.541435388880265 9.294528660135803 8.671170511188764
