33
Energy = -217.95332352 eV
Ti 6.615736283526429 9.940328303057044 10.340614546695575
Ti 7.98778662874883 7.851087830815625 9.398190632979619
Ti 7.663646668028606 9.755760585734215 7.674247142527517
Ti 7.62638742465907 8.000416863829571 11.873437799693697
Ti 6.635471986601713 12.054366735307845 8.713760886395697
Ti 7.8085977602487535 10.479547176618555 12.845376520043477
Ti 8.252862038331404 12.381163795076915 6.8898228213960415
Ti 7.375721423567754 12.34283933640822 11.04246730795367
Ti 9.640436972455044 8.413172419146616 13.428923504747772
Ti 9.921612777037256 10.485427044197861 6.524745122106646
Ti 9.391219347187764 9.668027997336013 10.971718475812898
Ti 10.18921167933941 8.550712107113306 8.320482148031642
Ti 10.018853792652498 7.1597449843044805 10.930823882750515
Ti 9.25469343568034 11.339862592753569 9.030160788936298
Ti 10.197306776250679 11.146186134504674 14.026141478754072
Ti 8.696628471147982 13.812221553026967 9.161884564006181
Ti 12.172968164245102 7.476725906681694 12.497332542709149
Ti 11.66996369379618 9.027396413724407 14.730947471621642
Ti 9.68540768510475 12.546774744988612 11.6924113866915
Ti 12.356065360392474 8.461682071131827 9.708655110021558
Ti 10.81849528163345 12.891971908769918 7.4042352883584535
Ti 11.751347241499067 11.456513329345448 10.004653492976308
Ti 11.374556670906228 14.037652329974872 9.875088032171277
Ti 11.920709834201284 10.05441957371081 12.27335806917174
Ti 12.22814649877848 10.412105663265285 7.604762448619594
Ti 13.20579231918381 12.831868160374695 8.304076686055074
Ti 12.070396241718425 12.93493607721501 12.602342206320422
Ti 12.8293487503707 11.309299974886867 14.48470617818007
Ti 13.987841602292008 9.09406135506612 13.718405445026901
Ti 14.17424614874567 8.782796495807645 11.284790001561687
Ti 13.770672154017062 13.186333856043284 10.666812220507023
Ti 14.23718637238109 10.697175201325168 9.574548261705631
Ti 14.3744324293051 11.321171392492463 12.303827449505068
