31
Energy = -203.80240368 eV
Ti 7.466054608661362 10.814786963330247 12.830213545880747
Ti 8.687889690289047 10.91195264681411 14.983061248052511
Ti 8.20225471621879 9.166244168194694 10.853995250751503
Ti 7.910937180008885 10.619040429437204 8.201926196534826
Ti 9.004004755531861 8.579513754902045 13.469539449591029
Ti 8.601016263417767 13.222733772121124 8.703635687195137
Ti 9.71397632914999 8.36110901975851 8.80387340852321
Ti 8.915935037588852 13.08560419195967 13.31383600114518
Ti 8.511622210092998 11.796756079470072 10.757793619005138
Ti 10.200000800760202 10.925231749316211 12.782537374386857
Ti 9.40695311223114 12.240143525942814 6.561096674642266
Ti 10.896662036549817 12.21689846031788 15.000611118451468
Ti 10.879799918074802 9.627334471746726 15.10179626098549
Ti 9.868651768234812 7.1849100675760855 11.398939364181684
Ti 11.140703962274074 9.317619622712044 10.822317410523235
Ti 10.359217490624022 11.12908405219841 8.790134491826732
Ti 10.260074628795847 13.813209779803875 10.700790856502188
Ti 9.932551984240764 9.72058049401153 6.578795546834436
Ti 11.728024982363866 8.099341767609396 13.146980408058035
Ti 11.810972197454065 13.265509775540206 12.787981293971939
Ti 12.810531778045235 10.848232134448534 13.65864632353933
Ti 11.830766823106222 11.482517504976624 6.506826736711424
Ti 12.122520611353316 11.541517175164653 10.79743085631174
Ti 11.300610561105538 13.590461489453645 8.11344640560797
Ti 12.45251466497514 7.426761413471384 10.351404182057472
Ti 13.778166626265879 9.2044215524769 11.989324539144242
Ti 12.861150802321355 13.908719335338317 10.210571471933875
Ti 12.195972496066778 9.243182228016535 7.988178868709676
Ti 14.38944297951713 11.846694777145942 11.32586050839362
Ti 14.013746921000235 9.647599287901514 9.702372074839277
Ti 13.479534848945816 11.894551094108856 8.498345610973832
