37
Energy = -243.90389661 eV
Ti 12.924326867038797 12.944500608104656 6.875430771548541
Ti 14.88589129702709 13.343106312247567 8.760213600467567
Ti 15.480471432232303 10.683166108403247 9.734325717293958
Ti 14.662293412614696 11.192344097666405 7.242803304301756
Ti 13.691816567144715 9.18264783909831 8.344726632271904
Ti 15.385087668417249 10.030464244399992 12.505665461546581
Ti 15.121823776772905 12.672983267808869 11.483570559531891
Ti 13.625786755743297 8.968813289776724 10.732014538811772
Ti 15.1260246349613 12.156801963223614 13.99895434429635
Ti 13.300025996411675 8.424505966193003 13.060746413868173
Ti 12.486861032613229 14.497208591088729 8.392068026121327
Ti 12.032211842099455 10.585894194006821 7.059144968675567
Ti 12.878293708359118 14.137513867333018 10.760851237109037
Ti 12.973553413145588 11.682789970791324 9.40708960107523
Ti 13.802620080799935 10.101194668902364 14.92772300256602
Ti 11.199071233077468 9.639146675616976 9.347682020910312
Ti 13.041696998466888 11.145517573069965 12.431598691159913
Ti 13.345190931648128 13.925308017100884 13.24887174516406
Ti 13.067586615962396 12.655433045017585 15.611643443446493
Ti 11.82092531893695 10.630421997249151 16.494197780368808
Ti 11.009227067528686 9.500988728329574 11.848050911570793
Ti 11.242649722771615 9.008590365811758 14.47097799243384
Ti 10.82816738250607 11.83536559681644 14.099362916212899
Ti 11.437880040496049 14.502643243788786 14.923804556254662
Ti 10.90504172280808 15.03151714552473 12.476063721019367
Ti 10.313398737631054 14.688209305421012 9.859079995736376
Ti 10.526844792977853 12.366187530661907 8.458781584412526
Ti 10.486326527327536 12.386755366495562 11.351195699938746
Ti 8.806002033217633 10.447877007188207 10.419802077522716
Ti 8.850041826638327 9.901040614970123 13.274229690238418
Ti 9.468692115152324 10.185361063751126 15.895900277166438
Ti 10.129323973276245 12.755046141145062 16.396060374519966
Ti 9.025618884977073 14.030933860753994 14.11745250586128
Ti 8.331574557650384 12.870935006645036 9.765128147827438
Ti 8.480235871641316 14.52606915128546 11.64787380984999
Ti 7.8389230311020714 12.135988951063977 12.291829557847079
Ti 8.07830851244636 11.836545006870557 14.894900704674376
