34
Energy = -224.72075957 eV
Ti 6.992332539212621 12.032852660566578 10.985397793337686
Ti 7.361451245196427 12.743410309569342 13.514490812916497
Ti 8.688945975035132 14.104927495888239 11.70440665391636
Ti 6.741442840293531 10.290217026597697 12.951200462021141
Ti 8.694757551662951 10.693274318272561 9.055200190666003
Ti 8.513202533102012 13.283639715384975 9.300387256023752
Ti 7.916359453717983 9.180380569444191 10.824448894242286
Ti 9.986812526544314 12.936840035053589 14.07155084846294
Ti 10.440128974631602 12.431263045741133 7.823808878618888
Ti 8.518823647299033 10.803593499397005 14.803059254877759
Ti 9.157196045422603 11.185723988455734 12.241440059731234
Ti 11.114709266062059 14.490470219889968 12.348571065421506
Ti 9.796620944169419 10.083687409268185 6.772726307120474
Ti 9.45527093457252 8.095265518619124 8.60333563874337
Ti 10.874680215315712 12.298081894916617 10.568579869645204
Ti 10.727905302102371 14.678775785053917 9.707070717782475
Ti 8.768107492148063 8.585413295904281 13.20856364604523
Ti 11.319471668944246 8.17931872779638 6.76291395819064
Ti 12.403755146857101 12.28352516409229 13.013253786466
Ti 9.909042170048457 6.783869472795456 11.298308469621816
Ti 10.675850312355653 9.08561156530355 11.050805190298934
Ti 11.78507826541524 7.098869684418383 9.16579695189844
Ti 11.701125423985554 10.03391405865344 8.804404231961238
Ti 13.018256041744495 13.883043640754327 10.909588927543595
Ti 10.987259189368961 10.358089846915025 14.234663053103766
Ti 11.187005500707235 7.842529379642523 13.453715467407545
Ti 12.423258638333342 10.651564109932224 6.448832625254797
Ti 13.587496273585787 8.452471173611238 7.5666600093439085
Ti 13.802814159241642 11.405853578836918 10.69834772017176
Ti 12.73406856119822 12.823921147891744 8.564015748413741
Ti 13.892785550298044 8.71256169094809 10.099926343809015
Ti 12.541582949538297 7.115246646289418 11.645314456423861
Ti 12.976625034836099 9.662829960999627 12.489708799288286
Ti 14.328203792318552 10.7313895283621 8.331932076495278
