30
Energy = -197.43060799 eV
Ti 13.933809212742776 9.919671927218106 12.123233126174181
Ti 14.295335907204446 9.031675340789421 9.622656359711154
Ti 13.108218968790235 12.699411045646068 12.283348304137727
Ti 13.61796960657982 11.452270437609496 9.844201926334192
Ti 12.90268401018492 13.863298654412501 9.86992678421088
Ti 13.628881658740987 7.325953559961433 11.352071668039741
Ti 11.52332126336326 10.692783981400032 13.263060078901837
Ti 11.447189198350184 14.772979646865283 11.713326700110274
Ti 12.145557978030503 8.176464497802854 13.12808261319776
Ti 12.576295381532045 7.228107220856511 9.072854497433363
Ti 12.250341684848674 9.716644765305197 8.051070230874084
Ti 11.4670890926246 12.320700099623583 8.161702772188713
Ti 11.774989506499251 9.318061197980668 10.662605062872375
Ti 10.693354123051519 13.14934638534857 13.358321227465815
Ti 10.924582126304875 12.20461240861562 10.796326671386309
Ti 8.899387958535492 13.824692183732507 11.46714654443168
Ti 10.474657751730234 14.516045392781626 9.397277184250731
Ti 10.146959391397338 7.81571864708947 8.755537953364941
Ti 9.627993888362123 10.42594934725755 7.552899253242762
Ti 9.653871227430226 8.74461006484544 12.620907975186345
Ti 10.975250597003425 6.802835385335224 11.171402173244873
Ti 8.752032855446835 12.770785484902394 8.875337557265535
Ti 8.868166235773378 11.406862378768404 12.780097675018904
Ti 8.896064805971202 10.11501338154735 10.119394905479806
Ti 7.79546090098201 8.522133409385674 8.16443304563213
Ti 8.161764165363694 7.572514170858737 10.63603577912477
Ti 7.204773054129415 9.50722037715095 12.189178301503066
Ti 7.100404885579705 10.987059998505826 8.249706929470115
Ti 6.964552075962631 11.81809250624942 10.810385856167724
Ti 6.2253040615527775 9.334749676222213 9.943734417646345
