30
Energy = -196.56753314 eV
Ti 8.233536189882084 7.2614003399494 9.767840190393466
Ti 10.671013889480792 7.017468428937588 9.05944463327333
Ti 8.966317763924247 8.502408284958237 7.490901834568332
Ti 7.061203477049993 9.385842970008841 9.329849511080024
Ti 10.125232290460811 7.4290898060818416 11.629547712244369
Ti 7.839134747686342 9.149758974991094 11.753335604025738
Ti 11.743072068219853 9.008242061731233 7.847824960398076
Ti 9.857221903226105 9.405982176579617 9.760985597559383
Ti 7.847050702940359 11.393634168188669 8.046394656284631
Ti 12.406931169223359 8.451475086997792 10.472765209549141
Ti 12.58130624260067 8.66824484028563 13.322443766936225
Ti 10.28255235546157 10.784750916402922 7.159685183437614
Ti 10.233513841351803 9.76482908614576 12.72849882881481
Ti 6.764946542198131 11.622812491040696 10.767847446209567
Ti 14.61969471461151 9.16197138590066 11.728610603955829
Ti 9.330202023815234 11.774880481050687 10.472302988494592
Ti 12.546992419832094 10.873740338885531 11.762917068404533
Ti 8.280309005771173 13.70807573929713 11.850895320690304
Ti 11.839066272046619 11.085093826790693 14.351420604194985
Ti 14.356790711142297 10.616851889530526 13.872802578180341
Ti 8.364492074601662 11.52780574593862 13.056463856942797
Ti 7.835907120483747 13.716999153916444 9.367471230883426
Ti 11.753490309010985 11.613398750841005 9.187201041336829
Ti 9.848546815880566 13.126874013561059 7.987932732729255
Ti 14.074793523922919 10.637679272345158 9.52136171581512
Ti 15.131901920478205 11.730267855201175 11.69056378528108
Ti 10.739950633842271 12.81709853318227 12.546052736643121
Ti 10.43954597770825 14.166997952840548 10.233161240942646
Ti 13.394219372761082 12.966619500884313 13.243698225299253
Ti 13.335394594588744 13.134036601737572 10.494109809634347
