31
Energy = -203.9021816 eV
Ti 12.687649812305441 11.363398994718663 15.176989304523481
Ti 10.283738950733989 12.196520392576039 15.597189084229845
Ti 10.606838403872123 9.765540253412206 15.195941186862886
Ti 12.685113108240465 9.381110570648806 13.51777991719217
Ti 11.994355771121349 13.694006516877653 14.08565349168277
Ti 13.98878444403769 11.833920956692406 12.989629515850757
Ti 8.465357387677278 10.905731496726839 13.92912996578109
Ti 10.869855581618465 11.460871463185441 13.065885865915085
Ti 9.254179554435286 13.528993810569593 13.861451886000843
Ti 11.788329333617149 8.657438389455871 11.105533143720352
Ti 10.011082550354333 8.799153563167302 12.968310160042611
Ti 13.297999008214552 13.987096475264245 11.861864181949104
Ti 14.156906205093453 9.850352352924311 11.354214493429556
Ti 12.0739080121172 11.589851599976981 10.76915268220886
Ti 14.396427105005122 12.291564028864107 10.158137935896198
Ti 13.269936194870107 9.902919397012232 8.92557687285286
Ti 10.680314124601658 14.250470639173699 11.743021965667605
Ti 11.845820415286747 7.703723376074839 8.638906000032554
Ti 9.669764874286757 7.506029486098656 10.082355615300138
Ti 8.983686388574167 10.09867502638728 11.034296087776378
Ti 12.310961787750276 14.04164489276048 9.598022411062642
Ti 8.567340041906986 12.506019976495814 11.709364469069556
Ti 12.378187626125404 11.997783496369877 8.098704334838681
Ti 10.369591416072367 10.004172608602147 8.912386000150606
Ti 9.895451343367297 12.86677444333347 9.567103306459375
Ti 9.610582267850916 7.720336837922389 7.468751224813176
Ti 11.37107912601663 9.659877511146512 6.681049771299424
Ti 7.739460863815307 8.817531397407109 8.953340636306951
Ti 7.890186033348751 11.377157318891166 8.741930673004559
Ti 9.899275919710286 12.029885670115945 7.132371669511259
Ti 8.618838152179956 9.872448861355739 6.736957950777374
