31
Energy = -200.8117812 eV
Ti 13.759752126217771 10.700219088491467 8.46883030117913
Ti 12.717739462319521 8.137146816873658 8.769948939061797
Ti 11.06860318837734 9.007693325205233 7.3735968992776
Ti 10.336169361202174 6.69889572820093 8.917895767698802
Ti 11.85385451869712 11.684557709817108 6.921757652652433
Ti 11.574099746989177 10.972809627244844 9.615465603009138
Ti 9.54526399634307 10.889902961962798 7.307395926364636
Ti 13.62338589507119 9.309310793441275 10.906534698132736
Ti 12.416624739788075 6.8848049598203795 10.786018201464207
Ti 8.391157120965948 8.836870733255946 8.260785875259932
Ti 7.544340075164583 11.755382624758449 8.501250837890057
Ti 10.178048799692075 6.552866925078829 11.72615179048339
Ti 10.310896704545335 8.812363788831801 10.275120856507883
Ti 12.726798056000328 13.181187352320569 8.74361881014453
Ti 10.012692971377895 13.201529112283355 8.263255355927623
Ti 8.136714830883287 7.230437986540954 10.328873193119067
Ti 11.415912081842835 8.659512599456507 12.917144976068895
Ti 13.422882805551533 7.68734685441405 13.144280604485248
Ti 8.994857333398897 11.540272994530035 10.629137142354644
Ti 7.073499416092046 9.563925179576996 10.594099749465492
Ti 13.709268820363581 12.048757352487451 10.882643923090287
Ti 13.400039673027466 10.585675515191728 13.10951249426088
Ti 11.050633659108708 13.724864566221061 10.662051771626068
Ti 6.3491165706824155 12.015126364117592 10.760219459634571
Ti 8.229642951774325 13.987591216186894 10.16297961026575
Ti 8.615956202848574 8.560956613140718 12.510832781922085
Ti 10.792922553049651 10.986987915803994 12.377218510302454
Ti 7.7786306697739604 10.986355122184506 12.925526418141143
Ti 12.308517478714101 12.978232475065607 12.959269590605713
Ti 9.531752496592226 13.408106419569 12.623806901707482
Ti 7.123718062182301 13.439366300266833 12.52318809600262
