30
Energy = -195.72769214 eV
Ti 12.784562798720758 12.628358261440985 8.19968058635043
Ti 11.160167600672704 10.808460028068879 9.36664129123952
Ti 10.486518306548973 13.457043864895565 9.3618218002883
Ti 14.887232822321211 13.384156155271201 9.725323788309856
Ti 12.922249545433187 14.934074521384602 9.422276493109162
Ti 14.06496018666054 10.822796392753668 9.33284998994049
Ti 12.807992987720837 8.791283374470368 10.408428945642795
Ti 12.69000582074294 12.535942773679443 10.791286012356382
Ti 9.199671176588076 11.82844663469115 11.070359962997854
Ti 12.400057952383717 16.959147902910594 11.915891482815287
Ti 10.283438995822461 9.344896202038575 11.48405485637605
Ti 15.204108930954092 9.959699572615897 11.481655713720686
Ti 12.5663177647653 10.303814801553466 12.64752820270788
Ti 8.824328136482794 14.480866938729584 11.293339450570032
Ti 11.12384197657156 15.456224820809314 11.07407413868448
Ti 11.881222338136537 7.588223441002534 12.503698412805567
Ti 13.874759695219039 14.688777375481209 12.031859605171574
Ti 12.269743140243547 15.267970231814198 13.977766377287608
Ti 14.340325168031969 8.182091644254232 12.640626860932246
Ti 8.462147535217902 13.261274323672188 13.469921587707264
Ti 9.732548597090465 11.090498812177852 13.758087060467302
Ti 9.825832948415119 15.545701902742667 13.479341646307752
Ti 15.051959963279407 12.276721487481321 12.240781628022166
Ti 10.94580564887878 13.220150730858403 12.584930273604428
Ti 12.011930876366167 10.903899183172312 15.292114498547338
Ti 10.564167476760154 8.939562220860209 14.209043226965251
Ti 14.69360237201909 10.410524195114135 14.196350674970372
Ti 10.600374449390246 13.452434392173565 15.10435373353756
Ti 13.311047572241435 12.893321291517502 14.134200811595377
Ti 12.953392833668058 8.50795213971114 14.72602650431608
