38
Energy = -250.83078413 eV
Ti 10.200896193952573 12.297788235836707 16.37938119281644
Ti 11.139625998290931 14.580367638311548 16.501815374837456
Ti 12.810006855215393 12.43144164950854 16.514393934363806
Ti 14.118324731333079 9.842173162091113 13.796260581445969
Ti 13.588294166585433 14.746419838476609 15.426585773424833
Ti 14.374879698293721 12.36835140313566 14.2877386792949
Ti 15.768550866971193 13.579965568608303 12.567590962529788
Ti 8.625410611395429 11.205607625349344 15.07431070195401
Ti 15.844929842640402 10.705603794574843 12.181841056080325
Ti 9.2221673139595 14.236353898509142 14.553052517795901
Ti 11.419568435553407 15.93835160687511 14.384833302900976
Ti 11.679209970962624 10.593552311902327 14.689284754896468
Ti 11.776118319199863 13.272942600748939 14.26652493139092
Ti 13.299327172316616 14.846312161367148 12.655877452548028
Ti 16.09623563121171 12.420317402152955 10.271185077103251
Ti 13.812882647614876 8.811778646806697 11.346682092393404
Ti 13.725011583513105 12.08817054343144 11.744404522761707
Ti 9.9341828020138 8.883169428840457 13.695451420144236
Ti 14.655339967489653 14.484849502958046 10.46086127220289
Ti 12.388732302437846 8.25510279364149 13.454241712338467
Ti 11.189662244184495 13.197299550614987 11.653761851433183
Ti 9.513218666294177 11.670938527103914 13.127197598378055
Ti 10.297808574964298 15.35482696403649 12.203014598493905
Ti 14.735072556183837 10.40275477213217 9.432672320092175
Ti 12.315812537841163 14.652489532385587 9.510870919297595
Ti 11.373376750471026 10.242191025190786 11.831164846405558
Ti 12.16871192945895 11.83337645952147 9.58104522871368
Ti 14.316174323051056 13.010504560110446 8.357658275182771
Ti 11.02501488837589 7.740872182762592 11.301915455032441
Ti 12.312394100680384 9.048322247786265 9.038318648446868
Ti 10.054066647343504 13.645241846156434 9.191675221987651
Ti 8.393761680780855 13.732651840868304 11.837427870682241
Ti 9.11894438900466 11.618275027364165 10.245371557351389
Ti 8.716906989846144 9.370112727026 11.725530662500603
Ti 11.922758035805487 13.164205615865086 7.303849669604058
Ti 13.143024390237569 10.835005349350997 7.327738396873448
Ti 9.812103785811443 9.22107134888067 9.541490746795144
Ti 10.467499975420534 11.001466667183797 7.8331058017036055
