32
Energy = -209.65168242 eV
Ti 15.871537685788548 13.085772991614425 17.500600278761926
Ti 11.613871723265554 12.235231528445617 16.501233063636757
Ti 14.334889810126933 13.95332424059346 13.21006178231696
Ti 13.527394482134934 14.396546790081905 17.144399879791536
Ti 14.372770423412144 11.761726756776358 11.272877700556126
Ti 14.287726517775212 12.548487926296593 15.52553789727298
Ti 13.167344304436014 10.103008057816044 16.011139960868938
Ti 15.655304806446665 10.5758019511049 16.632727087070382
Ti 10.323591656422494 11.563648950743302 9.898933425216118
Ti 10.059706041872927 13.044789042283405 14.024546162136025
Ti 11.365898281001238 15.679204894709397 10.48196712063502
Ti 11.713443441627108 14.439703333915862 15.318549265890773
Ti 13.560914811619993 14.394376177075083 9.533571713706877
Ti 15.834885766292299 14.402302298080704 11.199996115712711
Ti 16.411065765393822 12.11803822828046 12.612819466906423
Ti 12.811395862811313 11.79563851530454 9.174693616250256
Ti 11.068912819017434 13.757812167171739 8.945741346600789
Ti 15.06702288700845 10.412038669944948 14.000750910081376
Ti 11.412072357621234 15.350339687733515 13.06686459937244
Ti 17.23240970265309 14.285526226880043 13.47608755916579
Ti 15.726895574870484 16.22044218683146 13.2623329140171
Ti 12.056818349498968 13.17163575360355 11.35697983651721
Ti 13.632233396129493 16.031673176131243 11.676816080365043
Ti 13.617738396091868 16.074303705794392 14.78123237036066
Ti 10.985868302253792 10.429008099253934 14.490605091065184
Ti 9.544280527282426 13.847741736928484 11.285335297836866
Ti 9.9262356672736 11.32655695592182 12.30843778861604
Ti 13.718677471394068 11.743705613634045 17.976835648529406
Ti 15.953130043685062 14.987273136688565 15.676681685479865
Ti 12.182450324418031 10.298937821598482 11.329586841039916
Ti 16.950197510533368 12.327538441258586 15.17092924032598
Ti 12.579280340035444 11.872002115191389 13.524334230238932
