35
Energy = -230.79430366 eV
Ti 8.015596475851495 9.972638311584792 12.513770087460834
Ti 13.721477375803305 15.695505781371462 16.598762101331847
Ti 8.209248150811764 12.532474523689974 13.244725126849703
Ti 13.302282799259155 11.562915897904636 11.041711459902393
Ti 16.376399437580975 12.239554279656232 15.65557212706359
Ti 14.10471552889971 13.042726483921204 16.45934195457629
Ti 11.963265016337601 9.445129647763267 10.884168828588695
Ti 10.278490158176874 8.59610536826929 12.699981974991053
Ti 16.861633563834303 13.475530997971546 13.366446443202479
Ti 9.7157605146884 14.802896084085985 13.85318443976172
Ti 11.629193870865567 15.669542491545496 12.209162418118888
Ti 14.82047349918151 9.701559694920194 12.494794343371009
Ti 16.7698774066276 10.850099454711179 13.657102458878297
Ti 8.28446312686453 11.847513857867861 10.691890036564258
Ti 12.51700557013524 9.917615048324345 13.516594327303373
Ti 12.122147914707542 13.903285753439041 10.32514064034287
Ti 11.898972912205377 13.214830610122362 13.03910162463337
Ti 9.773109129988216 12.741313590555018 15.24998384754059
Ti 9.646344337809746 13.945360686418335 11.219401783587157
Ti 14.861612044175189 17.187482592644628 14.845108033520646
Ti 10.714136390818037 11.844564018708574 9.696396226347433
Ti 13.866671143087085 16.95454571710732 12.435873074293045
Ti 9.444195066169785 9.559114677630907 10.384767675611277
Ti 12.205834756792667 16.72571951454815 14.596066014032392
Ti 14.681897220149438 10.178946352100628 15.272174602496746
Ti 10.405716553540064 11.217764622449263 12.272311237337583
Ti 16.127934368502743 15.934855690000056 12.955670202689861
Ti 15.90015000145654 11.874494328807867 11.405209839395116
Ti 14.27994573682473 14.116065523605204 11.618120967313905
Ti 12.049795363545043 11.527199321228483 15.438639072613158
Ti 14.391820093184124 12.128150879709557 13.678840143176085
Ti 13.996964107507441 14.822571381561916 14.101041755894226
Ti 11.719103065207152 14.260791608977298 15.716093445436721
Ti 16.144236220349008 14.884320305495754 15.57416757695901
Ti 9.552465554605254 10.318806398245043 14.618000843512572
