39
Energy = -258.61734612 eV
Ti 8.823603315916296 10.14180995472814 9.693481158722985
Ti 7.939984566494774 11.782445879309037 11.323786911111558
Ti 10.998897649381215 9.95073175302134 8.253813172740346
Ti 9.981304635802779 12.376989113331934 8.888931629444958
Ti 6.909609425913633 10.797513616618076 13.4315802433743
Ti 11.759111522866851 12.029968322426262 6.67751407409884
Ti 10.294816096501476 8.028514786940958 10.400089519330633
Ti 13.528450139991667 10.20191656714636 7.2080469414603
Ti 8.020817521393703 8.917093303522046 11.81770519171558
Ti 10.354371215725443 12.97232600454022 11.653771325202268
Ti 8.554159215133776 12.956616972454816 13.791747829702327
Ti 13.119320888981479 9.174447930883437 9.563493130728611
Ti 11.187757377843745 10.387399750664834 11.06725974124391
Ti 10.845111181697161 14.717522291308178 9.802181097989976
Ti 8.24570499337046 10.949645528829713 15.565041538495764
Ti 14.327269047402622 12.524534184682844 7.143150934396502
Ti 12.630486652583905 11.852873462537968 9.123389705785188
Ti 8.124993641361527 8.68012643027957 14.417475012012002
Ti 12.625967586825046 14.306837674045982 7.776130111248708
Ti 12.562540542619304 8.126969485844624 11.790490899179746
Ti 9.57495347149459 10.55054810913528 13.25066601459772
Ti 10.343658908971213 7.8777058345140585 13.207908555040639
Ti 15.204350585586313 11.205850300954223 9.355373024828943
Ti 13.165271378190148 15.76495894312096 9.666193191945178
Ti 13.052238204080492 13.365472369445664 11.177310282149906
Ti 15.070746453478915 13.929371799728555 9.196423301465163
Ti 12.144221100253226 15.642047238226983 12.019887936994975
Ti 10.479815099410349 9.42216378217455 15.551421342558541
Ti 13.997051812898823 10.467522494236752 11.693290134864453
Ti 11.132729536910308 14.288320200401447 14.11824415555942
Ti 10.418639801119093 12.23088895941451 15.81189109733869
Ti 12.010348243443639 11.840785550621263 13.522163745218306
Ti 12.684310654647303 9.127532394284323 13.975614676177335
Ti 15.567822529505982 12.803371060953921 11.706308772658709
Ti 14.822854894199178 15.295687499046185 11.468632180182741
Ti 13.883354216036823 14.264419532615058 13.642705750430318
Ti 12.684447173700857 10.768853857603027 15.946113737391299
Ti 12.909253542965908 13.170744982366106 15.667328628082794
Ti 14.515004458558618 11.602821361299906 14.128792587787691
