37
Energy = -245.00534826 eV
Ti 12.96877621371479 7.075379220932944 11.701677740836514
Ti 12.127984853705302 9.641144339858622 7.063177065377348
Ti 12.703792817444759 8.128743510596165 9.229853360500934
Ti 11.80902513576391 9.35222905781421 11.927609383638776
Ti 9.901475154344338 10.824059091325898 7.054125744617841
Ti 14.532132239098532 9.291546614006384 10.903591381628827
Ti 13.775222900311892 8.684621359558625 13.491038436103898
Ti 9.980488206800551 8.519448243553656 8.515784688876504
Ti 14.020729825440442 10.78046332487241 8.631259333228881
Ti 10.399557455680391 7.304459009401741 10.889470751198713
Ti 11.739055117677536 12.51263139339858 7.399264239034922
Ti 8.223915675369426 10.531269228145737 8.640232872733277
Ti 8.733321207999277 8.081951722061488 12.792014293908101
Ti 8.899713624636266 13.163931040563053 7.9328784154579965
Ti 7.739544594697268 8.65572129347265 10.424719481915327
Ti 11.567694883556145 10.47787608632896 9.37430208293054
Ti 15.249971990381836 11.97848617694765 10.642943138440463
Ti 10.296910836619428 12.444540298967347 9.825683735851543
Ti 13.09572811581681 13.349045668257594 9.514519987341469
Ti 11.200714983388668 7.725504496731838 13.626123920118467
Ti 14.837088672496781 11.119533563271894 13.10047389129535
Ti 9.471468575962897 10.224556300541511 11.33931160027339
Ti 7.247576284750242 10.149632473253343 12.690507160111476
Ti 12.062711423228436 10.514032204316141 14.383303319669578
Ti 12.927178579054074 11.524673070898459 11.527436378982358
Ti 7.498056199152006 11.871764068291464 10.471322461236024
Ti 10.850279596176554 14.716578880123615 8.739495608572259
Ti 11.572703563303218 14.966366941708687 11.20828319156402
Ti 10.93718999275265 12.544811845636907 12.549631826889604
Ti 9.413969659936852 10.293824342229325 14.164206613295393
Ti 13.115767876500342 12.634047960036645 14.523512648439945
Ti 8.28627639855246 12.575189708997373 12.94273628382466
Ti 8.9463572114384 14.392981967749567 10.759406177741154
Ti 14.03127136818234 13.741494050896483 12.285860269369186
Ti 10.368283604163404 12.902257181826785 14.962170936703835
Ti 9.717791284717068 14.823295649299375 13.163944698095259
Ti 12.049421556943338 14.706903228925555 13.873160917373523
