35
Energy = -229.10213994 eV
Ti 14.71892944952526 11.731097922480313 11.767034447070499
Ti 13.068009213621963 13.585453446549192 12.436001617401955
Ti 13.777870814979524 11.867086615292195 14.40757989656893
Ti 14.570350814306764 9.652641657406008 12.847763629427666
Ti 12.743565607234455 12.425732523783005 10.163423270143461
Ti 13.45906442688722 9.591892486688762 10.196905276330135
Ti 11.691540609351785 15.102025616114883 10.200126234144385
Ti 12.560248823000421 13.737281950671267 8.08637402465213
Ti 11.270735104897465 13.163373624980252 14.13859463163276
Ti 12.122547159063357 10.966489530801836 12.619848330953937
Ti 12.971490256587126 9.396417854604499 14.816205401843366
Ti 12.673303529152712 11.04290628722851 7.436724290792237
Ti 12.667874393141293 7.929619027108073 12.567062917445485
Ti 10.458260704008186 12.988111935890538 11.568583878334737
Ti 10.906195999596772 15.498298355402305 7.690807452633044
Ti 11.191855494740201 11.061423305832687 15.245540650933123
Ti 9.830572533089727 13.781473274755756 9.180831584174404
Ti 10.628594829717114 12.774293329054402 6.772669714083849
Ti 11.019025924033604 9.112709062740503 10.960919096488
Ti 10.674807171590047 11.242334968896 9.027108259248855
Ti 12.14879650367978 7.018173009228667 10.159996027575774
Ti 10.57185784738474 8.82716024567025 13.78044182832057
Ti 11.509257825520308 8.620820397963715 8.135009140840971
Ti 9.196870007077107 11.37327098675271 13.334680418308539
Ti 10.213643975881139 10.307710716093037 6.617666116577827
Ti 7.706590707110466 12.570015094446104 10.640294497736704
Ti 8.925146209277843 10.282781059510038 10.90941450423894
Ti 8.242308973549376 11.792985422430592 7.98294223973413
Ti 9.691828824099709 6.996295351620749 11.887938585607866
Ti 9.684751404480814 7.172341777450495 9.398196155327948
Ti 8.189785449134892 8.800133267563467 13.133256265370711
Ti 8.62106500995438 9.063474523866592 8.203376186568587
Ti 6.69045581077902 10.4676860619304 12.025945577573419
Ti 6.649333586635069 10.38937505445563 9.468549763264662
Ti 7.415562546217876 8.129211794044233 10.654285627958828
