30
Energy = -196.60391875 eV
Ti 11.502900762016425 11.444728852355732 7.966357943503063
Ti 9.113694792031074 11.52377388129056 8.552442493420624
Ti 13.185657988697702 12.922380840007316 9.036837160645966
Ti 10.123794470487407 9.07900966346932 8.601638860898735
Ti 12.908496847499777 9.497161083405658 8.692473172232578
Ti 8.254531158782621 10.158946188151077 10.482678899047952
Ti 10.480927790052345 13.790424936003085 8.915102621197034
Ti 13.803354851848908 11.120697139590389 10.894636223088682
Ti 11.045757330474073 10.535158326215312 10.549113482031132
Ti 8.71076272648966 12.816401826225878 10.617639316277314
Ti 11.666538928555847 7.762988202200854 10.234207089213536
Ti 9.514066710244593 8.364183041288037 11.266884732169276
Ti 11.525363914933584 13.160180055526148 11.355530631193513
Ti 12.430475808645784 15.22102316117119 9.9018450831686
Ti 13.759616239508786 8.713702935415778 10.984438985703765
Ti 14.265900091293929 13.832624074667198 11.2875356920383
Ti 10.052726608636183 15.141687939531549 11.398535724352628
Ti 15.239732773881773 11.866862458690438 12.944070937790045
Ti 12.562199490899461 15.547036446218883 12.328180713299515
Ti 14.122352092342556 9.600261852684705 13.587969537005588
Ti 11.767711360568171 8.823658644145265 12.738116795550658
Ti 13.836688810513689 13.936604091086878 13.938067042104187
Ti 9.694935571174627 10.430968607368715 12.956412175092824
Ti 12.388390987197631 11.676602957061526 13.302839944598782
Ti 14.34276131814252 11.580736736871811 15.233763825196407
Ti 9.116754209481362 13.025655824807256 12.972972628413737
Ti 12.03574863829465 10.134359217165759 15.295657440734928
Ti 11.03103369369719 14.392712813216587 14.065134470717272
Ti 10.15133862643014 12.023623453556665 14.988373604143375
Ti 12.288018095536636 12.798077438968335 15.832775463528783
