37
Energy = -244.75784167 eV
Ti 15.29431873303339 13.774410094195158 13.972100805275668
Ti 15.975163164492502 11.058982363984693 14.051666409768979
Ti 14.357198724362414 12.058876444438598 15.759893433695185
Ti 13.098700081151403 15.22217255051718 12.553968470914604
Ti 12.597211943951368 13.882621008428274 14.923960674407702
Ti 16.263111342029724 12.152544864174407 12.016898504277249
Ti 13.874637366858366 9.762696447908823 14.777029986660628
Ti 14.763170077890857 13.80340624701651 10.930006665774556
Ti 10.649295832167399 15.756280697160342 11.476376411202416
Ti 11.84264365606723 11.23972114506965 15.535599420023205
Ti 13.769909720661671 12.106428014178675 13.019409418968047
Ti 10.79730312487371 15.424986993151476 13.943790930612472
Ti 14.328841909696047 9.594579735275902 12.201313063351323
Ti 9.896786082879766 13.018030802663063 14.721862755909546
Ti 11.524950802156956 8.74920171485092 14.264423437364869
Ti 12.402920349580944 14.565774221815241 9.975676153030248
Ti 11.165818086015292 13.248804829303225 12.362572193543823
Ti 15.152119093777321 11.035618545125809 9.907996017145729
Ti 12.637513992999688 11.678995985008696 10.428092615117725
Ti 8.76002630352542 14.413275911398065 12.599869766740401
Ti 9.477770309510902 10.376862869581755 14.50463832474601
Ti 11.647060051017313 10.610287296166907 12.809178578044765
Ti 13.318822353115035 9.08664116549818 9.800469383570924
Ti 8.6035947374023 11.848473753938661 12.580474920999903
Ti 9.724896011368749 13.60202900973557 10.114103765959431
Ti 13.398814686747656 10.789749420608906 7.959490826019455
Ti 9.885577809751036 10.754694346739074 10.488646715673033
Ti 14.095860376336848 13.122212946369972 8.552079622376311
Ti 9.460158612233501 8.758521013600673 12.472532014021198
Ti 11.51380595486991 12.579217815890285 8.10304123566191
Ti 10.972371189814874 9.74818166820809 8.33872731134607
Ti 11.516423481553051 8.353643945665096 11.16176341822558
Ti 7.493379335320139 12.057259045557421 10.064698104592557
Ti 7.419670780003477 9.752061556916201 11.139827504438616
Ti 9.103144461776989 11.983895004313158 8.089802438896294
Ti 9.184881364938322 8.192536708342162 9.901881956280148
Ti 8.08424913035613 9.909911212888286 8.562655473242677
