30
Energy = -196.51905653 eV
Ti 12.202544177064292 9.921388653459648 7.977254563341197
Ti 10.030877516806601 8.593757933392185 7.9369534010786555
Ti 10.215525739597737 11.235350522670165 7.276822873502786
Ti 13.897731523618825 9.634336619404378 9.946592040506426
Ti 13.13219194489292 12.139352176054697 8.34686654671427
Ti 7.612316236764885 10.134191457498561 7.57888587596646
Ti 12.283940460857941 7.78758379834623 9.083458347707355
Ti 10.178899202557377 7.009489274063977 10.244979466474033
Ti 7.945089072050056 7.898907549934424 9.101125290687957
Ti 8.97320192511966 10.546093343635873 9.768564434216085
Ti 11.70305228953165 11.61251340052247 10.440764740013002
Ti 14.425906409005368 12.050913503653245 10.715479269504929
Ti 8.310380268741152 12.664973272973238 7.991302588998242
Ti 10.527434067327112 13.546122510579012 8.972506663625087
Ti 12.8508693173469 13.999808249816635 10.216311733993976
Ti 6.478072602888279 11.835616614931785 9.384666913877407
Ti 6.410842968594473 9.49734422028894 10.004146613137472
Ti 12.822491659646726 7.510709880489417 11.645386088841986
Ti 8.132019827751996 8.433631743897571 11.660508651901138
Ti 8.342858245140228 13.275121906597358 10.547876402082744
Ti 11.190580439316253 9.343685502974981 11.326470399454657
Ti 10.31153731107903 7.234657006876741 12.759959380150391
Ti 10.797066886929104 14.103634571441175 11.611168778130992
Ti 12.922005087159272 12.826624544234056 12.589749104080052
Ti 13.680626968982402 10.186523447170376 12.510777860468068
Ti 7.239101693740398 11.07449117519257 11.895137310432723
Ti 9.648948200888173 11.849520361248233 12.318741105069456
Ti 11.981617097873968 8.67665536210831 13.911391470744308
Ti 9.472819783478268 9.523383167362567 13.643589879647948
Ti 11.509225379618814 11.08339253355089 13.822336510019769
