32
Energy = -207.83692117 eV
Ti 9.244641322007588 14.756612225277207 11.556162059498929
Ti 11.126739881370815 12.230541840672648 14.901039753144822
Ti 14.475546959066655 8.196524773486821 14.516541722992665
Ti 9.969984535421137 8.116218883283294 12.23066903653011
Ti 12.932319523571456 14.265354463087053 9.321254533444469
Ti 13.25798515277891 10.588960297300279 14.990121721430107
Ti 14.90166470689275 7.902692817800258 11.927353828260511
Ti 10.883714123061283 10.091385298398311 10.736827522284472
Ti 7.027724813151172 11.065665640215691 8.867715986783624
Ti 13.661480629500936 9.850368281743279 10.440610573256606
Ti 12.04516666620838 7.676113699156413 10.44782928511496
Ti 9.643672119519083 11.00694666719598 8.73180553420853
Ti 9.257839415667975 13.095496168334412 13.336667055408817
Ti 12.036209447667456 11.14017989156254 12.754719807757946
Ti 11.351573400365789 13.127706071881068 11.24392591068428
Ti 12.341060246310201 11.821945543390306 8.888181907892948
Ti 8.158686272913382 9.625822795639493 10.970280031791871
Ti 8.589429727850513 12.229395341004073 10.857189956808865
Ti 13.567697911292383 13.008432876599649 13.723615848704169
Ti 14.770688508244712 10.413284017786612 12.950361051686528
Ti 11.361862905165165 14.742517613436119 13.394621272201233
Ti 11.809776216553704 9.319185077215579 8.360535841908554
Ti 13.547503784476325 14.735374730496913 11.814179571761954
Ti 10.99717782137176 9.408843099681008 14.663417106894146
Ti 11.439030225412623 15.74802112001761 10.829267959952958
Ti 9.239448701616361 10.606828528551953 13.264767756015669
Ti 10.225365026199427 13.891487884264889 9.024312151798703
Ti 10.447593083405373 12.34839971705455 6.824834566989149
Ti 9.63390103048343 8.23872370043519 9.415018643210871
Ti 14.153773813339107 12.414476242084671 10.903302716502584
Ti 12.69669045049337 8.541059621307076 12.816113968741144
Ti 7.911252808050034 13.01815476359406 8.279625361661695
