31
Energy = -203.09123054 eV
Ti 15.042539798040252 11.194008064925209 17.08430282013935
Ti 16.604361497490668 13.467681748095497 11.422553577473403
Ti 13.795308205337165 10.216724635127287 12.682148753575312
Ti 12.173689248564804 13.793477624828025 12.107230066780131
Ti 14.718614040424507 13.672469196465855 17.724907163235702
Ti 12.822124805276609 11.975465701150107 17.848540298947107
Ti 12.27119802483208 14.478961072050124 16.92260603246437
Ti 9.880174900151486 12.131374306049505 12.702674233871845
Ti 14.802646532768883 12.777751464292962 13.143850179645957
Ti 15.712581819581644 10.51643616804761 14.609989403312557
Ti 12.88363717793012 15.55081034501512 14.251995264651017
Ti 16.49184115259585 12.857999160151701 15.89420279978214
Ti 14.990321957382665 15.202535494390556 15.611205421364646
Ti 16.150231973399926 10.7764588136318 11.98533748661357
Ti 14.4487921612691 11.954856109005487 10.459675168530861
Ti 10.798217162072257 14.036574344283883 14.523568153381078
Ti 13.055756873035532 10.260664672721404 15.693277332042143
Ti 11.89402938374713 11.266202243833483 10.96435796170252
Ti 13.482454933499653 12.90366753039533 15.378969185489337
Ti 9.261240432242216 14.491949371697325 12.111758230152047
Ti 16.95735088028951 14.516585814587359 13.970001755008441
Ti 12.986017911894374 16.38215326405358 11.504708140910097
Ti 10.814865811641127 15.472464496152208 10.275146542725851
Ti 10.910690017403521 16.1781021682096 12.803455547627287
Ti 14.55904374234782 14.615361605760121 10.384693238478972
Ti 17.500839371533296 12.114065548724001 13.559150772197864
Ti 12.502044451290322 13.48695291939058 9.433908268160312
Ti 10.993566003349493 12.048779716987616 16.220853279964754
Ti 11.769258128799027 11.395518243955971 13.764704739420441
Ti 10.166846473056074 13.00342373301356 10.26960621637913
Ti 15.149085763072048 15.558941039546212 12.741228961669202
