34
Energy = -224.78020323 eV
Ti 14.67245860560694 9.49205474737978 10.003860008312948
Ti 13.428378023606028 8.638555171903482 12.183143856572261
Ti 14.161862307319703 12.005715448618183 9.086890564757143
Ti 13.412523598737954 14.390208858061483 10.834492000026604
Ti 14.26598536903181 11.6123732839639 11.602861220848323
Ti 12.544417356092936 7.861488386084314 9.730882161533797
Ti 13.310787545798537 9.6721490551835 7.919127989214835
Ti 12.970949169760436 14.143944780038462 8.156512636834861
Ti 13.663810457363908 10.64093451244904 13.776838193716252
Ti 11.01643407853689 7.588159178250207 11.987910639927525
Ti 12.19485018441673 10.348101228595032 10.321296053773441
Ti 11.80304257012104 8.783866322819257 14.538248326607857
Ti 11.978833925733046 11.812299532870178 7.445046573337196
Ti 12.352946189415217 13.036148627341841 12.971752160383966
Ti 11.370904007095097 15.570181275338054 9.44284173276085
Ti 11.059317518242947 10.58735527658214 12.910071128744235
Ti 11.92918203743595 11.464347010702989 15.248237722330758
Ti 11.495242111626334 12.888489504307742 10.03565937824007
Ti 10.401677308805917 13.920818195019258 7.69560422082334
Ti 9.677244038704973 10.317524976404698 15.24405440887373
Ti 9.935860316506378 12.7426853383412 14.18804528134866
Ti 9.475285928208326 9.798915956751665 10.786487589886
Ti 10.674082984231077 9.475095824287378 8.05356589350709
Ti 9.984751709636901 7.456772681403256 9.330633022168405
Ti 9.351722303431004 12.633290261514034 11.684318197817221
Ti 9.109951135089942 8.517220679277848 13.390789020724167
Ti 8.09626254067339 10.98541396537756 13.144454491115892
Ti 10.876844707238671 14.912530926810556 11.796707959287764
Ti 9.105133451540304 14.254562125667531 9.858586768388118
Ti 7.302182475732416 11.37891962221479 10.441149152309507
Ti 9.307165460306642 11.680455822067973 8.69966265145928
Ti 6.972202533880563 9.113433909484804 11.629569757311964
Ti 7.813357371183142 9.093120241722241 9.03373932261154
Ti 8.402968690350528 7.294636689119433 11.009498948468112
