37
Energy = -244.87792239 eV
Ti 12.511116058205856 8.24122051775772 7.890364682185357
Ti 9.886505860113253 8.68479313194168 8.3824604353252
Ti 13.766865060452574 10.289341227346059 7.4203075654533945
Ti 11.14682224897376 6.742725776844026 9.498892472037193
Ti 11.226805812336137 10.346200340989848 6.40772828837927
Ti 13.59447668026532 6.98475759817236 10.10277367171893
Ti 14.549468621148764 9.358868141884136 9.675079038203327
Ti 8.67675887466141 10.329863228451154 10.159870225572819
Ti 12.849913346796551 12.513465549341495 6.964655630172621
Ti 12.0019338257548 9.15207388977906 10.621679765369139
Ti 14.05624518182509 12.227506417323001 9.280038926827435
Ti 10.376387019553011 12.8778494635332 7.088978408544607
Ti 8.946446103737411 11.025650622399368 7.712055760380737
Ti 11.75995740181719 6.816637310910914 11.931152803217136
Ti 9.506858051126512 8.109885340521647 11.132343286236694
Ti 13.900232802341828 8.448569638992366 12.287178449182258
Ti 11.471061283982884 11.114494390684246 8.877743155930927
Ti 13.998419485907318 10.991873699583932 11.584113456730519
Ti 9.53196839316378 12.855038004266016 9.676627740262484
Ti 11.862230225096868 13.946778880424933 8.970113678812144
Ti 11.046521303783141 8.665510766250268 13.395904298445913
Ti 12.06679323480528 12.752480512674165 11.169172894690005
Ti 10.438326925871316 10.976432067084534 12.109793277124405
Ti 12.68269229829668 10.61601349701887 13.809736981828669
Ti 8.438890898787022 9.946362259139105 13.04460566030717
Ti 13.598652323390123 13.086298517214262 13.579364516832179
Ti 8.063152274163436 12.51009574267611 11.98139464587425
Ti 9.912280726182846 14.737838621525306 11.539978068687628
Ti 12.315626975958551 15.132710818530404 12.429322934154607
Ti 10.777723358259944 13.202431091102815 13.619733812262483
Ti 10.334468645215752 10.86049484236577 15.216783450328638
Ti 12.331284503060555 12.37886364179655 15.784063748415296
Ti 8.281279127417937 12.066272657518327 14.515376107507581
Ti 12.317828010614853 14.811668178948306 15.117313078099793
Ti 8.28672201327821 14.423332403259002 13.778585813992649
Ti 10.291523996260354 15.786774599244081 14.007177174225134
Ti 9.889964221472955 13.68302978658456 15.931739270762122
