33
Energy = -216.38100023 eV
Ti 10.292331285687935 12.375165421945782 15.378121232167366
Ti 8.418321126656835 13.612217326641888 14.507031061754198
Ti 12.327060709743455 12.242574453723943 14.056284458935394
Ti 14.68499681211316 12.576794556769364 12.509668166875949
Ti 10.840658883883654 9.889614963956667 14.622129757809775
Ti 15.53397569817947 10.21260253090867 11.818853491793785
Ti 10.419666711953495 14.399750197973267 13.327069941584156
Ti 8.204856856693976 10.972481797858926 14.500113750361306
Ti 13.399415282155328 10.137053153890012 13.247512508641387
Ti 12.061960020403149 13.51549731758772 11.648844542732395
Ti 11.229921450495784 7.661265328511878 12.526785685839439
Ti 9.956983545203018 11.805909732925212 12.76219898714545
Ti 8.960274067324818 8.870626748198871 13.189100573805828
Ti 15.873177155837153 12.09178957121427 10.159899376822905
Ti 13.248976636699698 11.278881323906639 10.61222910206953
Ti 7.690837949401205 13.200409831859327 12.354533898597845
Ti 11.182820610200265 9.75811395700913 11.71353091671381
Ti 13.628497200823928 8.48953453720156 11.091067440847448
Ti 7.577045961040916 10.466300860999905 11.68380497810367
Ti 15.177432084578825 9.78970043097367 9.293114116329349
Ti 9.704427025253421 14.158282376998903 10.48954757882115
Ti 7.692478924256419 12.605792965951716 10.02372520986774
Ti 14.146370181428743 13.870262598110134 10.199275026958226
Ti 10.22943709491177 11.412479077261056 9.984057355723207
Ti 11.831110939811316 13.55173831895655 8.917321790937299
Ti 11.38072867141817 7.8231062563216645 9.793420173328597
Ti 9.28438233711631 12.403283684133596 7.968136850504372
Ti 14.082362440743857 12.00951746854132 8.182412722301782
Ti 7.825543555045651 10.334994456840631 9.074961788377614
Ti 9.069171155511466 8.40465325426261 10.642967344054544
Ti 12.795892925089415 9.470996793911134 8.468175930910094
Ti 11.624657547269488 11.45997192836237 7.4326056878877695
Ti 10.010609245911024 9.499863442690735 8.13870692140882
