35
Energy = -231.46373521 eV
Ti 11.524076848346011 8.644876147550741 6.720750745744121
Ti 12.809951581938343 10.843130874941435 6.65818571524349
Ti 13.84254157265899 8.793403721306145 8.129923737860382
Ti 10.2670742848023 10.800932301522394 6.773837009740102
Ti 13.978990394438023 11.839193416421372 8.7587940524414
Ti 11.552920018586528 12.74012572916426 8.07968344084265
Ti 11.558580383029783 7.345439879657746 8.77196841335026
Ti 9.347376894116659 8.858657477278228 8.392209786147248
Ti 11.78352953898056 10.062418501691914 9.099601417369426
Ti 13.023759962322371 7.937259754576451 10.608842551133744
Ti 9.105300627295847 11.510080565842241 8.853452046363671
Ti 12.173551429547516 12.366381863133917 10.85515036364532
Ti 14.850116695189424 12.671554624959132 11.163057731842027
Ti 13.146157558144642 14.323404351769673 10.024948342409505
Ti 10.189800511272132 8.282676962810106 10.842748052253881
Ti 14.519024409021586 10.056609823239873 10.508416674005847
Ti 9.861026729057734 13.76332071349005 10.011303830096614
Ti 12.585191731201842 10.082003307448797 12.092098334876681
Ti 11.218284303863337 14.949391430937093 11.830524650313174
Ti 7.673942790296404 9.889437910370928 10.63620994111048
Ti 14.18930398968974 11.63554076070551 13.399986391001242
Ti 13.377977062817187 14.169116875355163 12.839214692463697
Ti 11.23230830614844 12.180014518695032 13.508039456731616
Ti 7.672096624519161 12.504803626835079 10.765800990447824
Ti 9.835962033491967 10.935358098650887 11.532086392905633
Ti 8.514401016411702 8.927860225208468 12.890171567901975
Ti 10.988191816751453 8.813716647116932 13.338111098114608
Ti 9.003706334962954 13.870839092964399 12.547235271293088
Ti 12.375474991072874 10.360819173611073 15.073797155903954
Ti 11.066418306357685 14.5223660091761 14.541523137317572
Ti 7.724606924054338 11.382573607659063 13.121798376864007
Ti 13.16659193407597 12.968136400569287 15.23847991374957
Ti 8.89126131564744 12.9267564083767 14.879566554048036
Ti 9.601502921429871 10.329562253750462 14.945047318476744
Ti 10.93061902162603 12.293857806380679 16.149055709158066
