31
Energy = -201.31946839 eV
Ti 9.019952986799057 12.925671939817294 12.873012133591782
Ti 14.839934986030448 12.425498964956496 17.306954508990874
Ti 11.010756529299663 16.731572435323717 12.118153207770884
Ti 13.730027400792451 15.065921506492932 10.992386446155507
Ti 9.60479338719809 15.422050484671859 13.51771836197594
Ti 15.98619013075353 10.861001979898958 13.29213626082778
Ti 14.560966169029616 15.131324391336094 16.181306324279188
Ti 10.958155119563187 11.532399940461499 14.360684816853968
Ti 17.18120568774963 13.485129940766226 12.897198508470233
Ti 10.045893026629587 12.610546347787915 10.310542586350058
Ti 9.450211517183732 14.952327993847812 10.93841479636268
Ti 18.509127169797523 13.79458466841679 15.311215586868808
Ti 11.945338182582603 16.690443569757754 9.942118001533695
Ti 12.195719374123257 15.830419136032353 14.235093083463687
Ti 14.694280110551079 15.10374447740228 13.476152408933453
Ti 15.953939153885612 13.008552929047188 15.085251360505849
Ti 10.49843522998516 13.786657041467647 15.057760732260473
Ti 14.517030591580237 12.831001438865327 12.41749286923239
Ti 13.925344908509082 10.796843457988802 15.248133669654848
Ti 17.544936301374342 12.070918774745213 17.102951851560345
Ti 18.10599586048534 11.439255592064164 14.537962478335462
Ti 16.132059746066776 10.374810140365955 15.928945410790744
Ti 13.126420762290543 13.240090520350973 14.798784844998732
Ti 11.535024357137164 13.65384038685013 12.442919946570818
Ti 10.635976203927525 10.946109931692954 11.889131103006765
Ti 12.644096300399106 12.04348200196883 10.465216843866878
Ti 13.450791860399038 17.25603321547228 12.216554646797029
Ti 11.699873209571118 14.281915525097475 9.53538900619103
Ti 12.962671061266214 10.85514905985488 12.825826751869776
Ti 16.766201927198804 14.472093597691135 17.219043176877758
Ti 16.79682299519273 15.614673602371415 14.83772084906883
