37
Energy = -244.59221395 eV
Ti 11.644502595834705 16.21481558872685 14.832177063913392
Ti 11.374809938802045 15.625073375368991 10.478514817209538
Ti 9.960960314921696 16.11304029699117 12.846684431138005
Ti 10.25377068157789 13.706581015660653 14.474668983622593
Ti 9.905902480244754 13.063929440961449 9.252451618054822
Ti 13.019017537741092 13.969509848128308 15.38377862680966
Ti 14.082006070374408 16.00554170000284 13.962350142474133
Ti 9.45192943976751 13.9731369699626 11.580861862655224
Ti 14.044533024879595 15.396323548419415 11.278020294397061
Ti 12.304792049479772 12.962669727888258 10.830408332090338
Ti 12.068272114665755 14.4882489436651 12.939005976553993
Ti 10.281029723046347 11.746919511932875 12.599502177353834
Ti 8.04067943674406 12.532978682572704 13.555019320904576
Ti 9.485920198201526 10.283085303331983 8.631611210264872
Ti 8.143330327140871 11.608915158315344 10.893639675531343
Ti 11.109797873113344 10.746525907165104 10.306253116019933
Ti 11.633321606269115 11.923553591796285 7.966671934570388
Ti 9.9178459682219 11.067524644155334 15.021277123760864
Ti 14.975993064058333 12.626782620789907 11.137690853971817
Ti 8.881835330421392 9.087733118179916 11.071068139534615
Ti 14.68358653486684 13.644348687312592 13.354550183795002
Ti 12.060965232338523 9.409294364279965 8.239182086938117
Ti 8.232084847802366 9.971024949277018 13.207532896414591
Ti 13.375967480563919 13.910958715855205 8.982843406533421
Ti 11.012765442671059 9.291362712872951 13.148169954915874
Ti 15.767003096917481 10.203123552015384 10.716392988201822
Ti 12.59211510223389 11.788250892462885 13.92122535717132
Ti 9.750188883203567 7.35785793907491 12.936499776194177
Ti 13.284019238316246 10.209909770898266 11.805657287640912
Ti 15.395790372715163 10.80127252009939 13.301900113492508
Ti 11.101612194996145 8.02631128702307 10.459873068865843
Ti 13.933874409864881 11.146794171500234 9.016911284155515
Ti 13.51202795797128 9.15633363043816 14.263570446164756
Ti 12.805543664367038 7.4686568911745805 12.32410467716488
Ti 15.161503151874651 8.363602744011505 12.350660412086889
Ti 13.863783979967465 8.42282688016085 9.932972073226043
Ti 12.330584193144066 17.12884685684903 12.439963845528412
