36
Energy = -232.79190163 eV
Ti 16.02580237847377 10.89596294993162 8.548955560247105
Ti 14.842082501037059 9.663403716399468 10.292642491889465
Ti 13.514135312414155 8.112093729521002 12.33712908267871
Ti 12.485569129918872 6.728691224306444 14.051942223031409
Ti 13.476717897025724 10.415374097956242 7.944510566126876
Ti 12.21679639046627 8.77718303523729 9.940542118630695
Ti 10.848776106877606 7.339342612149686 12.016594146764778
Ti 10.77559054434622 10.174451295873531 8.11334023426903
Ti 9.507679534434242 8.695896918224669 10.066703464027576
Ti 8.236868872224479 10.104138691494464 8.365022697908238
Ti 15.38087422921749 12.387479162935033 10.672183812787285
Ti 12.745587625619724 9.311114244186763 14.736684998450812
Ti 14.166246796728663 10.808841508519588 12.740662425416758
Ti 14.437798860242932 12.828789856537481 8.272989168499324
Ti 11.89894092959645 12.771378536208868 8.129538200850064
Ti 10.43400304220709 8.137133684965368 14.464385068721137
Ti 12.80431315922323 11.527023535887794 10.351300973662452
Ti 11.476733820565588 9.979017596759265 12.400961312085403
Ti 13.990044864088365 13.520994173182034 12.725928321963288
Ti 9.981155603757394 11.336278285017482 10.42283539622621
Ti 13.258703454538653 14.177368244950747 10.082599272042414
Ti 8.89686779921803 9.258603512827191 12.770156707344642
Ti 12.722188958552822 12.03879826705194 14.681129207058275
Ti 9.179091745529051 12.521088597657132 8.096487182536794
Ti 11.39696383294332 12.80431628814731 12.450792174420299
Ti 10.253745126828226 10.667286701427312 14.714046432594266
Ti 7.416828380642013 10.467582215510339 10.817221485750878
Ti 10.541210743571233 14.09200763106769 10.072491584152482
Ti 6.640485067091053 12.01545145494843 8.781753516250246
Ti 8.718336686469614 11.96239376708494 12.886088705843722
Ti 12.540494000287982 14.57603164617756 14.539914626165842
Ti 11.995811801023077 15.4507163808389 12.139254332860762
Ti 7.925028729064274 13.185762817723667 10.498761843899727
Ti 10.2319782336665 13.391426383814077 14.853322227767162
Ti 9.346188924199817 14.662236137218722 12.532362978422896
Ti 10.464443265410592 15.983469521536373 14.26127929414981
