31
Energy = -203.55010197 eV
Ti 11.124936306869976 6.394750773471341 8.950701423448594
Ti 10.340486656282177 6.961251022767495 11.531988108706516
Ti 8.568263330050687 6.935859188652977 9.025997476248767
Ti 12.71266249874633 7.9046500349550675 12.834055741954538
Ti 12.848191829827027 7.042156654723331 10.482827318724372
Ti 10.30302485138585 7.688418743177997 6.958177895259881
Ti 8.121176000977787 9.059257770222175 7.266252129208268
Ti 10.119640455821326 8.854006180292963 9.206914722521228
Ti 8.66131676393775 9.18913018953948 11.631272899507113
Ti 12.636813565818377 8.566612117978352 8.226064096156612
Ti 13.058762742532611 10.458066944861313 13.236886600081148
Ti 7.013113144252343 8.985704398462039 9.70492131920905
Ti 11.59090835030392 9.318066262015195 11.115511547848664
Ti 10.440722680293376 9.383182060900712 13.594753022478496
Ti 14.076979590820198 9.333843675887369 10.857010213685237
Ti 11.01089076399914 11.796508647755555 14.334376324703799
Ti 10.784763378641419 11.626463693052779 11.566721160317602
Ti 6.418358314175813 10.8895319576319 8.29222384441772
Ti 8.678494709005339 11.596394264864644 13.055656325185566
Ti 8.961703581600785 11.081186021949955 9.456847139579002
Ti 13.561717046472065 11.874197598336847 10.985676329357226
Ti 6.885934683490078 11.476870622931106 10.881610182942058
Ti 12.161954768068403 11.209653090451738 9.007263800480407
Ti 10.670567241710241 10.449082502494559 7.032883233804022
Ti 12.704883298590977 13.124200874063659 12.906214802928618
Ti 8.37703508201036 11.690137078490485 6.803757970743528
Ti 10.270983759383673 13.820615720050055 12.914772537627114
Ti 8.846916808131864 13.54171222112735 10.8319209129103
Ti 7.4748928875513805 13.133525309439039 8.747068636854188
Ti 11.646908480824965 13.775358127750932 10.514078619935377
Ti 10.14231022538773 13.054920048665254 8.260907460138949
