37
Energy = -244.91547912 eV
Ti 10.412692567000462 10.51742191176969 15.391106117269999
Ti 9.292756693152224 9.7676774547069 13.331841689225055
Ti 7.933300390321027 8.612910118512612 11.009412177356346
Ti 9.764931588902838 7.357978063956991 9.7073257496939
Ti 10.598604076605659 7.508948079120795 12.172505342475612
Ti 11.975348308168936 9.164318836494095 13.628447398606294
Ti 12.043114040473123 6.664358842779576 10.164225073597143
Ti 12.947468897165626 10.99750299893919 15.268394382238075
Ti 9.034352062850504 12.545108285305142 14.252509759850858
Ti 7.607593007873419 11.236985118584661 12.224455297070401
Ti 11.196503734608973 12.920275269387245 15.640647610688385
Ti 7.221513760279097 10.705910156898216 9.71351368942919
Ti 13.560647070158495 7.6034937573195185 12.072603530985914
Ti 11.40173018910628 11.7225799536688 13.11995405250269
Ti 9.84233325168806 10.072913372455648 10.58569013953594
Ti 8.8939043860396 9.333115239648974 8.294525002077771
Ti 8.57906182252935 14.393872471177716 12.194935373555818
Ti 7.241989391932887 13.081178291912694 10.33245735091137
Ti 8.94533807065275 14.686351199263914 9.567924279258463
Ti 13.392537670448343 13.242036391815123 14.327612589020964
Ti 12.327425253963035 9.422619121686136 10.83375528125601
Ti 11.612451943688507 8.461257826182596 8.2133650130001
Ti 8.895191673313116 12.182114364365164 8.321230096224838
Ti 9.78386415662808 12.594616883666703 11.022696502650167
Ti 13.966328654036065 11.018542907454997 12.718810983672299
Ti 14.023088400325404 7.791896865185647 9.42999321226471
Ti 10.978530412486153 14.415729756495468 13.535243613918393
Ti 12.179748093658501 12.062144738394151 10.090036060210304
Ti 11.187439045973418 11.062551154922692 7.719118652036489
Ti 15.05525734837433 9.576849500636289 10.752281201494073
Ti 13.252115005902258 13.773699313092385 11.998912232230515
Ti 13.804680161595359 10.176987886018551 8.43836503078091
Ti 11.077132354649569 13.8286469436216 8.28092836887044
Ti 14.765698473475611 12.166829122556846 10.190590250896156
Ti 11.140915696928284 15.002122439672767 10.815689410602552
Ti 13.399651741755013 12.590695120033132 7.812060401209516
Ti 13.343929087571231 14.408830688926615 9.504337031377588
