38
Energy = -251.63161726 eV
Ti 14.471454510919493 14.15478437244115 9.487980552397483
Ti 14.035892839170714 11.556682309006518 8.942844869341855
Ti 15.139562970982814 12.327376952623336 11.600640292312695
Ti 13.734472991020377 10.057958763003157 10.887174338113857
Ti 12.397294133413507 10.959445097703908 6.91983221277046
Ti 14.257395222739186 14.785631220596011 11.925756081405025
Ti 12.241631095587996 15.442896021679642 10.27044712047511
Ti 14.394316827190769 10.310191509455157 13.419861589131319
Ti 10.887809017717482 9.012556623500261 7.290934160914449
Ti 13.144220533565743 8.924290703937132 8.54179424567845
Ti 12.12329547397658 13.288448415368686 8.26907754742097
Ti 12.670642243906155 12.949482217526295 10.875169075282258
Ti 13.640544664580162 12.92514641582765 13.814165737310983
Ti 13.107869539089673 7.672555259502275 11.032828598221684
Ti 12.10928107605189 8.507562418570892 13.441543021777973
Ti 8.888569925232193 9.123301542480494 8.782396400597957
Ti 9.81451746698194 11.440394986134732 7.241176338288324
Ti 11.837098011924793 14.956771404463076 12.916744410291974
Ti 9.799841641429984 15.414310798048822 11.185836313387961
Ti 11.96230410298547 11.001808962981885 12.612368894465858
Ti 9.69363604225962 13.680325417630582 9.10793081751331
Ti 11.201915402640381 10.947364183340147 9.380188897380636
Ti 11.127023763615297 6.479789766237705 11.810771557470517
Ti 11.014573273203753 12.908012740114799 14.606167957429285
Ti 11.175270830204289 7.191459014352672 9.176959691020924
Ti 10.212836354738615 12.755011387384174 11.6588936573513
Ti 12.563510690487352 10.726396457926443 15.08379804946712
Ti 8.331581706547944 11.562930875819966 9.452392692009632
Ti 9.977748250301273 10.168055657278483 14.195300972038082
Ti 9.26707488966378 14.609717611311098 13.437707086159655
Ti 10.647893527979496 8.972297817471164 11.090064142257512
Ti 9.165105219599896 7.703262760403774 13.107852304080431
Ti 7.9075070583664475 13.537344671590882 11.332456669777391
Ti 8.482754372702203 12.237094756323513 13.778196444058757
Ti 8.605468941283132 10.616068496237524 11.797795860349613
Ti 8.963530648546497 6.8685660022822095 10.496266411170383
Ti 7.335533954165903 9.449932787692687 13.629645432645896
Ti 7.415347155462548 8.521099971986859 11.14536592846842
