31
Energy = -203.73605587 eV
Ti 12.887707063066879 13.625756856431018 11.462522229688748
Ti 13.957069479751372 11.900145254843304 10.021111911874014
Ti 12.974347251467906 12.724714197767009 13.970842514972171
Ti 10.440526352872649 14.32135041363104 10.46019648969874
Ti 11.610052426476633 12.458296745686733 8.988085647564
Ti 14.441301199247707 11.419097140796117 12.484867265277813
Ti 10.782712764049412 13.94804556870277 13.108851031627632
Ti 9.37896963766927 11.496516461912853 8.679905906734229
Ti 11.061016396804622 10.140434505231198 6.974757752562224
Ti 13.418298450160108 10.999623968112754 7.778321253880347
Ti 7.931723166350196 13.524468599840835 9.694401089389185
Ti 11.814099159112303 11.20689927713262 11.929754601360269
Ti 14.52174248423636 9.366472865330724 9.48927651862905
Ti 8.50172943567253 14.491365469593843 12.042918537910344
Ti 10.85505578641618 11.791117196680824 14.684680175457958
Ti 11.558830093901237 9.630534289524416 9.515743209041158
Ti 11.063635896987948 7.496672720039841 7.772222038815075
Ti 13.18773569274477 8.541730861673702 7.523111195601439
Ti 9.280249376279038 11.963163838952282 11.413587525014313
Ti 12.674585678354314 10.04279797615703 14.084141525817662
Ti 6.690023965856172 12.77117110553771 11.868169081233562
Ti 8.470405071054484 12.443104269095834 13.890858000483647
Ti 13.65829994755539 8.98540762228593 11.872248392682408
Ti 11.31710734367336 8.245288884161972 12.189817038743728
Ti 9.02971583326373 8.939275704360789 8.369678618865484
Ti 12.760513050104517 7.309672342191867 9.948806403267021
Ti 7.174824045309864 10.941740986322415 9.995892541243798
Ti 10.087233802837481 7.245441285613678 10.035096176521606
Ti 9.687440333961492 9.913228258832165 13.624834777042562
Ti 8.967390891689162 9.195630489528048 11.051897549844881
Ti 7.297513546691421 10.415086197714157 12.562222864667664
