39
Energy = -258.7857934 eV
Ti 9.900028301480122 8.465694939015188 7.032976416496768
Ti 12.4047119659692 9.442544966344473 7.375962075450483
Ti 10.14192272154116 11.188636804627667 7.35237103303972
Ti 7.998027689819221 9.633549475796999 8.339819400561664
Ti 11.388760547137666 7.045602325537756 8.598379869102425
Ti 10.775923154819727 14.234813430331691 9.084388478447917
Ti 12.430076777115334 12.040408116133026 8.088683635081857
Ti 10.62442091949081 9.486783522729388 9.309414031766902
Ti 8.957815527658097 7.436546937765792 9.375343020449117
Ti 13.567468270827808 8.051084290924988 9.353409771014753
Ti 8.288822220394742 11.877234472257209 9.362918709748904
Ti 12.794122581836934 15.567959785024586 10.413317298178404
Ti 13.375073569133443 12.925996373601873 10.321554370649014
Ti 6.450332001793524 10.57112202482116 10.823522714174247
Ti 10.308725217157571 16.222815927115317 10.878119800953417
Ti 10.981076334150758 7.6605786037851455 11.329388801750415
Ti 8.702157540815307 14.350237445874338 10.701302278131623
Ti 10.715224401624505 11.969361008892696 10.247556704951684
Ti 14.456035888849495 10.624442020891403 9.028930888361394
Ti 8.641064327539173 9.583292980541312 11.08634906664282
Ti 12.858753757630414 10.12136302089005 11.080697908342263
Ti 15.253639591495078 9.008538372705088 11.048113961448973
Ti 11.169389144893051 13.876547276165674 11.949172599825323
Ti 9.235364992836892 8.120457552353965 13.314617904430957
Ti 13.482611736470531 7.529488507632677 11.9885331273878
Ti 8.398865392257768 12.27948325759768 11.999602436417891
Ti 15.106139899413037 11.517884581799931 11.673827246946008
Ti 11.886843203426357 16.369449553118514 12.792668434781048
Ti 13.809469856620925 14.597758615024551 12.542506295893855
Ti 8.041883331541305 10.406066946651011 13.607309904053746
Ti 10.655878516044439 10.363987592828266 12.697776740244988
Ti 9.479561010209029 15.168929896837572 13.294390716375528
Ti 13.013327849245778 12.213113202849527 13.139329601925162
Ti 11.880993439138225 8.324368329135961 13.986404439165481
Ti 14.186172695927093 9.685023367928427 13.426530999892064
Ti 10.067062946345096 12.458734919957788 14.2182753856527
Ti 9.973172128180735 9.841787908385166 15.2108635563299
Ti 11.939221380262719 14.38226870550781 14.447280914099464
Ti 12.175604716403695 10.8717884881143 14.99413500933056
