30
Energy = -196.04523086 eV
Ti 9.78444156461843 9.492942682896542 6.530119723728101
Ti 11.466123000080971 11.582039394812469 6.143079750085707
Ti 9.871106221349352 13.810193662439953 6.884384282887282
Ti 12.224718873058205 9.267907546676115 7.794764392964094
Ti 8.706441132537627 11.864732541933513 6.145914134317225
Ti 9.097628867407115 8.58105127971061 8.915866454785261
Ti 12.175220940706403 13.544518836169296 7.895590932213908
Ti 10.118301500851244 11.61053429299892 8.423292571418598
Ti 10.906270171789224 7.20883863515414 8.177685958534292
Ti 10.181909543008995 14.205525101751634 9.378230377795953
Ti 7.206031357840383 8.013758270869584 10.353452905996603
Ti 13.08923091699699 11.369029941197585 8.388574509740796
Ti 7.9071995488035975 12.967964499319201 8.54992071851965
Ti 9.356033277827894 6.3008283858955485 10.451851446777377
Ti 11.86347829654117 7.327861707023201 10.520871975542384
Ti 7.606103552061468 10.394617650776805 7.839934047437889
Ti 12.136491121600734 12.68309947217557 10.474617850082783
Ti 13.394381243713921 10.105904400777543 10.63969236548337
Ti 11.018357042285592 10.003068038837013 10.25389355846754
Ti 7.978123278718551 10.680257778744128 10.49973719610802
Ti 9.477113493470824 8.684443875386073 11.880901141865092
Ti 10.48934647032815 6.65474902606268 13.030404520590958
Ti 7.772480340138371 6.739321108207316 12.529669773030884
Ti 12.398393402792838 8.586724712726548 12.508619241382531
Ti 9.642026875485847 12.40417152778091 11.186556339957566
Ti 6.9177507566140335 9.271470648125458 12.578676504525472
Ti 11.584873752691196 11.1135137811082 12.703851588583804
Ti 8.94188512654936 10.820617397905679 13.40929028660501
Ti 8.564163743029962 8.310009846570054 14.339994241052977
Ti 10.850248760194216 9.126178129060824 14.296435382611081
