35
Energy = -228.43903318 eV
Ti 12.494353508954429 12.4367268477013 16.056231801866602
Ti 14.13538074655768 10.542865538464003 15.194719857519273
Ti 11.500401891158408 9.861991163419475 15.65753099929256
Ti 14.044070630295112 13.21156766269944 14.31057352560604
Ti 10.089611886749095 12.193564176086795 15.594370841832543
Ti 15.820525691748445 9.292361107085481 13.310600541154061
Ti 13.29611403336851 8.584547108418468 13.755221929788826
Ti 9.277130949454165 10.51361447542867 14.135052748082394
Ti 10.467207637502481 8.702560565475949 13.262680789995445
Ti 11.366875990990376 14.020374566723596 13.976938225800957
Ti 13.584889746579368 13.427834764471413 12.113784765577085
Ti 12.030349501493053 11.438185126626529 13.649287234339146
Ti 12.470701838245718 15.844022241639466 12.668931316402787
Ti 14.413636594054415 8.075863847005538 11.337333708852196
Ti 12.071122210530001 7.178481670086969 11.83265537345137
Ti 9.031944619036288 12.89675797967301 13.073351445909605
Ti 14.533805593221924 10.877870080398557 12.30413407918234
Ti 11.291622226673569 16.990464214770476 10.751025913794535
Ti 13.422041626637963 15.347822245551084 10.148574328973329
Ti 13.276968476498082 12.322427154558333 9.89976618817404
Ti 11.256869866502171 14.070905292015878 11.052795132667974
Ti 9.561570654871606 15.594587321480503 12.201082629940139
Ti 12.343119561126178 9.710137949038078 11.033742529707387
Ti 12.371501882091112 8.0143628031484 9.233141596156653
Ti 8.554548799198864 10.275387838606337 11.587364827587754
Ti 8.663616577929838 13.231211962527091 10.678409872042781
Ti 10.63930291990006 11.464412174286096 11.3572571979142
Ti 10.00972679765919 8.112346147985535 10.695634998293002
Ti 11.797042211363511 16.33213902984877 8.474190164278385
Ti 14.49129802768451 9.940720798247332 9.542799020859546
Ti 9.671365488519557 15.35051497826197 9.417270621001709
Ti 12.062974785044402 13.820101988438676 8.224476474371457
Ti 10.179492508727659 12.519124560557815 8.823317692551454
Ti 10.074836886758366 9.76460545174612 9.06256104282454
Ti 12.230739618015395 10.6495646184445 8.309079400065304
