38
Energy = -250.69894619 eV
Ti 15.209285384744819 9.576482822462022 13.820214558661483
Ti 14.29333232429606 8.299975792438497 11.258592243136837
Ti 13.770993318711838 10.687030767321863 12.540918179057636
Ti 15.322064198632338 10.607370790534205 10.08019222392724
Ti 15.72377930288765 12.357545259171962 12.507140687472111
Ti 12.983391919557057 7.976345212987557 13.238377259788992
Ti 13.338521792860147 9.26832869344659 9.17194895470794
Ti 12.607767497078184 9.893122465080957 15.061572565171343
Ti 16.233592459687475 14.326279881679012 11.978534122399736
Ti 15.315623093183254 13.143515285951628 9.74158874932288
Ti 13.854098307081836 12.365380857224688 14.714623675274952
Ti 11.690249469384904 9.792358342413326 11.486100298794213
Ti 11.61849589164592 7.65334524605457 10.701475410924843
Ti 13.765819154966918 11.672816553750906 7.9814034738865995
Ti 11.580215525526626 12.149954597292638 16.17821385229722
Ti 13.11286817307329 13.623496427622234 12.229225947174895
Ti 14.568223391104606 15.148170256670575 13.652884573004123
Ti 10.556176064266664 8.682962854049594 13.623495651722658
Ti 9.820286876823797 10.485145348483673 15.46427191527001
Ti 11.371632687863514 11.860962931215786 13.568120345336414
Ti 12.801732039198903 11.987101097449708 10.181326913236195
Ti 10.970990913659946 10.318134732051222 8.880549018371582
Ti 9.081034622347564 9.60664404022566 10.635355265490835
Ti 14.243631824884554 15.558362603115839 10.82087556352496
Ti 10.131509010725116 12.183824812760825 10.904417755754555
Ti 13.296176406395116 14.239233980444551 8.675706091090932
Ti 12.05486057241073 14.3220986759831 14.627956230521535
Ti 8.910827953094273 10.721894874447226 13.033794345928797
Ti 12.37700401540955 16.137434729844127 12.534919738377345
Ti 11.442907858508475 14.953352954379293 10.24946313730281
Ti 10.905413337906715 12.96624646682118 8.42976259779217
Ti 9.349712182978536 13.080572036004137 14.918142036948408
Ti 8.611420222396669 11.54631578163994 8.801905181050232
Ti 8.643453723410815 13.979477583229514 10.050578727296791
Ti 10.32991576298804 14.508431786230718 12.617707119095721
Ti 7.379408326856655 11.714079542670122 11.056651147512408
Ti 7.108901837901614 11.551730096563361 14.282798807605642
Ti 8.027282425380212 13.459078752389024 12.686138557981337
