35
Energy = -229.54238009 eV
Ti 16.81698702415922 15.987655405066628 8.921674780041995
Ti 16.568677872165615 12.534515843996509 13.344122572312875
Ti 10.246148492264622 14.718919178096153 11.01871952304042
Ti 14.596679564992646 15.806557000650447 10.817592316254869
Ti 12.82548813081701 14.2094238879928 15.493785610093699
Ti 12.826950625381027 10.43483440982253 11.890974326509758
Ti 12.532904492140103 14.364601971449265 9.728751141127793
Ti 13.567648003178247 16.08067382545578 13.55396387145543
Ti 12.306082894359372 16.869591835381865 15.597918115544324
Ti 14.81566679642456 15.834481735966957 16.130786888822396
Ti 12.737166571722693 15.52095648383354 17.771376127029317
Ti 12.103966478627497 13.731565642638177 12.568899147068624
Ti 11.132247337825305 12.158361820101376 10.729684410700457
Ti 9.482788834587652 13.129839992544008 12.721460543454018
Ti 15.203044330203085 13.847869198781252 9.116758296436412
Ti 15.140006836512665 10.514797301455578 12.319365641782401
Ti 15.958718865207622 13.143680717869502 15.918023083097529
Ti 15.859906538567456 10.579638080877695 15.021739439392135
Ti 14.561333354035087 13.224422703555454 11.618224666520652
Ti 11.611307491212017 11.02301558442863 15.873195941039222
Ti 16.929266857815996 14.492538048924692 11.09685271510485
Ti 10.267113978748391 12.995508800281662 15.130477907257225
Ti 15.506786789632763 14.743669791020613 13.741408172705238
Ti 13.787300749140526 11.610489443477219 9.815820434974711
Ti 11.042349885585939 11.056297972234589 13.339353522364041
Ti 16.579861239572015 12.00571061939717 10.372816466174118
Ti 12.069431688196504 16.31236234818568 11.472264037787843
Ti 10.655527473296024 15.532399769614301 13.779456964221065
Ti 17.80957516022608 13.966588891993222 8.659967639779886
Ti 13.97103183150654 11.283553308804743 16.81201413799925
Ti 10.505616495604986 15.184447089882639 16.49127150576698
Ti 13.91644319670474 12.1646090988305 14.239979762875642
Ti 13.394711832573602 9.715101172686644 14.486373030795676
Ti 11.751105177927368 13.018948523554377 17.59805650927379
Ti 14.372010117873335 13.659041880478366 17.759718293215695
