36
Energy = -236.96575461 eV
Ti 11.960909712001236 9.892526664645114 10.898990155368349
Ti 11.939766456092697 7.160526111572886 11.385577267283809
Ti 11.959185656128806 11.736064156317747 13.207332177744
Ti 12.739074793009657 10.93585135526137 8.14235445958509
Ti 12.779359107268197 8.254725153402237 9.077270697197122
Ti 14.60805533527309 9.918241778793593 9.499218482059707
Ti 13.107410674072115 12.350159221549411 15.549985541782078
Ti 15.396348374754487 13.783095626566338 11.20397092059667
Ti 10.35339195222612 7.715105663755563 9.61905434249303
Ti 14.952469315041656 12.421386710232216 8.976420173405709
Ti 9.654229446926243 8.314333605686024 12.062670526685793
Ti 9.626357009294049 10.246974916965188 13.978227325727557
Ti 12.6584909571455 13.53077231999147 7.96833070429492
Ti 10.451419275397857 12.509463221588543 15.219879988865461
Ti 14.106455500854635 14.920475062647952 9.477975653224737
Ti 10.471636526775681 12.634130225893303 9.125038925213355
Ti 10.265747321464659 9.997039714042103 8.571082545874749
Ti 12.882130245961767 12.728547631828137 10.585786387717013
Ti 7.8171456023055255 11.576101102144646 9.218267885954214
Ti 8.161010921762328 9.0976839312219 10.02127381504495
Ti 5.766307649991628 10.428301175765078 10.308852266504891
Ti 13.162362411821295 15.062626647475142 11.958886942580941
Ti 11.510172915206528 14.975718265302572 9.81836833942154
Ti 14.083012961597788 8.566955179378295 11.663242227125728
Ti 8.583442350869053 13.745935241181478 10.629181227963192
Ti 15.124479755102575 11.1824672610158 11.591357672783829
Ti 9.587319294118945 11.303083337028795 11.275886567134732
Ti 6.517883292919767 12.498192264574632 11.363673573135575
Ti 7.334606646787013 10.245761595162213 12.320021067182047
Ti 14.429166402475042 13.08209961128195 13.434197141253108
Ti 10.575357430808502 13.804199209414014 12.08810320631825
Ti 11.774954024632242 10.282311650590893 15.491924371737444
Ti 8.360244798709546 12.559098510186951 13.265677177348495
Ti 11.894746271903408 8.670017491348846 13.5103070866627
Ti 14.058712933754029 10.305639608542625 13.949573262105554
Ti 12.101839962318317 14.267308738621677 14.251359663086859
