35
Energy = -228.9209303 eV
Ti 20.05737361286379 13.530755231257842 14.897027209214336
Ti 12.003399488338172 16.243842006092613 12.054491429906392
Ti 9.968704814959278 15.666969554502126 13.433907523427244
Ti 16.301324428143264 12.545530482125786 17.053922913824735
Ti 14.285656912366617 16.65940611084954 15.80577029090375
Ti 11.846502217756246 17.23153711112954 14.646332890948985
Ti 18.677023075066213 11.583716734424055 15.792689112677861
Ti 14.160032764631834 15.571067539978763 10.48881380752528
Ti 14.080590165987944 14.15265735056901 17.443611407489467
Ti 17.466234784076914 13.596471691438472 14.590692738582229
Ti 11.571555009912768 13.399351835640855 16.838844382939214
Ti 14.115179690821828 16.70578079128617 13.084571288211597
Ti 11.603116357409714 14.720143765447776 10.127054403030444
Ti 13.396532764281451 13.382157095153683 11.926900188816964
Ti 12.31336763375899 15.982770367144639 17.027710569289862
Ti 16.109384477339457 14.816461135278152 12.290898590383888
Ti 11.596518535350933 12.17526381671629 10.089618351118318
Ti 10.504540099552617 13.346615833504247 12.199876646432065
Ti 15.659859629567014 13.286867135799985 10.32882370248733
Ti 18.763819370838043 13.778421544840104 17.059526788954066
Ti 14.863729183161208 13.576876310326176 14.822972733744203
Ti 16.021397213031477 12.12959810798631 12.586322867582325
Ti 12.33789582122402 14.663021355404522 14.559818576740192
Ti 13.965992657422982 11.106842433915219 13.560323130823948
Ti 16.228081718586566 16.070291041906174 14.428409404788706
Ti 18.907106629425797 15.703292810204402 15.357352747279588
Ti 16.106814883524212 11.05195997707446 15.108889196060002
Ti 10.161010806628191 15.560968261319204 15.979563552682512
Ti 13.5391765324922 13.329174247185646 9.119445842910029
Ti 11.825710627935555 10.94512634763296 12.123588881227239
Ti 14.052237304749685 11.136100509453982 10.66610385933733
Ti 16.580408848394097 15.179731221186858 16.760803800949926
Ti 9.840992055261246 13.407264412250306 14.732595266416956
Ti 11.710655809232144 11.803114865892551 14.558352839339722
Ti 13.736277832619532 11.73870797376641 16.34927536106403
