35
Energy = -228.62856216 eV
Ti 15.891885452956004 7.014690326905741 14.785912555414873
Ti 13.875490541307329 15.1728217087976 10.38255104611226
Ti 15.445112426214425 17.697177066229525 13.567740016630001
Ti 13.68684535756982 15.58588309693706 13.109922900770362
Ti 13.288260555172661 10.839328218747065 11.751556650861575
Ti 11.595460625777914 15.73256840978803 11.161627155026354
Ti 17.07922834806576 9.147339445960519 14.864252359617257
Ti 15.897183756431401 16.25918294395254 11.471243673926725
Ti 14.837509937900904 12.865996752304 10.965703972509985
Ti 15.665279305405758 11.119133151460739 15.702466123108984
Ti 15.714951399401393 13.37324176633549 17.693323055831513
Ti 13.440383856525726 17.595277198830896 11.701985646651387
Ti 15.61393875898411 11.396875810088272 12.991857890018064
Ti 16.015576508029625 14.115028293468518 13.100559674357102
Ti 11.959605401755413 15.416419824367031 15.411042611670474
Ti 14.922962448564848 8.826797743558576 16.296431744777095
Ti 17.191482870679565 13.59134221296593 15.373341389357206
Ti 14.840130156033876 15.48401052267644 15.69943687242808
Ti 11.083644516039556 11.635440853741509 13.01156005158158
Ti 17.248293027341337 16.111443276846586 14.449193661843958
Ti 13.052670768083773 10.73610351284973 14.729189041228967
Ti 10.64729014373495 14.273445580279311 13.097209001901781
Ti 14.784742716146637 9.081898868250462 13.695335967968164
Ti 17.26812539062833 15.545490949837276 17.003248795597273
Ti 13.172313406116343 16.957238597697444 17.211873044957564
Ti 15.773935958149824 17.70259462958606 16.333340244584654
Ti 11.639826046558039 12.896929642835955 15.444648530086559
Ti 13.503927049350896 11.687770161128082 17.235957065942912
Ti 13.169693644570836 14.350532061550993 17.775128924541363
Ti 14.402616114909094 13.139776462745386 15.325687486484396
Ti 13.164225826791455 13.072704445748913 13.121887716395609
Ti 15.204263870145642 15.919074982282366 18.353238002206922
Ti 11.272628465592136 16.90074061996356 13.340183469537415
Ti 11.994592604142781 13.148806612723343 10.859839950382796
Ti 13.297245886766712 17.80123345940005 14.714467983200906
