43
Energy = -286.93617813 eV
Ti 14.726101200066273 12.270058341143036 10.019192853263515
Ti 14.50827629295153 14.477746546119725 12.31188036992239
Ti 15.057636743725554 10.146382508298432 8.467720695814549
Ti 15.829260409610413 9.66870997795343 10.946662121617358
Ti 12.991537532565236 14.281658205664277 9.771407983926958
Ti 15.95438226948837 12.03148893856416 12.198136340171134
Ti 12.933691241970513 11.79682480271314 8.084800901107911
Ti 14.934061092752255 12.571816525415958 14.249795570165757
Ti 11.53099381228485 14.958418725563037 12.109931924035116
Ti 12.98632800511839 12.71505745291489 12.216296214641886
Ti 13.004836013895492 9.05579177593788 7.515828134715896
Ti 14.265401556857038 7.772860840075067 9.5796178580913
Ti 12.838531341195182 9.855015999720688 9.99483248964193
Ti 12.769177233383761 13.981257341240578 14.50462819547188
Ti 10.414205401302308 14.850410037710116 9.634269028689294
Ti 14.569827732220867 7.830917354718277 12.279045235105531
Ti 11.348064272685876 12.225906781944497 10.23030082271154
Ti 15.378253377302327 9.837257379018784 13.95878303606215
Ti 13.71055259390318 10.330524762655585 12.487772728002355
Ti 10.104749654155777 12.864454642701492 7.995190521653822
Ti 10.585306195561802 10.175676223159401 8.270842313825128
Ti 12.977461123676447 11.12350712876224 15.031365806773342
Ti 8.970518251026522 15.763193483336305 11.40012633978321
Ti 11.1600403411437 10.21470955302771 12.23781489225544
Ti 11.585824648687487 7.627667685145319 9.0430728473132
Ti 8.119940146496651 11.466051905702187 7.573018647585743
Ti 9.339520344945369 13.19001821813578 11.901132967968023
Ti 10.74550586065018 12.492433232727182 13.974436051509096
Ti 12.703498253416914 8.421887054628721 14.171590535477588
Ti 8.827062566678345 11.053723533742268 10.117262292217266
Ti 7.891632700522657 13.585765266675773 9.643459763670995
Ti 9.318541327747687 14.913366124674484 13.86238939647341
Ti 12.147651146198877 7.419402047184604 11.650022330778283
Ti 9.756953891111477 8.568428082455723 10.66363914075201
Ti 6.320905720566837 11.121367353586052 9.32302921901846
Ti 10.600034857986948 9.978379348808648 14.869247769922
Ti 8.729267365021109 10.397681097531809 12.962383871685208
Ti 7.08239693622451 14.466956732594516 12.385915656362746
Ti 7.965966867684888 9.108259954342806 8.623628971663846
Ti 10.09446174254159 8.025018215275155 13.274822613430064
Ti 7.970555203845123 12.72092722514543 14.166421325537577
Ti 6.747518748395997 11.945120717276357 11.804351784341273
Ti 7.082811673917988 9.277144567493432 11.073176128329402
