46
Energy = -307.79794468 eV
Ti 10.92214729122065 7.394871376595485 8.883348344432385
Ti 10.18932996766774 7.364357819428074 11.325242436614804
Ti 12.838300386943718 7.460248876412206 10.669902377380811
Ti 8.202422718308938 7.75770813858786 9.173350007498184
Ti 13.102399941304517 8.802341768206835 8.04440421294342
Ti 12.015995993856215 7.222118552502219 13.491264206130728
Ti 10.163791829546813 9.11520600775636 7.434940390418577
Ti 9.330507754347193 7.22506069838414 13.805698135115646
Ti 14.489302288553151 9.542644342309751 10.435195693049478
Ti 7.780086297048353 8.415703954165817 12.03134323052309
Ti 14.404511623015924 8.241334119335042 12.816001533220593
Ti 12.325525975829837 9.610040838438522 12.213637384073047
Ti 7.681181921703712 10.093994242940292 7.876391682270007
Ti 9.23584450692746 9.836735758594527 10.026547860799782
Ti 11.826028760268928 10.068147095618295 9.661470626092546
Ti 6.593656124792201 9.816207796654599 10.112757531285398
Ti 8.309930748371617 9.56354023389307 14.784242111438099
Ti 14.540711993981 11.621032029122501 8.522735337754591
Ti 12.206149560171523 11.631358536911058 7.483165649232277
Ti 10.757728733743289 8.5286378153344 15.419605117012264
Ti 13.053163751520435 9.540230665376853 14.757392443090133
Ti 9.961921899906763 9.72285787780704 13.065143589576723
Ti 14.745467138429216 10.863246450669058 13.040094823645747
Ti 10.921860306135844 11.168526242301827 15.284679553924406
Ti 9.691674284398777 11.699536079170954 7.768716332357882
Ti 15.958274813001237 11.65034851306739 10.826756427760133
Ti 13.388447670172862 12.246291179165015 10.754585673232555
Ti 9.826746297202806 11.962426792528357 11.513577260683741
Ti 13.253859498636096 14.24110574326583 8.404414728400917
Ti 11.072255790970347 13.988103124505788 7.038949990924998
Ti 7.431981724029887 11.037030805582718 12.35331727761874
Ti 13.528069182167354 12.548599865682354 15.014262510264015
Ti 12.117605003951592 12.297818906282242 13.002959036201018
Ti 15.306399583928451 13.917093452531406 9.954057039108067
Ti 11.01370276492919 13.19272804902009 9.570178080819206
Ti 14.982806303872474 13.483642675021269 12.62949442769787
Ti 8.992619435024404 12.316190021375986 14.076900031977917
Ti 7.716967762794708 12.321815763883404 9.692960805973872
Ti 8.932573649675417 14.338921325129064 8.035808955118448
Ti 11.094447518404456 13.821215406825285 14.874664011070909
Ti 13.212974782416474 15.00988406331644 10.99543351588573
Ti 11.01607143068306 15.697099125335532 9.220665141123593
Ti 7.921615554116067 13.690756528565759 12.176993998805882
Ti 12.93958926338202 14.804223796181997 13.567778208620306
Ti 10.606242143182055 14.593360245492692 12.197797244512397
Ti 8.731070388786653 14.869619660046496 10.305137383640009
