42
Energy = -280.30083527 eV
Ti 7.192916160919217 7.609633712057663 12.00899202654381
Ti 7.170343190335399 10.067199257804452 13.052643619009444
Ti 8.607545386632424 8.017953796083637 14.116641150785222
Ti 6.8188912454101205 9.739536185121212 10.343154425556564
Ti 8.433351997187055 7.469498281201912 9.676142610338989
Ti 9.521491314901871 6.338390331815414 12.064724430831303
Ti 6.566275573732796 12.207213972034296 11.531066711185895
Ti 8.460865095119166 12.985776650889196 13.344289455328608
Ti 9.624560282899646 8.81378624244282 11.826002350036152
Ti 8.568161944714184 9.947047710082575 8.302798137344602
Ti 9.6793114666664 10.609351715549616 14.059923818446745
Ti 10.941394162058616 6.530186901232364 9.630959663729639
Ti 11.312068681299284 8.430800461839729 14.072709877620275
Ti 9.882563317757453 7.940923713311159 7.4049418935622136
Ti 10.147971410492467 12.04961942510981 9.019567662818428
Ti 11.17904863273292 9.211692490736624 9.460547700655853
Ti 8.906899486654503 11.233841031187465 11.136292692489059
Ti 8.491670499391379 14.02220200284628 10.910597454575434
Ti 12.337817670695577 7.357566464083418 11.984407066684646
Ti 7.3043564694255725 12.360252688334038 8.983852674930729
Ti 11.00993794683222 12.533195801146093 12.229662713431976
Ti 10.57880783051404 13.050660225222748 14.8513254683846
Ti 12.382884667960814 11.039263573968837 14.69312134550844
Ti 13.915054680926998 9.115123081312834 13.524291931774119
Ti 13.408862074362338 7.523904623964032 9.705742309216824
Ti 12.26644872080684 7.790434677669459 7.436170510740658
Ti 8.926842641066111 12.146583883957423 6.7683997508007945
Ti 9.016440544164922 14.3311872325707 8.320064428866623
Ti 11.111786501850874 14.615289994927393 9.935462554208438
Ti 12.039219376568976 10.107619196417 12.047802068322902
Ti 12.626656648943657 11.813789875137784 9.864495507336992
Ti 11.203884208630774 10.450419185043842 7.073630197377076
Ti 10.767133789296071 14.884018511044461 12.783036221582156
Ti 14.516993984025698 9.507729466897661 10.992661484100395
Ti 12.89761165946883 13.523492127502246 13.975412009006996
Ti 11.298340114882723 13.459975058534452 7.169074270201222
Ti 14.247000587134012 11.699288991185405 12.611955137611021
Ti 13.958360227942652 9.71762706493439 8.389959151854878
Ti 13.420902168218937 14.150348110915651 8.740416076309266
Ti 14.98762478841881 12.090190521068012 9.741307206060293
Ti 13.319140613288777 14.05175799959095 11.438053588275652
Ti 13.5026396796107 12.005705207166313 7.327778090497815
