48
Energy = -321.53725478 eV
Ti 15.759960211551668 10.885812983766046 10.03963622242922
Ti 15.851272794626622 10.280634026808988 12.749196476760758
Ti 14.495690410381597 9.061166107479956 8.171427666294502
Ti 15.854033652928251 12.826185048726803 12.024355847753469
Ti 14.476491522887843 11.735165946643649 7.772963279823551
Ti 14.475663019927756 8.776849841278024 10.954621194038518
Ti 13.147938681423609 6.386645475269428 10.682829133157277
Ti 15.179324788670984 12.066164324607636 14.476231526734807
Ti 12.416182199983284 10.328559334511112 6.979275275664936
Ti 14.41692526264009 13.294503127261065 9.882455156948225
Ti 13.388473647556111 9.84983621162124 14.198312631351639
Ti 13.625196236865447 11.283597290044492 11.794771753107577
Ti 11.863913949667554 8.153257967814469 8.675554760070758
Ti 13.598691726140736 7.356856677782172 13.148116430310864
Ti 12.9344076797276 10.497415263811815 9.52384906618764
Ti 10.542151483450494 6.338127393897175 10.366463223108688
Ti 11.432478681023902 6.042824367657401 12.709200727589058
Ti 13.639666827766149 14.517577198808102 12.16652920934565
Ti 12.042766463514901 12.87182444019913 8.26852425156099
Ti 11.77204414998948 8.39962090585158 11.424989466273319
Ti 10.94977950260856 10.31193105498411 12.610567321750901
Ti 12.602131450463693 12.528834172966175 13.728821005855513
Ti 12.620841267768204 15.232118062383973 9.604602186778461
Ti 9.96109459348402 9.77338226414708 7.669183224062644
Ti 13.680096238166342 14.374359917484194 15.137004721150602
Ti 11.622832106712732 13.271840919178935 10.978697819008786
Ti 10.42829549752779 11.057309625057474 9.91950915168034
Ti 13.25561252718275 11.961021986537656 16.182463656604703
Ti 11.23580516150498 8.120492377831074 14.348705224583004
Ti 9.412723948275639 12.47601854939216 7.744456484427097
Ti 10.074905167254375 14.791567186231035 8.793414810436392
Ti 9.323132367220785 7.753829531740009 12.515151802337348
Ti 9.311053325255088 8.618274175145432 9.95187082101269
Ti 11.044705268241756 10.825137496021089 15.392970296389326
Ti 10.69671131389055 15.832846712464525 11.269963433177683
Ti 7.882029630879502 11.036690820486678 9.05173701174474
Ti 11.515205711761903 15.050663644515728 13.672438606961927
Ti 9.898932182045083 12.5224513672399 13.304107092232154
Ti 11.153631018998635 13.545076850019205 15.67725041237695
Ti 8.217015338888038 10.512656604837268 11.776281388851663
Ti 8.749224868531295 13.134394042419721 10.781916567593983
Ti 8.944860688750342 9.971418622250313 14.17079824881693
Ti 7.257266455330431 13.889785568639308 8.879677234731988
Ti 8.349795963323594 15.871036912737058 10.38277967464477
Ti 8.714016275907419 15.007492432075376 12.957556096612906
Ti 6.227504540199795 12.163658140161505 10.793036306444828
Ti 7.287291941110905 12.705295475834298 13.140876590549617
Ti 6.548933244086655 14.586492539473054 11.433560496764738
