49
Energy = -328.45437701 eV
Ti 8.384315786941851 12.7468193676689 8.09137442407463
Ti 9.495247529200736 15.069238793403986 9.106739775605973
Ti 7.444677204391339 13.642847822533028 10.256520870919886
Ti 6.456885973059445 11.285858678227724 9.570788874840515
Ti 10.813211863807117 13.462259585811992 7.316216875525887
Ti 7.628961594108416 10.538815929278408 6.992921265948986
Ti 10.556409824879816 10.808910195860848 7.35951762530854
Ti 6.759174271219316 8.72695234687531 8.737955179403452
Ti 10.518795723927571 13.09205375207436 9.957908340533558
Ti 8.923053411949919 14.155793286906656 12.145845644894413
Ti 7.045954447008808 9.246274024934273 11.350000339219017
Ti 8.779870309435124 11.474421988879856 11.381962209572727
Ti 12.332913793705824 14.854180629274383 9.007584999996174
Ti 8.903784751190932 10.07066868059113 9.195370323628685
Ti 8.967528138503644 8.372360132681987 7.259630153749854
Ti 13.12839124363245 12.298174818814452 8.30706203716581
Ti 11.436937026823163 10.646997411564872 9.989162771350875
Ti 14.968985088265084 14.209716995885417 9.084747661013212
Ti 9.048838010616318 12.538208048321517 14.091540490848494
Ti 8.800937276221878 7.3985682285081396 9.854355867017613
Ti 14.035660586238581 15.780729899349321 10.8905271858903
Ti 11.12295413368403 12.477279606894594 12.422760833621355
Ti 6.7714894509829415 11.987711260639841 12.453142393065528
Ti 11.532079050389783 15.159003444063035 11.646242161990438
Ti 13.389109127153977 13.199272178945177 10.869618471188636
Ti 13.741811189131539 15.011618821725907 13.345169917544586
Ti 11.092485928769774 8.369742504862558 8.801052988529351
Ti 8.475263098295986 9.875906032715275 13.64991752512761
Ti 10.175183760464137 8.847598076880637 11.64402096270481
Ti 13.792330379755013 9.792044078429951 9.055626835166878
Ti 11.278540993584166 14.248442719807636 14.423990757512891
Ti 11.305762484792668 10.153248220403839 13.528631189281839
Ti 15.835897001897267 13.936903800384163 11.63289718962301
Ti 8.285441828957191 7.275873046563196 12.59477213092083
Ti 11.178911572326204 11.906556709050918 15.514625802951919
Ti 15.588915282129042 11.728799225188602 9.84168569355559
Ti 13.438815612361736 12.290304931762622 13.63247328619737
Ti 12.88360471098026 8.116396018837243 10.973698025698578
Ti 13.415297362515972 10.564448670539434 11.692541813484516
Ti 10.738885556718074 6.396607882448945 12.0056421292418
Ti 10.119898812516883 7.831595832808251 14.258404538258597
Ti 15.705154376928483 13.536674987161481 14.216267597289528
Ti 13.58629741317814 13.085255856442718 15.879217086447717
Ti 12.444500830728623 7.7311844507059195 13.564458245064625
Ti 13.088384431536095 10.243130809151449 15.5227691282643
Ti 15.49276333599106 9.22371397099146 10.960624555922156
Ti 16.112833685429518 11.374911931264874 12.500031302701823
Ti 15.436197754336735 11.197660858428407 15.082736396770759
Ti 14.73268168996 9.21028816607956 13.531272835986192
