43
Energy = -286.61651968 eV
Ti 13.635919577550117 10.199555588384817 6.718721317517938
Ti 13.08235782468894 7.90173737008285 7.812766998854384
Ti 11.432083452380512 9.003708677794544 6.168854676031479
Ti 14.478377045662716 9.736233640938627 9.206252593502244
Ti 13.348579231138759 12.283101599827306 8.339943890294196
Ti 11.481361902309166 11.681763907610668 6.457850003468928
Ti 14.078758258276208 14.688426538248441 9.370720150145953
Ti 15.057984486811455 12.51378129858364 10.38393450825667
Ti 11.677905959221645 10.032050642503433 8.698118224204144
Ti 14.231687676415696 8.983223996350496 12.887143159735851
Ti 10.370447662022675 7.794400013143466 8.286172399275436
Ti 12.77991863649236 8.152503746168726 10.418271429215165
Ti 11.611516882392756 14.497217921723957 8.444352558535435
Ti 9.44077220148312 10.201560168040436 7.156372035090368
Ti 14.262110238870608 14.414003725781699 12.092536776679566
Ti 12.210358558856338 13.211041454963764 10.631522055921069
Ti 13.09412838031008 10.718582770729054 11.1338716969942
Ti 14.868828955543703 11.87357205406204 12.983684565753896
Ti 10.145675561943017 12.37153488667402 8.729919121842624
Ti 12.215864597445277 15.879179597880887 10.622072111898014
Ti 12.181557630528417 7.132579970497649 12.746101300919594
Ti 8.724531639517673 9.604790088610011 9.505640027210458
Ti 11.463065368825102 9.798687898145944 13.256716841841085
Ti 12.22476334119624 12.443398935063067 13.278685249786058
Ti 10.282699683743886 8.282655880922693 11.165172471559318
Ti 12.814943373931907 8.113879724830504 14.90858665951219
Ti 13.548676253753236 10.665176608493647 15.026773389567799
Ti 11.888404374349959 15.199730078338293 12.991927170468026
Ti 7.954684702018292 12.233884350099032 10.47220553686078
Ti 13.548699961307113 13.599822506241285 14.777797490292643
Ti 9.812425340766158 14.423398155829478 10.696754162099191
Ti 10.318526143552324 11.082180685718827 11.091211488850137
Ti 10.14507306093316 7.878720640885825 14.244282188619172
Ti 8.505566288408515 9.60348942884497 12.31382266750083
Ti 9.71025047358728 12.854560392281446 13.001040324261824
Ti 11.175219634237601 9.585355247147879 15.995678576303712
Ti 10.915400001132966 12.167371651287773 15.652537497505863
Ti 10.810738487123741 14.463995693436498 15.052080598802887
Ti 9.211283749942787 15.520435249566733 13.306433683516602
Ti 7.522439407076257 14.162616240221675 12.251778923661304
Ti 7.22540453510353 11.7634867812148 13.026802087596092
Ti 9.10956710830086 10.612147894618866 14.621494732558794
Ti 8.196209306825306 13.46522325418769 14.868163613465384
