40
Energy = -264.75175745 eV
Ti 14.431113025241462 9.634373442783494 9.13591815058195
Ti 15.518270997372971 8.602811368093857 11.205371855492118
Ti 12.724950497704597 10.15071398887054 7.383190403723689
Ti 12.1525007382642 12.588915444683611 6.996911524992926
Ti 14.395101676974614 12.297250109681526 8.366058387557159
Ti 15.461404002641379 11.27640973494044 10.823441669050245
Ti 13.380215836448661 7.529078373684841 10.45337748326232
Ti 11.33631619042014 9.119550426712578 9.642851679805961
Ti 15.647732446130018 9.783641424609886 13.241044470723239
Ti 10.340566294010388 10.80081482231922 7.706863593496691
Ti 12.487439669313554 14.339731530312198 8.938095174057063
Ti 13.85343083381348 7.785224860862803 13.203928081389977
Ti 12.332530576158904 11.539287156865905 9.624399802075109
Ti 11.331275720768259 7.659665343012995 12.033117854359388
Ti 13.901348285690164 13.439007234308201 10.975046328556385
Ti 9.021099896975604 8.296695023475285 10.620387932510425
Ti 8.757912442592817 10.969703063701626 9.782606087418962
Ti 10.091812256864015 13.468735445560752 8.037811969139453
Ti 15.14443973618401 12.31235297815106 13.328800239031363
Ti 13.218370211162966 9.87213973675169 11.885390296705275
Ti 10.221056077236655 10.278937660610968 12.001514299625006
Ti 7.524223611506915 9.788182987168886 12.04887292230247
Ti 10.123372125133118 15.405119703805838 9.741478528785505
Ti 6.088813139992738 11.90743541848529 10.347480061154585
Ti 12.355874517598956 12.261223434449908 13.009196380055899
Ti 13.819882997496451 14.515612717763311 13.453082064517606
Ti 10.398067423887914 12.97810259176338 10.708858524421224
Ti 7.878616487276814 13.797752722873678 9.78268316753864
Ti 9.149963009761134 8.208956523157383 13.313756349129527
Ti 11.722235473629745 14.82415437426978 11.965420762510234
Ti 11.456673867814654 9.07040228979935 14.299471235785138
Ti 13.747497893013195 10.33299141223838 14.804176918132669
Ti 8.883703073990427 14.894513872720243 11.916562963508055
Ti 13.603010107148503 12.839031925458082 15.400042276519471
Ti 8.101033760542249 12.224918302600077 12.040167163688801
Ti 11.29410955764829 11.537125864725983 15.369255313884066
Ti 11.564066631692576 14.243978184412834 14.702119215627047
Ti 6.11759802275246 13.873414807575662 11.731545811578165
Ti 9.649055614870802 13.158678233093433 13.826211461873894
Ti 8.948601973262729 10.567318135643523 14.334117152526241
