42
Energy = -278.36819788 eV
Ti 11.604731518143423 7.822104866598593 13.754676891853638
Ti 14.962445617407877 8.84109777555676 13.367405963235264
Ti 16.795212108877816 10.705478877736375 12.643978634945237
Ti 10.387360861535651 9.679081954304523 15.248867196882879
Ti 8.982120590581248 8.589415261293997 13.356495356547203
Ti 13.106508026063917 8.591907258025273 11.456509486007596
Ti 13.001290490544436 9.96697537178191 14.573832865178588
Ti 15.707386096783408 9.239901320185483 10.94023208668355
Ti 15.480807236322415 11.137645227671173 14.825576295022017
Ti 10.94797387050345 12.250801075233113 14.850748020476338
Ti 10.46858351877495 7.876617753807581 11.428634441663055
Ti 14.219761955880665 10.26205747965435 9.14972750661389
Ti 11.46598494900267 9.775386882421818 9.76011324076433
Ti 8.737995494913575 11.227730382348097 13.615152769691452
Ti 12.378189776193082 11.236326746133509 7.650236560709061
Ti 11.193705061817765 10.216957829960698 12.666631346155764
Ti 15.975764514094802 13.152897288483322 13.041323552858062
Ti 13.334885200745859 11.685513326877267 16.34003587236043
Ti 6.751226463947216 10.318778465894555 12.228010082406241
Ti 14.128548525035532 11.09636106811809 12.05264689623497
Ti 13.309731969707622 12.857243501534903 13.846523041243382
Ti 8.962722557307698 10.07899647827847 11.041904056212141
Ti 15.134468168383826 13.613843504015954 15.601921522176042
Ti 12.775599976575748 14.080088790925346 16.22737884860248
Ti 9.991241412913276 11.796382208134995 8.866621400600494
Ti 12.459552912099312 12.317026640409212 10.099260092193392
Ti 16.057708416836316 11.828068179025934 10.37711950462441
Ti 9.229601633848336 14.216625639138025 13.614727031916026
Ti 7.957589949391605 12.731933229624941 11.115911616475033
Ti 11.134518880231774 15.023189277338824 15.026453300330344
Ti 11.754245821987226 14.542911393558574 12.170557857079716
Ti 14.338508313591786 12.946058381946116 8.504409600302697
Ti 10.233751730736389 12.484722812383401 11.626763715437729
Ti 14.390079296849436 14.063947785214353 11.365760666046967
Ti 13.653576150199243 15.491848629710214 13.964307379667614
Ti 11.793080027891595 13.580561456250829 7.76027512257073
Ti 12.961536554173993 15.114282467786783 9.489571964485464
Ti 10.947194277552871 16.69986404461075 13.174014210601682
Ti 9.05487600785117 15.308697183558985 11.580923952694132
Ti 9.93865052553183 14.27099405719679 9.44322448623768
Ti 13.2616045392043 16.635061817863498 11.597242249198317
Ti 10.942406158027215 16.57234063157868 10.495104307272982
