40
Energy = -265.806228 eV
Ti 9.003206866682374 8.920784867210438 13.3971371564547
Ti 11.046876215733175 11.373651706049861 15.062531727189498
Ti 12.291482714529751 8.986703528293303 14.310891031105564
Ti 8.063952567624117 7.316716120010899 11.708654595066145
Ti 8.588655296968085 11.926399266877075 12.909994858357098
Ti 13.62438201536321 10.927021445620628 15.829331802682416
Ti 10.877348327211198 7.772158638576613 11.626644943288088
Ti 9.201239315247962 7.039832393420541 9.314089030310202
Ti 6.859587281215154 9.847429566079882 11.82611801469024
Ti 10.747760834149416 10.392962109151979 12.585214053500144
Ti 6.940630170164041 8.256827879916798 9.607770766777517
Ti 11.04339873494416 13.487934739921739 13.374611595028911
Ti 13.698557493996006 8.823686635274301 12.049514045355012
Ti 6.536117500856135 12.459288274715714 11.377430650181719
Ti 12.93830114512796 13.260455408876695 15.139805484770731
Ti 14.934093467757661 9.622935883736337 14.141540306869251
Ti 15.298766073950757 12.342767792804676 14.078803762584638
Ti 9.220200948865573 9.32629167528331 10.50819648085676
Ti 13.05682161229185 11.358216389255366 13.295891276244786
Ti 11.23587468325322 8.536533739824506 8.668776315118091
Ti 8.708831040240254 11.783867930528405 10.080247820137037
Ti 11.916351502033478 10.124421740220354 10.298507378415465
Ti 8.685527334194994 14.109421793709329 11.27189541577022
Ti 6.477164792974941 10.809720867043136 9.128570272411574
Ti 8.622733879366056 9.370527010322041 7.841643967835491
Ti 15.77758376282883 10.634992670301047 11.825520940846857
Ti 7.015477768494329 13.523662544814108 9.133343619240527
Ti 10.970714022694919 12.618449370874394 10.914014960745137
Ti 13.65951999463724 14.328874939596652 12.802869081081747
Ti 14.526245546582759 9.632382733020266 9.683217493894098
Ti 13.605275567622252 12.127522192307932 10.871802282586524
Ti 11.888541912876438 14.908506672303469 10.73181302771292
Ti 15.849485627812932 13.299939995249701 11.694989153669932
Ti 8.247121361885283 12.047156685055842 7.469040952079022
Ti 9.770872061080116 13.865491293886683 8.789289788980476
Ti 13.352254066085946 10.840585371507363 8.094885090890957
Ti 10.685853787198626 11.285863327471247 8.145215744444263
Ti 15.411791660018844 12.244454222126242 9.18866211773442
Ti 14.354054261666827 14.58085559009975 10.150375693561834
Ti 12.717733555360033 13.335091760248933 8.521534073116893
