44
Energy = -292.78701767 eV
Ti 14.222208258772634 16.07942552934968 12.77609035748688
Ti 15.76317844466128 14.439971418141486 11.17551322395807
Ti 13.801277797084387 15.647570848190185 10.069657468549261
Ti 13.364172436293154 13.750679709777168 12.20879855704489
Ti 15.601438644956286 13.717244676146489 13.541223979819225
Ti 14.216028418820208 11.324102394547047 7.093907752890314
Ti 11.774140096256131 16.000082164459794 11.251174693628686
Ti 13.596917762530975 14.498717974765889 14.911492139389603
Ti 14.490144449892075 13.063928276939704 9.172066355059906
Ti 12.189203541226838 13.071078746271587 7.517805354086065
Ti 11.504074208320827 15.687950368334231 13.839165627436651
Ti 9.778893727802394 14.352593466354682 11.664152068635563
Ti 15.242386899512013 11.688903251492237 11.588533186880657
Ti 12.043803611982904 13.579626731300706 10.053332371282387
Ti 11.806737368424814 10.570359535888846 6.734918608650008
Ti 11.158759076544634 13.978861405442515 15.813072471129896
Ti 9.894598252954097 11.723465032253435 8.174246145732926
Ti 9.04899385466308 14.31213389017508 14.210042599871114
Ti 13.647451081417774 11.830371330770753 14.245518088556588
Ti 11.130224131070987 12.956963291987483 13.450638578626295
Ti 12.705774408540671 10.824231749019152 9.267787989442029
Ti 9.895135627491932 14.293928110067101 8.998928839228135
Ti 14.881264695277524 9.646609984220188 13.292704761246348
Ti 15.489607908102158 10.595224797074888 9.127614046564412
Ti 11.862727911780912 11.446268344371164 16.16320181535554
Ti 12.83526639308181 10.690020979360224 11.924449055229598
Ti 7.875069841505775 12.763604166450138 10.264456909237282
Ti 13.607696515095796 8.845381801047393 7.928570519032387
Ti 10.321593673267273 11.774212545005648 10.721916937184146
Ti 14.662450287733357 8.869122581897557 10.767923243710753
Ti 12.646537425238225 9.221322027483025 14.944643790352556
Ti 8.62363476058628 11.796441966324226 12.740072061512373
Ti 12.408503663737392 7.9297664884600625 10.071010604430647
Ti 10.581806008882284 10.352573181494947 13.661777382976817
Ti 10.799356679950249 9.049521907506485 8.474894909469226
Ti 9.363005014013506 12.037024344164138 15.676536417932146
Ti 10.205269020070489 9.506843209273699 16.138634761334757
Ti 8.087717955351987 10.309461962579636 10.245836842651977
Ti 12.742866107689915 8.086576063067861 12.655010434916402
Ti 10.455851807505137 9.071833764164527 11.205556787140122
Ti 6.429257377562809 11.028721077376996 12.295656176967272
Ti 8.124022707858886 8.972717982795153 12.391430156711982
Ti 10.192842739051086 7.944086772603337 14.007473248978826
Ti 8.060863810513633 9.820321533408885 14.643032434237815
