41
Energy = -272.62499849 eV
Ti 9.807688429447836 11.51291214614431 6.743452273891481
Ti 7.348383028675759 12.504478760766492 9.456253686038833
Ti 11.689734565597803 13.32939886266795 7.103971683354846
Ti 10.363134801554265 9.187467524894823 7.350798699203214
Ti 12.41165673996736 10.741639979062855 6.4247149830593315
Ti 9.581062983782555 13.488232867879463 8.463220526334254
Ti 8.762081346079373 10.381989008476744 9.133975955468655
Ti 7.945770260859647 14.98874732550178 9.982152977412309
Ti 10.415679858296118 15.538353246253287 10.122530728483966
Ti 7.2161574138302464 10.939110266505114 11.607675113575896
Ti 11.54838305689598 11.17201393472949 8.836221008630353
Ti 6.8641771864306484 13.556356775195109 11.752571041268233
Ti 13.799217677139637 12.696522239656902 7.873456876287722
Ti 10.629094337303174 8.392911528014105 9.834070347734327
Ti 8.61360063854916 8.330615929271357 11.52840485592983
Ti 12.726980435992493 8.596896092706235 8.396201997530836
Ti 9.823506360793388 10.71702355446703 11.485703163382464
Ti 12.205426851799666 13.64383859671931 9.9213859654605
Ti 8.866153974285941 15.207591442795263 12.529634972204219
Ti 14.370074111974722 10.298977792900848 8.29099005030463
Ti 9.583017026580386 13.20904194722894 11.12926972953172
Ti 14.842035180309994 11.890519345594814 10.214990083621979
Ti 11.128155127593432 8.836947219445971 12.710987138305423
Ti 8.342248912359223 12.47665010730075 13.592288939961088
Ti 10.53005086990069 6.331173971051557 11.652025200475917
Ti 12.929326699382893 9.985451154835898 10.898590984369044
Ti 11.76587415183823 14.866385454106458 12.387746289728174
Ti 9.443292037153281 7.07309033794253 13.813168485025418
Ti 14.148380088701348 13.752362096965712 11.841254736433635
Ti 12.058674409906194 12.070093396208113 12.294006227345044
Ti 12.907006262894 7.26811522152186 11.171161905613062
Ti 8.609536156113373 9.631291304940799 13.784699244104765
Ti 15.242419005014401 9.269946057886319 10.68865400765506
Ti 10.59690600178442 11.17117994920037 14.576193103839197
Ti 12.033758739183222 6.612451593930528 13.75583989885381
Ti 10.825414414763971 8.559771145567582 15.34410217315031
Ti 14.783463646261815 11.238550148172406 12.767401099934533
Ti 10.475769207841067 13.723223533453387 14.153862544960754
Ti 14.001666346557428 8.581469781514869 12.98179821206771
Ti 13.128554121535636 13.125746822462634 14.235340626306549
Ti 12.86596563204253 10.330939633033676 14.398710560135012
