42
Energy = -277.7567826 eV
Ti 11.967610324589149 14.123515808923456 8.180879822084464
Ti 15.01313461201096 13.174783308017398 8.775525627402564
Ti 16.08133485594276 8.4061064732059 9.65833212423996
Ti 16.83654004994619 11.711178850669771 10.160663387312637
Ti 10.48406009992927 12.073645780041526 7.910088630160987
Ti 15.130248691759661 10.595460664324447 8.674601979880059
Ti 12.811615627661132 11.592275605716027 8.779613930344809
Ti 10.871271358021586 10.205512146999423 9.823269675453336
Ti 9.287626180590381 14.245927387284425 8.85737007203846
Ti 11.165053232542752 15.775114114539255 9.931196763924923
Ti 13.554251486372682 14.703665615769301 10.376361270338299
Ti 14.035646083015042 7.8775063975569 11.952660872693114
Ti 16.06471186178903 14.023019111157879 10.980766263371848
Ti 8.596417151381724 11.548582159844907 9.5279444553818
Ti 15.697483436584223 9.808211542410636 11.540837482009977
Ti 13.44340322936965 9.033411243906315 9.738086406674341
Ti 16.24580940303854 12.116926116694772 12.802075254227217
Ti 14.144120640286815 12.096254501276256 11.148312665455935
Ti 10.998352830186978 13.053046854432418 10.48098579760489
Ti 11.36963534815399 7.918817840278861 11.548338426066302
Ti 7.596256109840236 13.546899378536025 10.663593889454667
Ti 14.636945110891977 9.912339682016722 13.80550440967814
Ti 9.266831425168155 15.196179068087051 11.51007003896642
Ti 11.898967650123405 15.059881857648277 12.389692478558427
Ti 9.534606512335273 12.141084060137146 12.60522010586423
Ti 9.108197087331153 9.671918472472871 11.582900239050579
Ti 12.30010960600918 10.193287067542686 12.216054201290806
Ti 14.566214513782327 12.445203439234156 14.995851428533594
Ti 12.572860083596321 8.013039771765163 13.872461970013822
Ti 7.045977000074849 11.341146990247028 11.70041271618344
Ti 12.262596358654239 12.57326155781999 13.750203289391228
Ti 14.527617918829854 14.255806270408407 13.019594708535442
Ti 10.045560125396548 14.515195654870697 13.959758061904017
Ti 12.653820987946252 10.187220950471959 15.270377995082553
Ti 7.319560608014714 13.513456057488652 13.21011823302442
Ti 7.814043937507663 10.831527058773235 14.018763990781094
Ti 10.296099767360577 9.249357539330012 13.84459276682531
Ti 12.886170379132642 14.626789200676942 15.179707467006079
Ti 12.564987541104324 12.415852592819139 16.554046436017558
Ti 8.364377197088238 13.037998512086757 15.354764540308265
Ti 10.270913869230881 11.35098299725732 15.323115426981863
Ti 10.655959903549768 13.78220535386867 16.275907727670923
