44
Energy = -293.02414758 eV
Ti 9.829343228277011 14.279197857086663 13.430104404152342
Ti 10.98669144947485 16.21636023174595 10.881562627912174
Ti 7.035341098256433 11.868299405044645 11.061728488481721
Ti 8.586209725309281 14.409443323898774 11.139094382510587
Ti 10.042596025538021 14.958451624980754 8.889421175574057
Ti 7.434592792701052 10.696435961052526 13.441431112066663
Ti 11.803032882181471 15.692728521459738 13.43565194255287
Ti 13.482144246881404 15.544230435957134 11.472947177205707
Ti 7.559833940896441 13.127565118977115 13.525197431698595
Ti 11.679075106879207 14.119560091586884 15.740110481497277
Ti 9.398939297508614 11.9436525067176 12.128258597862494
Ti 7.906471155686595 10.305924134346785 9.016746187022656
Ti 11.229285757628006 12.837846509060048 8.10039908902629
Ti 12.696145984920857 15.001930881078643 9.013314633507331
Ti 9.794466849970519 11.711523620752372 14.75701116070391
Ti 10.421523431252774 10.700858293807567 10.031930032447361
Ti 11.289025465681169 13.719212691438484 11.057831337349803
Ti 14.321454364580482 13.026903348912363 15.676073174615441
Ti 8.207324364061451 9.200270117644388 11.246992103203224
Ti 9.38401235323872 9.29932648305444 13.56258378622801
Ti 8.647198825655023 12.794910483016356 8.99322615014449
Ti 12.125807578804029 12.887801240627649 13.761928152905053
Ti 13.988749323928522 15.088360532889443 14.370947025193145
Ti 9.890857510454765 8.526054498187044 8.993789944135036
Ti 11.801138891080583 10.48622351782238 12.190747192351129
Ti 9.852497028348193 10.811454015030659 7.485821248870593
Ti 13.23779545330682 12.012883116782584 10.421736658880068
Ti 13.706063135942923 12.757915372267854 7.829370635082376
Ti 15.09342618283691 13.833721194402404 9.806763925046763
Ti 12.723245867200712 11.219880429717069 16.079679823460875
Ti 10.625267100016178 8.073613563091179 11.709121928023206
Ti 11.742997450836166 9.476987317096073 14.586388208199391
Ti 14.578610450672826 13.454461719196242 12.542295290713092
Ti 12.569690999514142 10.354234553489272 8.383448724513773
Ti 16.46268552500661 12.187399681456569 14.10882154228208
Ti 13.429309438404998 8.340727693883021 12.831099396471945
Ti 15.90278485210917 11.64883521549957 11.492355745534105
Ti 14.142001295633833 8.848689317807926 15.386967048394268
Ti 12.49077597772172 8.52104150025498 10.244588868146451
Ti 15.26821885045542 11.192005402273193 8.888544273704767
Ti 14.096381625404819 10.902490947306202 13.605590264865373
Ti 14.720152184556804 9.593250485418395 11.010823218850671
Ti 16.12320236559132 9.42971734460944 13.584921651031872
Ti 15.521367110369493 10.72535424404856 15.910368302357163
