42
Energy = -279.02219533 eV
Ti 12.004668414007169 14.289842608930206 7.189270365833805
Ti 14.165902420946965 15.180799737320841 14.279415405687088
Ti 13.220398924480056 15.058717466578406 11.682458321081095
Ti 8.834075712033359 14.223460192463193 12.59930234947974
Ti 10.902621887239784 14.780877106438902 9.42396846650778
Ti 11.307325440336884 13.171628288703847 11.444826983422516
Ti 13.569724269446318 14.938218026666249 9.03892629198561
Ti 8.855703523890226 12.95722830931313 10.329135429447142
Ti 6.941257117326805 12.359081308788472 12.083209473549053
Ti 11.606803912684743 14.978053664490693 13.677616260185092
Ti 12.203535146397114 12.091522652812943 6.235968933306903
Ti 12.782420078853422 13.69858734076773 15.870803923570952
Ti 10.123927579938544 13.43315194516421 14.89510341113206
Ti 12.573577901257968 12.230882582669489 8.972020354111637
Ti 14.724262431255374 13.043045666553724 10.52168706010111
Ti 14.47621053780554 13.107684628885679 7.439018481093037
Ti 15.652423214767914 14.078105854219839 12.635068576396877
Ti 10.117177287795348 12.465673978249294 7.90110214517635
Ti 7.708917010211866 12.633393401239255 14.444633936795922
Ti 9.399447226501742 11.568008385498718 12.589314872590858
Ti 13.352349385802116 12.816953846321645 13.31008874093749
Ti 15.58077325031463 11.396387944021058 12.410726208034339
Ti 15.281980810894927 12.779757349654345 14.957587539026253
Ti 11.157141506184853 11.766552939693257 16.776449610477943
Ti 15.090483126578208 10.884423198731414 9.513006463857284
Ti 13.892084292464848 10.55924025934476 7.11248578975491
Ti 11.488189707481606 11.004368121427746 14.10652847701039
Ti 9.138143847241935 10.757059181120328 15.628895439318587
Ti 12.951692855085323 10.650786200590568 11.43268706090547
Ti 7.952837184754017 10.397607714682863 10.628886810670261
Ti 7.49684666788986 10.029706021651183 13.416854436421184
Ti 11.329700186561574 10.035997825560125 7.648729143265296
Ti 9.546910714522435 8.746016671901652 11.890432385139036
Ti 13.482126715239707 11.211056927584272 16.100797493896362
Ti 10.53927424356622 10.74048873917073 10.189463798084901
Ti 13.430194649404758 9.061647726480924 9.000651742619931
Ti 14.0630616171232 10.017871200087349 13.966881609472273
Ti 14.372917794805605 8.619228016923364 11.435478202017912
Ti 11.618284466865841 9.279173818845612 15.885235711966558
Ti 12.020869039046381 8.470880747716475 13.00780330212004
Ti 9.63469483672382 8.696617521616115 14.289348646519969
Ti 11.794257551269466 8.18554942236038 10.413978181730721
