47
Energy = -313.22115693 eV
Ti 15.128039754069174 9.989013716946998 8.500636733218636
Ti 13.386007986220804 8.211360297827486 8.434958604499437
Ti 12.774123662137479 10.62982483542868 7.5272370272352465
Ti 14.888830448427102 8.325341937973247 10.63432895198655
Ti 15.670536573136024 10.87702054637407 11.028014907904094
Ti 12.496660494953087 13.440015014178133 7.410183952467135
Ti 14.554781398295448 12.455769443710798 8.837832989439004
Ti 12.170939932078129 7.377607638063195 10.53667922243703
Ti 10.949645913967792 8.883924139368691 8.505362665730194
Ti 12.04853435415305 15.852145733708548 8.001114704014842
Ti 10.475205399662062 11.6638866499972 8.412885957156425
Ti 13.958115565988935 15.066191635149398 9.272763834281447
Ti 13.109179294331344 10.361586541095516 10.196189134856827
Ti 15.143288909710181 9.258388355697674 13.196739323519697
Ti 14.006228216981553 6.912856872758648 12.613956625870914
Ti 14.560585633295231 13.396907798407895 11.407686159584738
Ti 10.033167052552338 14.232384131090642 8.407899472749941
Ti 10.533245053208399 10.212079026008476 10.63608741504967
Ti 14.187122938632884 14.027663585777962 13.816159934352422
Ti 13.298226431959792 15.935841686101542 12.034095489073788
Ti 11.643899937477906 6.551186184314476 13.044619838511696
Ti 11.403806796495193 15.947838594215142 10.40511135578025
Ti 13.145380851973643 8.008209358323477 14.897521163036455
Ti 9.840806655358671 7.913251897374489 11.744098486569905
Ti 8.017984933643927 12.825212422405375 9.152903277977744
Ti 12.877924350031396 11.765512183022153 12.834503384437506
Ti 12.155663928808654 13.24766634391869 10.033259238705288
Ti 9.70977099336948 12.749339366943525 11.201526287509987
Ti 12.403232848747278 9.075051402927985 12.709530233044976
Ti 7.84145661715136 10.759896608861785 10.948881043527798
Ti 15.563612127125888 11.824570421382617 13.432463989617936
Ti 14.037613597555312 10.692954891417036 15.1332145761404
Ti 11.470276279086242 14.114428339042917 12.909815431530015
Ti 8.855321567939892 15.166331455176792 10.617427435898742
Ti 10.256168424421512 8.296775438776441 14.40640499362592
Ti 7.0941819304348614 13.33426524752399 11.328324125635003
Ti 10.208809306853059 10.857739511997972 13.092128829872665
Ti 12.657777183068815 15.914212331823805 14.567880151235618
Ti 8.055079646847108 9.226293418890759 13.099849343504578
Ti 12.299859158930486 13.147495675848681 15.326398946362039
Ti 10.707807162655762 16.632543079056145 12.904456850942521
Ti 8.607357742531367 14.611951290790048 13.226362464500745
Ti 11.598881661254039 10.347158692573151 15.30708280495244
Ti 7.635844957931729 11.868837405775333 13.389915902405388
Ti 10.388388923762516 15.256527104975167 15.114547232117676
Ti 8.803023536364638 10.347908779792043 15.283025184513233
Ti 9.729296924288658 12.788726025055793 14.859627380485218
