45
Energy = -300.41113503 eV
Ti 11.992208924598179 15.438584794547763 10.212328879986238
Ti 14.574752811405123 14.789619386651362 10.500881421191854
Ti 15.713475248993987 12.585185818299188 9.387343897258221
Ti 10.4327927949888 16.754523851303325 11.830656988619035
Ti 12.711141593066666 15.762240732308719 12.820378435744223
Ti 9.297070645093267 15.584928140574625 9.66084111872772
Ti 11.035523179224803 14.250266013102042 8.017745563235486
Ti 8.654271558678762 13.556288013299138 8.00728857729779
Ti 16.1992605689668 13.535175313348327 11.942219581084775
Ti 14.57174741477846 11.247516475417225 11.325969486797918
Ti 9.88971298030733 15.611833128772178 14.216021101035093
Ti 12.748101894550539 12.941486061779083 9.33729814108325
Ti 13.575584375399774 10.647429422381162 8.768797767781438
Ti 13.07066165855984 13.25992485214407 11.97710060057215
Ti 10.608439936910996 14.041337080564073 12.413354092028941
Ti 8.287086075530024 15.574804809872008 12.120891554751827
Ti 10.644377796359823 11.371343746738699 8.239465361982377
Ti 9.961574112140427 12.866631603471673 10.210186946986568
Ti 7.436335166581559 13.768312609200626 10.381531402974268
Ti 12.185636405811458 14.160790858309728 14.822099967162863
Ti 7.8552423612660265 11.515344499142891 9.109227666319146
Ti 17.20606163981865 11.354237918480724 11.323667446245814
Ti 11.581531064182169 8.823846265703898 9.081364738017074
Ti 15.981274005156093 9.881808161081016 9.60104493324877
Ti 15.881974964275171 11.512483465136023 13.768465831361423
Ti 14.657901816654453 13.799071911789111 14.142097207345858
Ti 9.363947471836168 9.67351950943534 10.118295764257734
Ti 13.785894937093044 8.616922872414655 10.614531979057722
Ti 8.038924931237274 11.3938011581063 11.766286693653962
Ti 11.76081940274232 10.699490371300586 10.935457939437102
Ti 10.388014776775778 11.327969410201721 13.114765567999326
Ti 12.766601060207867 11.825217138949666 14.066793279909183
Ti 13.304191653090362 9.6863578007123 13.159537029640704
Ti 8.15724550425403 13.35956298797178 13.472411801748663
Ti 11.213262935496097 8.081004069895664 11.622817294788417
Ti 9.885224085040695 13.000056264105757 15.231529406050084
Ti 15.906478533823275 9.07605264488058 12.25003329169361
Ti 14.227004652921377 11.314019510968802 16.004009002963706
Ti 13.65094725400819 7.463996297711212 13.433419973268009
Ti 13.057426860668302 8.89825825647493 15.775478887534174
Ti 8.651387993657785 10.570344483540234 14.667189281495055
Ti 8.927953519762262 8.98922026560247 12.527800644300031
Ti 11.142898243761683 10.755188177430503 15.893360140409252
Ti 10.850923299000279 8.793458188474428 14.266378031412673
Ti 15.364555423153925 9.196856023008644 14.878801056103397
