40
Energy = -265.68380287 eV
Ti 12.993452884504217 9.367782511933529 6.696537028253267
Ti 13.451733331819268 12.039461131245687 7.4365648502666915
Ti 11.16623950128732 10.954353912914502 6.464192484406152
Ti 14.711904069000859 9.872799241650371 8.458644752568693
Ti 10.930809984792312 13.106297842023567 7.765255803338072
Ti 13.220280405898945 14.463928657335954 9.20386199017849
Ti 14.672601608266582 11.942322606441637 9.942452732538127
Ti 13.059219147463098 7.870735444969025 8.829333818037087
Ti 10.571746530047 8.620560591186901 7.723393730753203
Ti 12.051332863993833 10.369667695159748 9.024484052277687
Ti 8.9829731443689 11.068668387341955 7.883843232537194
Ti 10.32341145176415 14.952379228121245 9.992898907115894
Ti 14.143119688970318 9.42110663399349 10.961608657924442
Ti 8.57209705617411 13.47695323238768 8.864829988300325
Ti 12.223008763925382 12.863833586755002 10.215861987582056
Ti 13.770896873418632 13.8999985927727 12.354732156210781
Ti 12.198182648999927 15.606562251287619 11.594904974066836
Ti 9.943499088349308 11.690109460838503 10.343462214487532
Ti 11.00920369017544 7.9942988259349335 10.303797652350136
Ti 8.619581625084669 9.31008171925461 9.969067145907763
Ti 10.645192782637197 6.493201469509299 12.649569886257853
Ti 14.725599848973596 11.51000918723736 12.52182726298083
Ti 12.641115236528478 7.780441903862247 12.440415752743288
Ti 10.87167455966711 13.237713378635776 12.51670255340246
Ti 8.532547658161462 7.095507502427124 11.302373924620165
Ti 9.923909930161036 9.128532725963883 12.439547915044027
Ti 7.377836240895489 11.531984812803813 10.204179399402866
Ti 8.264352357306839 13.855270752376752 11.52196831862369
Ti 9.859938368396161 15.67531849547359 12.589619347963003
Ti 13.434701196671263 9.660233337891372 13.881213046316144
Ti 11.863572251628145 14.892381577692227 14.13200162205027
Ti 13.022785171034508 12.334306767663406 14.29064023928332
Ti 12.119820969912997 10.853430822659304 12.04726445638448
Ti 11.062518976909852 8.312877244823438 14.661998142362343
Ti 8.613110788394705 7.305924755701044 13.934151059459241
Ti 9.136792108205762 13.673825468988772 14.27440668339263
Ti 8.509967886907674 11.48827323868249 12.716560111995685
Ti 7.215932243317016 9.04604266417289 12.452459580834788
Ti 10.710553527175755 11.200329104073411 14.428719072688727
Ti 8.558303906795684 9.738013603798457 14.67017383307845
