40
Energy = -263.03851295 eV
Ti 16.761779525948445 12.875337025581034 11.730258089598301
Ti 15.954060301496696 11.740542845478842 13.742693109680635
Ti 15.745905255473845 10.466489259779351 11.419811015523178
Ti 15.379175811501097 14.701068328062457 10.947141147550225
Ti 15.284330232414256 14.265247625376395 13.532922010305718
Ti 15.310539356466538 12.438377237481573 9.544725545626417
Ti 14.116583632676184 10.028140391816406 13.574421425053428
Ti 13.811623665248655 8.197287018219766 11.874806370200744
Ti 13.955636855093953 12.467304937910923 11.922160589413823
Ti 13.705051924954262 12.520899865300375 14.875782044661547
Ti 13.531206487746193 10.338101642474859 9.890432735583401
Ti 11.701908715471795 8.178196933198038 13.739732554960481
Ti 13.341522251184676 14.296596238494365 9.535338664760861
Ti 12.542936822966551 14.970838693790116 14.83853941897164
Ti 12.847017683567564 12.184761554186204 7.842058227296718
Ti 13.167083854904698 15.297036506896752 12.200232039664275
Ti 12.225045575358237 5.970680231041676 12.47200642842509
Ti 11.589480320756007 10.79230078687213 14.448888626684203
Ti 11.776275734728273 10.071116907447802 11.819888569283176
Ti 11.78047115892588 7.673718275019551 10.570425202421083
Ti 10.03117329096805 9.908025139640085 16.028854000086987
Ti 9.939281821024753 6.94663111451346 12.325649318891868
Ti 11.510495092335779 12.317635135821403 10.013215841291917
Ti 11.314172291897778 13.261313669345075 13.190006550671113
Ti 11.224017484233496 12.83996526225886 15.939280236192301
Ti 11.071819513141818 14.206629181187669 7.98313827651904
Ti 11.056591234821932 9.900806226949374 8.841540881516414
Ti 10.796354005124691 14.90647267688796 10.790782149958206
Ti 10.334405051674308 11.84719852453127 7.329268965071925
Ti 10.787312218634899 15.946923359705734 13.12102332609032
Ti 7.491521432760255 11.367292650394745 11.814075970574784
Ti 9.365680973865437 9.55916129273502 13.388001937843242
Ti 9.65183643136471 11.742399430839825 11.661824999492266
Ti 9.829959989503038 14.668615256436027 15.042423384241383
Ti 9.402408476112633 9.090365086638505 10.750146589872282
Ti 9.090185488051787 12.090359801391745 14.389890109920382
Ti 8.928044514707357 13.533320904995213 9.789193184724528
Ti 8.621715666197943 10.973917653797205 9.0645822394212
Ti 8.791731603341546 14.20853498344823 12.64047874601423
Ti 8.436592900621338 13.341624083442357 7.529442850943825
