43
Energy = -286.44213479 eV
Ti 6.977479030160719 10.082753669400311 10.480014181185892
Ti 8.33831690439103 11.376616779734862 12.722973418247363
Ti 9.011629619719159 8.25682496061703 9.902615388427858
Ti 8.36452676964016 8.866294816120265 12.34923423823389
Ti 8.292837767379087 13.939840981298815 13.233261060096474
Ti 7.803195494268209 9.590021066492397 8.046897142262278
Ti 7.095636125872147 12.030176824205672 8.562315001033074
Ti 9.55485016727673 12.386965918500731 14.958705573125227
Ti 10.469992061035136 7.46626120061287 12.398551688714603
Ti 9.296095104278457 11.044024236790271 9.741338549290534
Ti 7.706187377388429 13.16440597972147 10.838989383122703
Ti 9.986933223133606 9.499068059461075 14.368563104205107
Ti 11.631687004507162 8.637012382749703 9.79752626317393
Ti 10.461032817542593 14.988070107803287 13.879850671791868
Ti 11.781573051797036 13.34724384591623 15.815368072415845
Ti 10.449462494293766 9.588254457398422 7.599486385279304
Ti 8.980253056535952 11.63147346470991 7.001212664284774
Ti 12.434034019199709 8.111910070620144 14.270539372544675
Ti 10.28533404259727 13.165471164581167 11.430016830356793
Ti 9.385804456072096 15.423254466067833 11.26450612336265
Ti 10.79707256270279 10.04707848940415 12.008948850446062
Ti 12.112475250867151 10.673390556744804 15.341832463690139
Ti 9.306353981844472 13.683405758362904 8.783078799873609
Ti 11.372760298550267 12.27226667218338 7.57209754577947
Ti 11.64622998681087 12.485304472192665 13.440646832191213
Ti 12.881503522409883 7.510309650394712 11.698560124225395
Ti 14.85084036741088 8.174234967121286 12.875345574465221
Ti 12.974161835175176 14.86858335500505 14.21173833966637
Ti 12.08134866203955 11.359927353025704 10.011188846974466
Ti 12.236110272403142 15.314456833187094 11.764605267307736
Ti 13.285768872912927 10.282841571214028 12.834522307547026
Ti 14.312866995393096 12.46251016613543 14.429806347748698
Ti 12.09852038605202 14.192714982911419 9.442121817687195
Ti 13.02201736093152 10.056156198443695 7.929512398684627
Ti 13.63837817574444 12.790753937473644 11.71142353589391
Ti 13.897734479730115 12.523968974890503 8.565307347532864
Ti 14.145172880939905 9.505336398425335 10.40926701948481
Ti 14.534966619638363 9.702664767490013 15.023310969918793
Ti 14.80777062301138 14.967721700100249 12.716907278219105
Ti 15.866870074082614 10.626215026180061 12.919876813140656
Ti 15.684349344997088 11.621749052212373 10.254538318641108
Ti 15.039762384695937 14.281044664730738 10.210474018164888
Ti 16.23008664511114 13.087698449614418 12.298162713185238
