46
Energy = -307.90748114 eV
Ti 11.343266197132687 14.385563268397826 6.534154478597525
Ti 11.347112238374015 15.768708785420607 8.856014610825914
Ti 13.56294328435731 14.277377359292718 7.8903026181022735
Ti 9.160425432812481 14.226295626730371 8.145699311393944
Ti 11.24914055746857 16.322689739225623 11.561209497724628
Ti 13.54366660533579 14.781501485729208 10.531012744078973
Ti 12.794579187447402 12.127505708604748 6.610088863816857
Ti 10.099745577541908 12.126704851439843 6.513160964232144
Ti 9.161105066803172 15.593774740434599 10.493845056330944
Ti 11.397347429036031 12.874200385984768 8.644832270262775
Ti 13.800923471861607 11.85036968025768 9.229143409007811
Ti 15.697683222693072 12.864801438374608 10.87875109155213
Ti 15.029480715925075 14.26835768778319 12.831988440658414
Ti 12.590496878473411 14.939741648389344 13.223594854817005
Ti 9.082332056235693 11.42195407449044 8.982541049692328
Ti 9.71994415610888 14.193153608397 13.012689533485865
Ti 11.078177870593814 13.799728872062259 10.915499320181054
Ti 11.251789470622919 10.128251915466167 7.940875289257371
Ti 8.336220030242632 13.154039755584252 10.654699290266022
Ti 13.343903382560113 12.470055828176761 11.819871970447373
Ti 13.60610671541189 9.209522678500575 9.148137703661703
Ti 11.452204975966719 10.572583099995644 10.363488398596177
Ti 11.245266054991282 14.227577278582505 15.295882888067808
Ti 15.204861839039452 10.149602202074073 11.010752048767907
Ti 7.512919263226012 12.372039157973823 13.122451197667406
Ti 9.740427504320005 11.499427469718983 12.273426684430781
Ti 15.349132194660278 11.580711926394619 13.361689731143148
Ti 9.1507403205859 8.807496149064612 9.823440543112136
Ti 12.84479074980446 9.77525113634856 12.40875045312613
Ti 13.775476945289297 13.222033308992463 15.02729732621549
Ti 7.551253089692315 10.415322292709773 11.315125459286692
Ti 11.770890243426177 11.916392440123571 16.349853551416413
Ti 10.38887363865984 8.817025089601772 12.378170554063658
Ti 11.721910184701354 12.081383932572516 13.78665193007795
Ti 11.530997994974674 7.770756180280338 9.886494646492379
Ti 7.825315531992841 8.004759447745919 12.175621002597177
Ti 9.358332114199465 12.26985177349574 15.135716697214493
Ti 13.832296988074122 7.659778934686592 11.332022285796072
Ti 13.517898030659316 10.37960004236175 14.99845178269833
Ti 15.060615648512133 8.81841075156921 13.332763891784417
Ti 8.259386891111621 9.883667689211874 13.986664192840967
Ti 9.529213117557818 6.513147726078935 11.316822278139984
Ti 12.595843597182762 7.838012859638752 14.23155762377937
Ti 10.805628584954789 9.775738178569997 15.020300413058793
Ti 9.710517870585635 7.1424219191876865 14.00318125549301
Ti 11.731536526958838 6.385429322442782 12.308030243906634
