41
Energy = -272.74910061 eV
Ti 8.555155970699005 10.297735091681812 14.652999582995442
Ti 7.778308113838257 8.469797892942768 12.578382582491658
Ti 11.779183553935749 10.049840141581763 15.552258563860693
Ti 10.41639186448523 8.882799884420272 13.617406532076421
Ti 12.670508620462565 7.785595694545463 14.518754783317737
Ti 6.441232485864454 10.747071815703835 13.213929772338942
Ti 9.918337503885688 7.17634707057976 11.745538337155674
Ti 14.356002745208945 9.653551409786383 15.273471921043285
Ti 10.728906494172652 11.866401726878536 13.77433254108134
Ti 6.577383250423353 10.051547567443057 10.770136916072438
Ti 8.518565822892972 8.52642931980356 9.935058890981482
Ti 8.117509173197648 12.712637539415908 13.768782089183668
Ti 8.883510083851679 10.803079673553606 12.04110831598298
Ti 12.664993089221133 7.545728372906518 11.648063483146682
Ti 13.327078099325131 12.065690874522913 14.858307470441098
Ti 12.89690827018744 10.067006432883005 13.055209301093155
Ti 14.836737251996974 8.263587685368648 13.10954159613331
Ti 10.863717827868047 7.265552817845679 9.432288180101732
Ti 11.046743078066973 9.537068329979288 10.79108017831622
Ti 6.9028221134510686 12.555668367506811 11.38675986835189
Ti 8.386401222718732 11.396357638048496 9.347775838089639
Ti 9.515009522765297 13.385166839293726 11.579316185721632
Ti 15.409097291533257 10.901017848057618 13.197483277854158
Ti 10.492113817412617 9.940248914952614 8.328169819195061
Ti 14.560624104156219 9.430348165932607 10.890802471473199
Ti 12.785985687707898 8.444724177736344 8.890456680236017
Ti 12.00267844864704 12.109004002905 11.418902057813773
Ti 8.51928052484585 13.867438093136636 9.094575532486983
Ti 11.705989719710368 14.330938657312966 12.892681209997093
Ti 14.091589093418508 13.261468152460242 12.797831184736316
Ti 13.106541472712971 10.856844835903868 9.10179997321035
Ti 9.415153599267132 12.317957634639097 6.898142969043729
Ti 11.060870519731033 12.788138027270648 8.82725550687823
Ti 14.853264900262442 12.042467882892536 10.771401083038006
Ti 10.688355488492046 15.220614261254992 10.154298906472436
Ti 12.082355834524044 11.229923154057088 6.753766432314888
Ti 13.20658330593407 14.19064232874774 10.429028135872189
Ti 9.947723852021658 14.947616903497462 7.4978118431310845
Ti 13.733016074718602 13.054455954880224 7.887753416948195
Ti 11.690748744575224 13.654415184811642 6.263114040058763
Ti 12.394849372754868 15.235301643803227 8.18245054020788
