46
Energy = -307.97372578 eV
Ti 15.094273927633841 8.19641412393443 10.336717448593694
Ti 13.75287463215513 8.13447413120263 12.755745115023599
Ti 12.940449254813009 7.560880300340966 8.595588861721087
Ti 12.568133149644916 6.954128288519782 11.147474917831849
Ti 15.791788970955851 10.843321680062255 9.991611240208547
Ti 15.844950253051598 9.788201646061363 12.583035059349264
Ti 11.521089955286042 6.81832592759614 13.757407330030535
Ti 13.8751049110381 9.588641730027927 14.743012568486119
Ti 16.183049545617354 12.406187165630753 12.169647722127978
Ti 12.898623641720656 9.620789992600443 10.185315632475508
Ti 14.42747640044081 9.539996510183636 8.063817045440038
Ti 11.17077169874873 9.330968409157105 15.127642807010718
Ti 10.443715895596187 8.274480414943023 9.593105045488606
Ti 9.911299803400137 6.689571721590738 11.7152724469034
Ti 14.83135167871757 11.920198708028046 14.456061958007458
Ti 11.762141923902599 9.808672181039704 7.790291294315591
Ti 13.91372959027743 11.364907396197907 11.864209652803675
Ti 14.72645950876337 13.504362794684107 10.180122639680649
Ti 9.173166880349793 8.03455602548548 13.816785574720344
Ti 13.974015562154806 13.997066694468867 12.725861139510029
Ti 12.099230447285256 11.332584206543885 13.590927974067974
Ti 11.130892421333604 9.053538075863784 12.394509834293668
Ti 13.418130442899399 11.901863311105407 8.550108284591115
Ti 12.180380024797648 13.258823490329856 10.746251125026713
Ti 10.593036575236187 10.958582269552094 10.683536593001907
Ti 12.322151102387986 13.809184422438317 14.786258382756891
Ti 8.511034976695987 8.912624289660814 11.338400720528366
Ti 10.41890493202253 13.302521285199571 12.825461651806862
Ti 9.167227478555908 10.73620693104039 13.386326697091473
Ti 12.685765382128144 11.431567528764708 16.099387091361596
Ti 13.325709840373369 15.703111917028252 10.710169393451839
Ti 10.807267308068436 12.322851892447648 8.302187971746019
Ti 8.731802437243232 10.587236478457912 9.094275734393662
Ti 12.373801618814333 14.648850437278652 8.550296567533962
Ti 10.205980559164608 12.216120587115103 15.28020417135008
Ti 11.657768189040372 15.756892201338486 12.794372383216283
Ti 9.45983778304472 13.467479789251827 10.434169159022447
Ti 7.592647773459549 11.627924924583661 11.311103556678114
Ti 9.856845454698798 14.90725349373199 14.688061312862775
Ti 7.912828749429097 13.381641511640183 13.510882394365629
Ti 10.73454831519445 16.03757043022714 10.273492797583238
Ti 7.54984583344371 13.162902220351485 8.895465941653594
Ti 9.740982969472446 14.730751999940198 8.06702185679686
Ti 8.899431856754644 15.707931277434172 12.329896350907223
Ti 6.923225724574613 14.176208165586768 11.264491054128287
Ti 8.12922554341102 15.673346628638287 9.705101822589803
