48
Energy = -321.11808525 eV
Ti 15.85966742127154 12.588259864113803 10.171408520874511
Ti 14.110173759081157 12.630219535098279 8.3288646159969
Ti 16.11507426604868 12.158893537816146 12.765307767191125
Ti 15.108192409931728 10.174177420458802 8.8056955183843
Ti 13.5953200055906 14.6989520574062 9.751835327960874
Ti 16.85336750993764 10.246997205944192 11.015911466178604
Ti 13.520521639028356 12.99949222040169 11.956913542045529
Ti 12.68870233231231 10.848606760302168 7.497336897211275
Ti 12.486118764263601 17.02906040677515 10.671050855804841
Ti 14.401559405989676 10.69112899536425 11.284300049441985
Ti 15.561014038534273 9.458504831552819 13.288724305857762
Ti 14.990844188872067 8.170776787819475 10.965944922682173
Ti 11.322291658257607 13.235959177193735 8.510366553485397
Ti 13.897789356763374 15.34768547793443 12.314331428544353
Ti 11.329993396997391 15.79174011798268 8.700536059341676
Ti 12.781120440997181 8.72715729839211 9.321934485757215
Ti 12.264994844502842 11.421346144147813 10.063319009086301
Ti 12.921482887426203 8.921983261248652 12.59467968329528
Ti 14.064997525472258 11.487518082272409 14.215914113601166
Ti 9.85115611864947 16.796759558399188 10.549056869582218
Ti 10.818949489079658 16.947258656382445 12.753278339031985
Ti 10.486323181874841 10.042341009115912 8.617089042203045
Ti 12.667481586097683 16.33508051947909 14.403483174933118
Ti 11.333079124658315 14.628058222902723 11.179623273405637
Ti 14.123144233698454 14.077197911345996 14.785816723619025
Ti 9.9537650081075 12.261674652413001 11.229416905838887
Ti 8.847327683482481 12.06675792419656 8.773625839431178
Ti 11.57718488775935 13.858687462317837 13.907600812914806
Ti 10.825397498281543 9.303731415001657 11.302035772468395
Ti 8.968886212748716 14.505874970699661 9.574543158753064
Ti 10.095040047859142 7.385858445014077 9.97047649619982
Ti 9.954008365869099 15.689527065286876 14.81289911634906
Ti 8.738107556678813 15.052039885340413 12.185018103204433
Ti 12.430208747046027 12.332002129657061 16.221803727803472
Ti 12.645833845140993 6.673630512472648 10.881579298779245
Ti 11.566159213440708 11.209004473350095 13.219343553851532
Ti 12.055757993182949 14.929887222153534 16.335437852914712
Ti 10.915813437895064 6.646963981103847 12.484182174908671
Ti 8.801159899789315 10.55026710131152 13.041307930660022
Ti 12.656142712541115 9.659127799963967 15.27715980694621
Ti 13.378573051413362 6.97984990895754 13.620011735084415
Ti 8.517129412380738 10.014708359214447 10.43897494458969
Ti 7.537489808357938 12.61346186287974 11.190350887719278
Ti 8.7690838719284 7.981592757588122 12.332616844761922
Ti 8.916911742310734 12.996730456403633 13.769270391635612
Ti 10.216008007131938 10.977192998574278 15.515810019137094
Ti 10.00965092785442 13.45790332032713 16.125693161925156
Ti 10.728329904319777 8.461274002308523 14.282212009843906
