49
Energy = -328.7309433 eV
Ti 7.748249662827156 10.997799358506965 6.15681373277623
Ti 10.156054530659551 9.916810168513784 6.428832075994036
Ti 9.545650239427614 12.669034159382518 6.242280297188505
Ti 7.879687522526761 8.818854155567838 7.568958392872694
Ti 11.645158439697852 11.981256077001014 7.4438318941696044
Ti 11.96239992584319 9.657754774202374 8.526211164229196
Ti 6.277570836587576 10.880332353811415 8.093481187912547
Ti 10.19796125848954 7.608324962963413 8.202591082641012
Ti 7.472408780018416 13.202137029093588 7.769967090656198
Ti 14.17897112726769 11.793291030595991 8.897696484384708
Ti 9.09388092385621 11.193284505500445 8.556760754027428
Ti 10.135975449824864 13.802808095949421 8.526638444491695
Ti 7.877057483252742 7.170739157077053 9.535048181843091
Ti 13.055813594495326 14.135919001051233 9.40417188930868
Ti 11.57391693068832 11.967460067974505 10.03532187899897
Ti 6.817046767484426 9.369514604155027 10.178329613267131
Ti 14.407252559565785 9.735741448117851 10.57518116486773
Ti 15.587087083989294 13.897091561870829 10.148038367267928
Ti 9.944005659467486 6.311458771621646 10.522806834122536
Ti 12.12275050594935 7.74486632123285 10.190393725826176
Ti 6.761392653357555 12.06206228383006 10.27207951056303
Ti 16.269714041359002 11.566102999886082 10.544519463852062
Ti 9.690606477608748 9.074393629899618 10.521326632276962
Ti 8.458706097820158 14.201435010288685 10.43169076941051
Ti 16.122661245813713 13.18060065436382 12.741131042074922
Ti 10.9047199713404 7.522929457334145 12.504536818473236
Ti 13.820639862131827 12.507545373213164 11.403696265657421
Ti 7.226759573029279 13.15237395275759 12.522590833449428
Ti 14.072717428807136 15.004506497312814 12.118169343136236
Ti 9.562080817894142 14.198288209468872 13.082783206556831
Ti 9.33701317837839 11.880104491393167 11.532430611362772
Ti 11.310554515026356 14.553324113809357 11.150245752017575
Ti 8.118166286086892 7.624607057190221 12.08593625331584
Ti 11.938520563210012 9.8890039056952 11.89742726156092
Ti 11.995282931101702 15.095720674392233 13.66656271581994
Ti 11.571782199843604 12.419656396837349 13.183960297244791
Ti 16.331771930501027 10.351226040310651 12.801066963027681
Ti 14.076224074290625 8.445574508670477 12.71168113407114
Ti 13.877461532073045 10.99866788121546 13.503595508229392
Ti 7.24824984068578 10.457136733376716 12.543137395609772
Ti 14.049643876685804 13.759838159535802 14.583478627848995
Ti 8.98308317614005 11.981960900654842 14.22819439928277
Ti 9.628351298270053 9.518585910273694 13.470354351308707
Ti 11.3731547791203 13.404487759605152 15.53397280758794
Ti 12.464810823650042 9.033059295972013 14.663195420019752
Ti 15.85598218434005 11.850860241563224 14.99286488270224
Ti 15.092318047449018 9.411577924262323 15.069788391733152
Ti 10.969587065527513 10.79037670407819 15.424916163467561
Ti 13.442678310418604 11.443049692500338 16.044846985372647
