47
Energy = -311.59337045 eV
Ti 12.04042035915093 8.190014177068488 8.557406163414798
Ti 14.612726561950309 11.441339502369438 6.880446857662268
Ti 12.655251358528693 10.009957734892957 6.866566745649813
Ti 14.630024511585875 9.312482571273652 8.6091512339408
Ti 15.929929200561801 11.657244944397236 8.993609221741027
Ti 13.645203239300143 7.943961028616954 10.86427945476382
Ti 15.086453232595767 10.594750341244172 11.279155156169292
Ti 9.374835169119445 8.679355155157573 9.580478751499705
Ti 12.158213999507629 12.707926330666918 7.021027470349026
Ti 10.94144778958961 7.28327142554265 11.079529694455795
Ti 14.451498813620008 13.725568348405075 8.104615412591421
Ti 14.778887861439422 8.416580026194321 13.063169580339913
Ti 10.494803308656463 10.559963994165962 8.00596306112741
Ti 11.77948844044091 9.792582657349701 10.478875928500434
Ti 13.209701514312869 11.558932769049292 9.164783995051707
Ti 15.085965230753008 13.424781642748036 10.653191842752946
Ti 9.830075348116134 13.339301158358497 8.325915331441387
Ti 12.237264930217798 7.7266194922391085 13.25492258224154
Ti 14.86912090228766 12.804159423321817 13.244513972485091
Ti 8.30264668621238 7.319946283333107 11.748730375054798
Ti 12.856805148214738 10.35876018772209 12.925578499466246
Ti 15.310753966179613 10.537925822679666 14.128349117293258
Ti 12.339953052346136 14.308717161482585 9.575316515858143
Ti 13.370940487059752 9.122749681623112 15.203728037490157
Ti 10.879734764098592 15.429048030155 7.522127163190289
Ti 9.70087308567204 9.58674153003015 12.20939379654356
Ti 13.359790442002362 15.256091398083308 12.02394480047025
Ti 10.571814930440945 12.157546580862206 10.40376209060099
Ti 8.234383790955802 11.256461179850893 9.767984458433617
Ti 8.204542379053567 15.200790878896598 8.328203329286008
Ti 9.643839979371073 7.399371411932084 13.834225699856644
Ti 12.67454651723995 12.778145399663982 11.762548872671646
Ti 7.104596335810384 9.33800028914922 11.13242677941191
Ti 13.242368272741109 11.766281539777067 15.197922127771855
Ti 10.387505755168984 12.067072990057566 13.309185922685625
Ti 10.720174293138706 9.73690786915437 14.763114486938683
Ti 10.10844686539957 15.616620574253902 9.942798889985491
Ti 12.436939833190703 13.801884211048959 14.211610526201438
Ti 7.615369626190113 9.07119675122695 13.659211173441252
Ti 8.48202071134716 13.729560451939276 10.780255386022837
Ti 7.603886435059843 11.549429265844914 12.412953110534238
Ti 10.701179657495016 14.556553065391329 12.33612570695475
Ti 10.480700272364993 12.471149339214811 15.971712233899934
Ti 8.384992160244007 11.39591312511873 15.016805151235378
Ti 8.454014166715785 13.842180241054072 13.920724032007138
Ti 10.295030631881048 15.0298951688846 15.195761646093668
Ti 8.401231610167597 13.873446795213676 16.451510597053904
