42
Energy = -278.4984604 eV
Ti 15.657212142661084 14.684520995829978 13.390523698707447
Ti 13.254996607127586 15.335387303998974 14.094936486901805
Ti 9.132648499173744 14.278051369234158 13.70874663260601
Ti 14.35222938528869 13.026143727122353 14.956995251691724
Ti 16.108466240767584 13.884066058925082 11.099189708340287
Ti 11.434905303817283 15.035368664590203 12.385555494141224
Ti 9.422157110391367 12.234016081191305 15.428265627621045
Ti 14.072943780676232 15.775396906590798 11.462107580761822
Ti 11.745025326612653 13.209937148009763 14.505708784750837
Ti 9.377117325555677 14.12615682312381 10.818292682979083
Ti 15.876571012454258 12.010590755186152 13.166497943100708
Ti 7.700356619074463 12.708943535856529 11.77184217322198
Ti 12.06582082849802 15.277127426007496 9.79292196471649
Ti 13.646095924828488 13.253549419596867 12.358584218208941
Ti 13.388630791870252 10.836683634016271 13.478322462523767
Ti 7.423488616254347 12.294698776497672 13.953809675212014
Ti 10.264710157216163 12.070432535981453 12.800675437671499
Ti 11.206504558675249 10.273133420744044 14.830310218171402
Ti 14.611057766166047 15.526050261452422 8.846677274117722
Ti 14.29379227523842 13.330830505216484 9.414450065648623
Ti 14.489901629070184 8.822253329571106 12.02778990779072
Ti 12.41864222993159 13.60171148243335 7.728424514710226
Ti 8.596109267969576 10.063993390011648 13.994138439960244
Ti 11.853373186302758 12.691051523456872 10.234058906887824
Ti 14.824499525731616 11.201478661796553 10.774572689004529
Ti 10.046091784467857 13.885688596650416 8.427154644229752
Ti 12.57935515509535 7.994984856794808 13.614332831122313
Ti 9.874814288619895 11.161053780076063 10.297644271362314
Ti 13.162048776866943 10.96884731605223 8.366133751654614
Ti 10.058333391696662 7.87221209448554 14.638275961461567
Ti 12.467107694074375 10.126653505435035 11.053630112365362
Ti 14.073517875627118 8.814625533982943 9.47598344276186
Ti 7.759459275079361 9.904953785392973 11.309941016991663
Ti 10.482476347939736 11.422257486156752 7.650067401248037
Ti 10.586940770693692 6.5029598007277905 12.521300244120823
Ti 8.287870617700994 7.701485349059061 12.687636185162166
Ti 8.111061035690298 12.279996720258575 9.005048778122676
Ti 11.344206651274309 9.02357328197911 8.795316522272312
Ti 12.393285967428291 7.339613105661295 10.917495630782796
Ti 8.647096674853966 9.674172878050117 8.644614421530006
Ti 10.486254889643986 9.143044474394447 12.392761120771329
Ti 9.55166586943093 7.761146875938159 10.308109002129607
