49
Energy = -325.88648187 eV
Ti 8.223638617798922 11.07371941625784 14.286698499006597
Ti 9.40367671324336 8.832518338652502 13.978704737597031
Ti 9.783552335458323 10.584547927200529 16.347071690205016
Ti 7.923663868175785 12.811573938047099 12.430590764473134
Ti 7.978067895735651 10.036953243534109 11.937665739019174
Ti 9.837580989338685 8.205971420645236 11.218115997606654
Ti 8.794719188837929 9.128612133565676 8.61534275536405
Ti 8.625912793237227 11.767626116002026 9.94176249624519
Ti 11.667031966753916 8.339900417905211 15.45169624792693
Ti 9.585876034490564 13.163984258415335 14.891735347172316
Ti 8.853787515696753 14.297626082743887 10.620075991672161
Ti 11.564471859844014 11.212155195507565 14.720627994238152
Ti 12.34462314626716 10.38063488654219 17.118456147666233
Ti 12.127670584554481 9.411026795786107 12.861111348348437
Ti 8.87892303709219 15.631852152545845 12.912867587573276
Ti 11.382225992266235 12.72438592153539 16.904182061402814
Ti 10.185305305461783 11.314225823301 12.245563603031739
Ti 13.66257523467065 7.575722787464313 13.558378978378471
Ti 10.902803574314397 10.125633087928593 9.749758922038339
Ti 10.944944340186384 7.6562173546116306 8.753739911598132
Ti 12.456474155034329 7.686115937018537 10.890885319985188
Ti 11.180881633781397 6.965432183398715 13.188100130365441
Ti 9.499494286040791 11.401591148018964 7.547770931919571
Ti 10.434421910330707 15.823816174553329 14.57944512947376
Ti 12.412334009886294 14.287414676960134 15.108466147289064
Ti 11.287457478308314 12.855791474234763 10.098431278248379
Ti 11.011194395884447 9.49501765639742 7.109511998903649
Ti 14.690673936730148 8.635119775972525 11.181336043587521
Ti 13.938361477964804 9.520217222025451 15.370304413005988
Ti 13.137991150785993 12.568261781896739 13.160787449820631
Ti 10.057221085259943 13.950776114710596 8.222673676295347
Ti 13.911495902607387 12.140342869064654 15.861979758084159
Ti 12.86761028831351 15.96725377153476 13.016470401621508
Ti 13.291209712717716 10.993148572976 10.998166805729015
Ti 12.047335273558744 11.920857090171372 7.557320466782755
Ti 14.836401517306676 10.497917412304 13.153427333494104
Ti 13.400773105788275 9.498541581674836 8.746814985399986
Ti 11.02690252988959 15.57927570181833 10.502568489275065
Ti 10.83101883805746 13.992196623763995 12.694126255977958
Ti 13.482537472438953 14.35623617222903 11.03548726314955
Ti 14.824340325456738 14.31025546523913 13.816591933019485
Ti 15.690435348039951 10.622447803405528 10.044333896568737
Ti 12.690885633419509 14.630447943314712 8.494431622452835
Ti 14.17947974532141 12.439694798578747 8.960490316346695
Ti 15.495813832204528 12.842042400815043 11.5249025700364
Ti 13.692225160792272 16.780517162800287 10.13006045812657
Ti 15.590792409477865 15.89445039462126 11.705525917124998
Ti 15.474537496391932 14.826865662148938 9.36044253805376
Ti 16.048292548006728 17.378294787506153 9.518121156105284
