44
Energy = -291.93011046 eV
Ti 8.557762272494195 11.25117293015225 13.58596031461528
Ti 7.895475800947814 8.775199446588234 12.563014314790589
Ti 6.667556641203862 10.681537848440573 11.657892627333705
Ti 7.340189240227117 11.637794339750322 9.482190992712049
Ti 7.559351578370159 8.933524683315289 9.862189256169854
Ti 9.615156591918 13.406869933007961 15.184453507447346
Ti 10.28461708775378 9.274249309282883 13.396349314214637
Ti 9.638538834765834 7.584171370011533 11.09888440331847
Ti 10.698701644255197 11.06097895040679 15.40634442513915
Ti 7.990955616610228 13.03481132506276 11.708500188276906
Ti 9.410010451977765 10.482421180827064 10.985894421442753
Ti 12.037216655733063 8.077068299721892 12.081705126971377
Ti 10.446789546524137 12.947146549257514 12.546537127824013
Ti 9.574801531964196 12.790964409641951 9.450608716994529
Ti 9.145097357802088 10.41606516801755 8.041690877756889
Ti 12.642392905475697 9.22166126063831 14.710834799892318
Ti 9.688285571442815 8.122415658363341 8.67815716428857
Ti 9.27818406418212 15.191141147271207 13.344573724134067
Ti 11.856793975736172 13.217043827978507 16.46975729455737
Ti 14.409210465119822 8.442259557868496 13.1619479098036
Ti 12.489727257873163 10.814204048263287 12.471147920875804
Ti 9.884737063321522 15.070474284764828 10.625728780082204
Ti 13.316954700412916 11.27211113390663 16.14372012439862
Ti 11.589086446298982 15.148354911989147 14.74415976826626
Ti 12.008054226467335 9.834318019948334 9.86038684010992
Ti 11.502722161677488 15.854795154639726 12.304707353431052
Ti 14.844102590330703 10.891249517533064 14.079932374334469
Ti 11.07932448164466 14.551077559800314 8.286076811572624
Ti 11.391591799749277 11.916276065069152 7.9408620101018945
Ti 11.673358799262214 9.096112357481221 7.328414327929212
Ti 12.274687292972667 13.25687519394571 10.527929111751426
Ti 11.996975926642005 7.240134780130009 9.261715862824685
Ti 14.315616891031183 13.589160428806908 15.136228731795223
Ti 12.576147007414967 12.74218709294994 13.927488933236626
Ti 14.814250531195187 9.913405355129571 11.167877211017304
Ti 14.837752360477648 12.595628965515226 12.204875565829271
Ti 13.71838582102783 14.890930460422936 12.499037055843848
Ti 14.473150619564546 11.662189296684218 9.452942472960126
Ti 12.731699311661773 15.763073419913479 9.95507072977854
Ti 13.43617661396951 11.061567823850579 7.299362715839122
Ti 13.445931355600107 13.82371321421691 8.10610537734778
Ti 14.139900601019512 8.867489078231706 8.538569109930789
Ti 14.0529500841708 7.53850150209254 10.718445559527199
Ti 14.855076804492997 14.216979328573258 10.175795572903393
