48
Energy = -321.57069583 eV
Ti 14.548033475896705 13.60543128516726 9.205180023713716
Ti 15.996165189723875 11.323054136521318 9.944899477314086
Ti 12.202583418274218 14.042956560660972 7.81392099927415
Ti 13.9116928387108 11.633111032281427 7.847758711876374
Ti 15.174853662366454 13.501962218673704 11.666937830409793
Ti 13.895772682914462 15.619302086556027 12.823656724625366
Ti 15.732967344874847 11.188385095430819 12.888257482139899
Ti 12.740492820365624 14.860590931427064 10.559106770085924
Ti 14.802275757436004 13.528954045434332 14.43095330276289
Ti 11.48783767711298 11.632301076262479 6.515503223616939
Ti 15.283947506725033 9.109347076966216 11.44186814144047
Ti 13.72877915687392 11.240397972953753 10.777804716465955
Ti 14.13299862905709 9.209249717095425 9.052070221655391
Ti 10.321628613592916 14.729181979210498 9.816577018739343
Ti 9.677492177950802 12.993112926360334 8.022822340567087
Ti 14.753286090686911 11.002431586944228 15.38542872211302
Ti 11.808907282037628 12.425374596844323 9.62554346374066
Ti 12.655261554153725 15.118027570580825 14.941719697617218
Ti 12.619763312618131 13.339342336583755 12.981838243547294
Ti 13.115318599684597 9.395227864361228 6.703482893563097
Ti 11.154773775817993 15.568378582119577 12.708510808861414
Ti 14.344463630601124 8.865342517585182 13.900630107018582
Ti 12.964978065113218 10.82711329845079 13.380595532184502
Ti 12.65537393677255 12.572966023602444 15.798222205815406
Ti 12.446900215753505 9.871535406779985 15.73592821419795
Ti 10.768321785482573 8.927462586760223 6.276554738684489
Ti 12.697619775195609 8.51762997074656 11.170746215267503
Ti 10.320559371435667 12.943267030915 11.864685597607789
Ti 9.091855667385012 10.62308169009379 7.092137826519285
Ti 11.43547755170797 9.899209683718265 8.761423221538326
Ti 10.529015363552652 11.441754993941156 14.404434925390792
Ti 11.919170063999118 7.470582065507611 8.262312827002477
Ti 10.39640188185686 13.94215099295651 14.750634484131812
Ti 9.078700459254947 10.841380800874397 9.750084359005447
Ti 11.311010285348164 8.689986875245914 13.69934034062347
Ti 10.864115820832396 10.290185758306077 11.717736394985073
Ti 9.212171460894412 8.348635806617997 8.267820146354278
Ti 8.345485126264753 13.92364809295078 13.088403377114636
Ti 7.861029546105741 13.138060297206804 10.605938120219003
Ti 8.384560865533055 10.9332691361799 12.373865651547511
Ti 10.154391401651289 7.954788955765159 10.535002130112296
Ti 8.797565793695886 9.539375844213406 14.816141767242542
Ti 7.718627195844394 11.88569775462263 14.776234765727132
Ti 7.54010114796334 8.719929198722504 10.847842805037969
Ti 6.448676011748709 10.928058770152798 10.56432541261459
Ti 8.70648832298892 8.097822907775468 12.893502876964988
Ti 6.228668460794466 12.458541585994784 12.680504549343372
Ti 6.463404684424729 9.712366734953282 13.2610760526927
