46
Energy = -307.90471917 eV
Ti 14.198897139957174 15.413327421478588 11.902038096813374
Ti 12.051466606249424 14.599293183460405 13.543547928475105
Ti 9.947848662876112 16.566305414615382 12.627923513300056
Ti 14.372651296129957 13.229169638488857 13.372064055453441
Ti 9.107982633174789 15.003401842485804 14.499751306784837
Ti 11.758202381585726 15.951096200924706 10.914893188389362
Ti 15.502555730096256 13.237222360751447 10.823020820425407
Ti 13.823498438498701 14.810719646912505 9.218577017452025
Ti 7.656466273918731 15.388810830075007 12.31164478538671
Ti 12.787585203358478 13.458304922087148 11.156437424620183
Ti 9.830438047529059 12.341390493156876 14.625075823598113
Ti 11.829194288420908 11.85458480399071 12.8419476316366
Ti 12.910132117358339 11.164853077735765 14.893351777923348
Ti 9.904726774171644 13.968049678764983 12.308399963591265
Ti 9.172265027703606 15.52598176050315 10.06778822107458
Ti 7.513922794511366 13.030267669124697 13.566404594581774
Ti 14.566202460128395 11.00167750560867 12.162088375303028
Ti 14.888755779016366 12.64762998194313 8.318206997084726
Ti 11.297223998938671 15.171390352575244 8.560100849904225
Ti 15.73004130689631 10.638329179553878 9.776693736502281
Ti 15.07436354474267 9.729526050638388 14.609180120649588
Ti 13.149234844199436 11.20573337978546 9.793262075282561
Ti 12.271399729994425 12.90664829753289 7.730898887642395
Ti 15.625062217280243 8.48607283000572 12.388908132808245
Ti 12.820414710915372 8.684532242719591 15.634255069978398
Ti 11.202279490784194 9.976785350657128 10.885088311575034
Ti 10.458393285852072 12.828263351033655 9.916058820319241
Ti 6.5743256599820645 11.357718976452729 11.690492992802286
Ti 12.991431869368556 8.987289300629458 12.925437156452414
Ti 13.774805338455748 10.314471097681709 7.667277525910343
Ti 9.273659311250652 13.421053760975346 8.01803083676185
Ti 14.056755401770982 8.61103508073615 10.1973871095251
Ti 7.6460738645907345 13.453271955630496 10.442699312288411
Ti 9.176222970017353 11.23978205015944 12.131556141553578
Ti 14.433405462856644 7.184919019843675 14.402682697891718
Ti 10.68310538509462 9.732486020727462 14.336675636914503
Ti 8.167150435502599 11.062035104840447 9.445944525064741
Ti 7.793584386735288 10.218724512991274 13.88134523645998
Ti 10.756583053394431 10.699817443234378 8.07056631036835
Ti 13.857184261218345 6.568956064688943 12.038335106532212
Ti 11.500143552471954 7.260423525621561 11.010103802963025
Ti 9.4693270193864 8.70702755659706 9.541456700692203
Ti 11.785043436600965 6.928602243071821 13.827160662027376
Ti 11.964026005608698 8.528235340951605 8.703890563797417
Ti 7.57446975960249 9.162941100348853 11.335125856944495
Ti 9.662381404819712 8.332725741224346 12.477107661512072
