46
Energy = -307.71974351 eV
Ti 13.763651688404153 12.689679738381294 14.366021062456031
Ti 15.270740217517183 12.039838001251574 12.308057917124735
Ti 15.178231249128107 10.436375536447102 14.340738155756762
Ti 12.775178237175062 10.233586607677783 15.519799988835981
Ti 13.764750480978686 14.44869853805712 12.252989712608743
Ti 14.078646007345235 8.24242946596842 14.148544570023267
Ti 15.11606459747268 9.200357124287041 11.863505471894966
Ti 11.300813883999908 12.744368053447754 15.681513642454888
Ti 12.260911376686927 14.893707142828648 14.344129728135037
Ti 15.08870962194132 13.489767896100762 10.111708953741486
Ti 11.463455526843598 8.154886271343951 14.077971854541287
Ti 11.203770087964502 12.741267698672809 13.12335956378306
Ti 10.036242452739884 10.181119306807108 15.30755072174829
Ti 9.967952516734632 10.314479085939674 12.651327278616035
Ti 12.889483557788267 10.268763087365606 12.941872647464786
Ti 14.018417088118804 8.164661148867197 9.232501881347646
Ti 8.875560054328025 12.41164544067871 14.914084494035807
Ti 14.686000937366865 10.855894506110179 9.7839505323113
Ti 13.09013488332469 7.41879945473518 11.842182259121655
Ti 12.81174135109367 14.813454521886124 9.633935807674556
Ti 11.336857034007329 15.626151889214778 11.868355856516846
Ti 9.770091830655995 14.741563032719842 13.97983002459116
Ti 12.871224851391904 12.269631484457857 11.00154814583011
Ti 8.82364805971891 8.217266377792276 13.834486546145133
Ti 7.563797306000451 10.396566438675501 13.75381321210335
Ti 10.337395884529673 7.701767843196949 11.706199010759752
Ti 13.824808515726316 12.842567127307804 7.978369657756892
Ti 13.819245459821671 10.184975927975385 7.488705908193276
Ti 11.764982615217992 6.962195674840594 9.551714546974472
Ti 10.414165311221163 13.39648503800755 10.506358399852477
Ti 12.103359993582748 9.479907642985722 10.391920429137407
Ti 9.955529619412685 15.40533800963016 9.264026537381387
Ti 9.3159022945181 11.071970726449509 10.237514051775415
Ti 11.709845125184152 8.73070572365722 7.596587761123409
Ti 8.732296265869957 15.269371724651132 11.587482613474414
Ti 8.24996964716244 12.88697823258434 12.536045674849506
Ti 11.497245349397 13.969098539462586 7.587297736821173
Ti 11.634073585474143 11.414363597103094 8.690768636445531
Ti 7.758752327797746 8.848604958536322 11.455182555085983
Ti 9.5278090353637 8.467517632870301 9.27793381586024
Ti 11.630655614567427 11.462743221075751 6.42945048936771
Ti 9.25411080459168 12.695417048835617 7.900989606983836
Ti 7.741466175639727 13.318653851460256 9.943961712571662
Ti 9.449260224138094 10.148515401808725 7.386499363216542
Ti 7.329932153030339 10.337343777214222 9.023841455633933
Ti 6.734922263803397 11.227496072333084 11.38401268398861
