41
Energy = -273.55654348 eV
Ti 14.215140366952063 8.701863682872773 12.914088927592639
Ti 14.975283188800418 8.372804798991274 10.273829100964344
Ti 12.728498529306313 7.288854245225411 10.931123800924226
Ti 15.821779279803259 10.525713279978165 11.502867740533713
Ti 14.652058130076831 11.38900052581265 13.798241458213264
Ti 12.592784874534292 9.95523742772774 14.781088712436755
Ti 11.428334004754202 8.484742163208844 12.920363473453836
Ti 15.895118971331675 13.137083236011467 12.302540667976768
Ti 12.552628651705902 12.527389946099767 15.072491291231776
Ti 12.868991526053128 8.801911195783408 8.5269555464329
Ti 12.909763234028226 9.81872519092572 10.937806192829282
Ti 15.006964378459209 10.568718384574106 8.836396396617566
Ti 10.557018035943718 8.556721042647872 10.032436332664256
Ti 13.739143768938131 14.073685024589272 13.166408136373242
Ti 16.32284425231586 12.613828214941018 9.919380107427246
Ti 9.070099394201636 7.526466263700373 12.030135219686269
Ti 9.049072061533645 8.875306327169607 14.305107286869092
Ti 13.745083469729632 12.58010476819414 10.697352455558734
Ti 10.170205018496475 11.3121180806227 14.545280867223141
Ti 12.169143991337 11.62429617442704 12.69939783218058
Ti 9.501203913082811 10.094764388870775 11.965714891901838
Ti 7.412691671215891 11.124517705340418 14.066421513032719
Ti 14.72885249791055 14.790214468676872 10.431566371543594
Ti 14.654094925147712 13.20287691276267 8.185833758183128
Ti 8.575143650752684 13.575563736869686 14.53114358507859
Ti 10.502694974175492 10.06784110431671 7.852205045111911
Ti 12.778895584147318 11.490111244249984 7.581369057071116
Ti 7.029121231602981 8.964697094737721 12.665376649195506
Ti 10.927909139887605 13.862065404227549 13.305397934664345
Ti 11.31675614777653 11.65543129185536 9.880386736090792
Ti 7.825518917433423 8.958000558949248 10.189639534532507
Ti 12.129379476023496 14.855290184089835 11.218239010963158
Ti 8.905039499013244 12.430916716359643 12.148056805230343
Ti 12.383739311036368 14.14044981111282 8.684053963550888
Ti 6.537416917403886 13.397765475363169 12.883389256638996
Ti 10.330911778761003 12.641446640804485 7.713084103732999
Ti 8.638273772403585 11.388336551509536 9.441956357670616
Ti 8.561815078670152 14.996591139782359 12.29523835065741
Ti 6.593885587453942 11.16851819413197 11.355436785037124
Ti 9.963566656131656 13.915733722438642 10.114582224494955
Ti 7.321867973691799 13.633031512071284 10.386350350452556
