42
Energy = -278.7922371 eV
Ti 8.75603836585169 15.833232241874445 11.629224665564163
Ti 9.659825740284901 13.430727689789467 14.973871701482638
Ti 7.813549952553206 13.863433767086754 13.01556566510223
Ti 11.031192385025456 11.43239164747104 14.23408061360972
Ti 12.381191326316099 12.070758478855339 16.151000488745108
Ti 8.35303804072812 11.338263895773846 13.837986023289218
Ti 7.145900205009164 11.730955820062428 11.55360171588589
Ti 10.170205190306886 9.13089147343425 13.342722215758883
Ti 9.790802272026314 15.740642971875817 13.988471786708226
Ti 10.136261515750746 15.204180045274967 9.70460133335711
Ti 12.764673026363994 16.716927031521127 14.166023347535699
Ti 14.236247900819848 13.373113997976338 16.140429604910956
Ti 8.062528238505834 9.467669441398604 11.740251902800228
Ti 12.16660788283716 14.420414121994137 14.360138404378933
Ti 10.409459687561775 13.765582418738953 12.263318789634313
Ti 8.182933617689427 13.54149879612391 10.219174975761373
Ti 12.600752303764716 9.200484167696787 14.611017211423265
Ti 9.9052816702823 11.320190331910975 11.461471189130565
Ti 8.568854268520996 10.841169470863873 9.426413580536911
Ti 10.457333234793412 8.763936647091622 10.709801453596615
Ti 15.03021961892123 14.851570719317984 14.261840107426984
Ti 13.544205456731204 12.596400991573084 13.67622328108075
Ti 11.429274152044128 16.255176562454498 11.831520227190875
Ti 10.488178915529621 12.852150774132046 8.978683497436634
Ti 12.185882981781138 7.577137865300455 12.529148117482672
Ti 14.687576560433211 8.386557977087909 12.891153756284607
Ti 13.861227210836546 15.08592312528377 12.061140615361245
Ti 12.64755188652729 12.781268098534548 10.966429153993534
Ti 14.703902003387817 10.505891912832832 14.867861293452943
Ti 11.709032414264463 10.496745199825108 9.215489835115172
Ti 16.158863044671264 12.456817750363642 14.50508982014981
Ti 12.592947301748564 14.95249710955637 9.586308968669762
Ti 12.370801756024546 10.135296844744788 12.068084348496486
Ti 14.754212074939874 11.045933067814037 11.999172620448318
Ti 15.015209651637196 13.38710922105967 9.825934384769143
Ti 13.007510610186804 12.667653331655783 8.313548705568076
Ti 16.221599818344387 13.35654857341814 12.187478650641461
Ti 14.453974531085755 10.71243459244732 9.166387860385495
Ti 16.93434626777078 10.429278386547551 12.799353351586973
Ti 13.49400930299071 8.428365252365724 10.380108539383716
Ti 16.756960543033415 11.422449515928502 10.293437186649344
Ti 15.985508544745967 9.053636888360076 10.702688629986666
