49
Energy = -328.60087158 eV
Ti 14.061152253376893 7.505564119928588 9.356642878371298
Ti 11.608934842718714 8.025803394106275 9.346429546914358
Ti 12.822197622034581 7.742870699660075 11.705557314864999
Ti 15.463197731916628 8.069704443780877 11.357493060224611
Ti 9.824168054023838 7.979197615577484 12.649742194921282
Ti 9.478300365795267 9.217205177834364 10.458509221362968
Ti 13.15483971466809 9.305460393698649 7.641272148195785
Ti 15.833460549574296 9.624103439432119 9.08913296502932
Ti 7.355675591717329 8.679095298535938 12.179900834331438
Ti 10.35377721670247 9.64061594369425 7.54475549977311
Ti 14.13128096027769 9.380760764833092 13.207291884363494
Ti 8.25679439294993 8.771394592522588 14.631831758096745
Ti 13.878886179586036 10.001876769012409 10.410019000436833
Ti 10.99630895120706 9.337352584857328 14.660085576058327
Ti 11.475409375093253 10.917106417089803 9.363411476694855
Ti 16.176975978651093 10.645015344357082 11.89276538049271
Ti 11.599078086551318 10.232835157353872 12.16345610617406
Ti 8.183693106999232 10.73817559201905 8.735646041706012
Ti 9.07909994831287 10.605795863301832 13.00541795806741
Ti 11.98430479323255 11.422033700993687 6.672636498079615
Ti 15.415762339298604 11.91156066062075 14.384568748875637
Ti 14.238735035197953 11.819729380666239 7.888229686569689
Ti 6.650232760385356 10.865816095384822 13.721544983380294
Ti 8.728068020612165 11.153259086954877 15.714578309182722
Ti 6.8063143333125735 10.954849891690065 10.952926122357148
Ti 9.81698009665595 12.500706748116603 7.805432794851728
Ti 9.3732024963624 12.107051247995305 10.810111340180566
Ti 13.891208304962179 11.96912547810193 12.234473974116796
Ti 11.276216166464042 11.184214711235843 16.80589027080731
Ti 12.268477884234658 13.863202162720416 7.459946722421429
Ti 10.94924928399846 12.15413188234392 14.405221591043322
Ti 15.801964686213427 12.473300120164803 10.068404914139508
Ti 13.207275173893775 11.143347585314762 14.916130927796983
Ti 11.235528239786436 13.266070824107372 12.180655753817177
Ti 12.729387985436087 13.16869118148362 9.944234591906024
Ti 9.899771894593579 13.431101721026735 16.453715385698743
Ti 8.481887637727297 13.301244033461188 14.16687494999088
Ti 7.615039266502071 13.286217705157524 9.579357841997824
Ti 6.910074627834562 13.040223583483018 12.160800108471085
Ti 14.699796791127532 14.315038676219988 8.562317185178166
Ti 10.310376754471624 14.517415050979023 9.582095327093032
Ti 16.08299951450921 13.355409281094543 12.608824692536126
Ti 12.500874512331531 13.466398540983171 16.17060673459226
Ti 8.972317747034252 14.68664324542928 11.913862289697043
Ti 13.404973514014747 13.914212880395983 13.752468671371755
Ti 10.811524627149637 14.890966317498133 14.430834757902595
Ti 12.731914847556602 15.745981273257184 9.280169083705779
Ti 11.801285911538614 15.58465969082823 11.590411644900684
Ti 14.464192238245584 14.880632037533873 11.176481658097533
