45
Energy = -300.68947344 eV
Ti 12.80831238714406 12.499087668642067 6.732851307380892
Ti 13.788334405118286 14.827171132336353 7.885111186226452
Ti 11.401805022822268 14.8208100204822 7.13350181838249
Ti 13.625927273562024 10.360141427262423 8.387221594157019
Ti 14.9438436976037 12.635168279320341 8.747822445493544
Ti 10.01556917002579 12.635913458011867 7.163464324578978
Ti 11.221608236165054 10.272719671338447 7.705486536110956
Ti 12.186217166772341 7.6007225888699645 8.787492415527385
Ti 14.637866032557026 8.181559457807063 9.429393084474139
Ti 8.722652589360658 10.519116840472536 8.150961677694383
Ti 15.783087271515006 10.44228141232829 10.239492917874742
Ti 12.058646284903748 13.155597446425327 9.117035437353023
Ti 14.056282317372595 14.611867673695809 10.50409691328949
Ti 11.973912225133455 15.856606269659943 9.485031237016228
Ti 9.70351114905673 14.64176718857743 9.035364067216708
Ti 12.427657115405408 9.292580846669233 10.721934577656052
Ti 8.088279884830369 12.779380373482901 9.122227260822353
Ti 13.51607424246087 11.745707415311522 11.079670177995276
Ti 9.825835661600436 8.793910100255484 9.816041782212295
Ti 10.313315765816315 11.45409037420309 10.119586730991836
Ti 13.39452886289001 6.745571099694111 11.020146636618652
Ti 14.92628360613243 8.67137856933905 12.041691342955929
Ti 15.85956475142975 12.910283210424835 11.294949684094398
Ti 7.8221121946139425 10.668589996304572 10.73478500807041
Ti 9.07947688569443 13.567164507735436 11.602021133618697
Ti 11.813579862547849 14.176252011571268 11.661882140048965
Ti 15.539670916231252 11.06559164820179 12.831125752501245
Ti 11.30782114171699 11.887107659698982 12.75718651745381
Ti 6.534380357531198 12.565225870080505 12.317431864043447
Ti 12.473234677881573 7.896902556291326 13.289136647215615
Ti 10.82622898273526 7.065913903575663 11.370376279375186
Ti 6.346204934964103 10.03305648640652 12.959258183209132
Ti 13.692412240200564 13.063239921899545 13.329213031114302
Ti 10.379196409022404 9.464854429727092 12.43324037420103
Ti 13.26288549189184 10.310037915814002 13.726827490443892
Ti 8.654956383339574 11.395956705413267 13.201865643947054
Ti 7.967807914998745 13.778874715143155 14.138896936125887
Ti 10.50563457999689 13.906766385685165 14.203718676577399
Ti 8.084813077648686 8.235997710237655 12.268707468121095
Ti 6.708985331034606 11.658784986512314 14.88310482604205
Ti 9.906071096099371 7.459409406017608 13.992164151373387
Ti 11.964351845667915 12.02919619821198 15.328351391358852
Ti 8.205347948674255 9.328590488256205 14.860146547511848
Ti 10.879131292373213 9.67152052886864 15.224308995815194
Ti 9.309381159260917 11.860333287540456 15.708475629511055
