45
Energy = -299.37607585 eV
Ti 12.316965027952893 14.712877213749238 16.205956750792403
Ti 7.944653415681048 12.857524125975273 10.929790451211721
Ti 11.182657758611766 15.881116682855467 14.132215657797518
Ti 7.231351146335427 10.617056200212515 12.097749068104598
Ti 10.286649189710813 16.680578266014294 11.762355593580251
Ti 9.146616249136112 14.67272361437593 12.950099550402332
Ti 9.276529705579474 12.000793380323636 13.271755093975932
Ti 9.851687867784294 13.777350167981105 15.565230560871928
Ti 13.916639946840275 15.260237224688474 14.21195464598607
Ti 9.499448226299522 14.86694137334 9.952468347394337
Ti 6.69306403664841 11.255729508041078 9.3956778913396
Ti 8.20197093940743 10.024627292285745 14.675357998811394
Ti 11.935400872081063 12.452767749310304 16.783819810993872
Ti 13.068707262529227 16.57164823965248 12.010949154110245
Ti 9.152871631988251 12.487388016419336 8.663921045727083
Ti 8.845891521388749 10.257834169736869 10.118578418492643
Ti 11.846592328972651 13.70635258025796 8.851630960218472
Ti 10.519118590401586 10.912321047099464 15.314643514836213
Ti 11.798931529888705 16.19775535099271 9.71612777955961
Ti 11.527738598778553 14.409766789657033 11.657989486607303
Ti 10.64201047984889 12.030688194650024 10.858250358438642
Ti 11.811667874385375 13.047020023922897 14.105286692367452
Ti 14.271799896788663 12.856907595465632 15.295573476344149
Ti 14.126144359861142 14.974520455358265 9.890409639096555
Ti 9.768167832449656 9.380376246367243 12.662787940366066
Ti 13.265218279834894 11.69635141476768 10.501025002311199
Ti 12.120469917868126 10.48166328982894 12.959868455027717
Ti 11.721098294032057 11.235629760047203 8.424519664643013
Ti 14.0026547542968 13.532297604924812 12.30340005828519
Ti 11.522340812186686 8.582091219750035 14.714662869771345
Ti 13.3233970719535 10.437879098296447 15.549507589920509
Ti 11.671053542265414 9.380296866622087 10.296016149187766
Ti 14.535594365097806 12.459771861124603 8.548241922367339
Ti 16.18435819795942 13.244635308999287 10.772800921765729
Ti 15.599445910568388 15.513367051117786 12.003711550339244
Ti 14.689682114997495 11.169233101446729 12.965144141704952
Ti 16.154258222040532 10.655666998867767 14.761639582708112
Ti 12.047818675244633 7.829136936184036 12.383351223690868
Ti 13.887142326289831 9.780742549171855 8.815484474605643
Ti 14.147921654606115 8.577003328268765 13.934562983975143
Ti 16.33177443943354 13.475747570078584 13.662091931899827
Ti 14.214161028001536 8.70416790568314 11.152198329151814
Ti 15.978499177284453 10.614444929609508 10.214672800405992
Ti 17.301085411525516 11.494443233254403 12.3899919534544
Ti 16.353122618207433 9.153269212172418 12.483460159691683
