41
Energy = -270.5969392 eV
Ti 16.471453869786615 10.137195463414148 12.46311023077537
Ti 14.800210490502138 10.057422035344194 14.255017766643773
Ti 16.35249665435282 12.311247389314099 13.816761106157264
Ti 14.397127015985298 12.565334084513696 15.262474198649889
Ti 12.259550743525025 11.780405951358224 16.207096794139815
Ti 14.7356876823878 8.055981666889256 11.654849725800775
Ti 13.362839244235378 9.846085503696933 11.590734413777838
Ti 12.209242858084155 9.929562579037185 14.154392861830926
Ti 16.52922157475206 12.557330243044516 11.212520819584828
Ti 15.888146861238189 10.116007406433443 10.164997209418127
Ti 12.15843622611072 7.750923279894404 10.367735464303726
Ti 12.574381126595094 14.277222699874695 15.47691701661471
Ti 10.184888554462331 10.743510469502887 15.4941816540264
Ti 14.315395161582936 11.990794112663833 12.2382809684905
Ti 11.782317785112467 7.726993019906922 12.791383380132224
Ti 11.89382445067845 12.531324588529321 13.377894428683456
Ti 14.294393793095319 14.385631156984857 13.420717630633193
Ti 9.500837966263736 8.704057027538303 13.73396096158889
Ti 13.656030756625464 9.322198019176875 8.973546516131629
Ti 10.243469827143095 13.417923436321649 15.375576446012072
Ti 9.131902455773979 11.714726216694471 13.464169178421622
Ti 14.51537342481002 12.012627543598585 9.325106771883458
Ti 12.035252836676111 11.877234761379288 10.0978454917519
Ti 10.705841094690753 10.12989580854321 11.894817815782856
Ti 9.604947970863652 7.970015247533928 11.081001329112627
Ti 11.316139778106143 15.121721371711372 13.351935741901682
Ti 7.851006017314882 9.62201533370862 12.180777447524221
Ti 10.921247997370406 9.631688185567775 8.959158179004612
Ti 8.79903777467302 14.460403566071285 13.140269704691146
Ti 12.539804005203953 11.233050138056873 7.582936011658025
Ti 12.898151505985897 14.177271712394687 11.160621637731726
Ti 9.967857050968698 13.350391758172062 10.976799525120223
Ti 7.428138266926535 12.38295482404089 11.74771639140353
Ti 12.770457704151443 13.663317619083376 8.239832639459188
Ti 10.212977324272982 12.54929147224181 8.141778674848325
Ti 8.78388797000312 10.737908010503027 10.02853684667907
Ti 9.912430672421648 16.008819768932405 11.21330510870645
Ti 7.591172301805983 14.891145787170727 10.881752477117388
Ti 11.379710464526598 15.11430201868692 9.20036338447448
Ti 7.717255998512161 12.925273752539058 9.224428379212252
Ti 9.076754613158487 15.00035079425189 8.831865519676349
