48
Energy = -321.34900613 eV
Ti 13.46968216245747 11.517355180448632 15.053456289190594
Ti 13.822736366451805 8.96375402038827 15.410788587977429
Ti 11.458554789023236 10.105606967283775 15.718847045267228
Ti 14.253616776824014 7.540247761343465 13.47536888196011
Ti 11.41226880258248 13.057252199374847 16.414474253452436
Ti 11.837542472481397 7.417023429346249 14.559766160593176
Ti 9.58573140665293 8.865279303782865 14.687745570510591
Ti 13.507873862836261 13.9844750270488 14.896964348498782
Ti 15.0806292827499 10.127135380778803 13.271563325489884
Ti 11.103713206708699 12.717985744487057 13.952666037296762
Ti 9.11280760976015 11.396336098168673 15.22776047807219
Ti 13.2835172132739 12.180394413985942 12.571501578477834
Ti 12.389592168355435 9.475192053112488 13.081537582586257
Ti 9.203201365398371 14.057318329479978 15.400060686323826
Ti 15.553019045504653 13.516929026015317 12.508833648711724
Ti 9.934112440235204 10.682831824189934 12.490297458233277
Ti 12.4508103546379 7.020570126572396 11.750871126354454
Ti 11.290045239624524 15.37932301609218 14.687268092062697
Ti 9.858333442177628 7.843734440590617 12.492181329554429
Ti 13.647920442801553 13.322217350242976 10.484197284986903
Ti 14.701503231406154 8.355372878763557 11.115488775884314
Ti 13.264637630495567 15.04726162035314 12.689884971188354
Ti 9.122144443594543 15.398775248297502 13.093689640962099
Ti 10.39678384042912 11.683531034634173 9.967158268655472
Ti 16.25294832150003 13.542357580151366 9.883673739413057
Ti 8.216200070913473 12.724747978627962 13.269917522310568
Ti 10.921910437224923 14.010452089398681 11.505394626963778
Ti 15.546721151349443 11.1640337830991 10.804559787443486
Ti 7.673204572546754 9.821559394652844 13.211572810987112
Ti 11.294228608695017 16.6485363311868 12.227388712243458
Ti 14.832817872383629 9.490652591428654 8.740767993950842
Ti 10.83798839638003 8.704131137043165 10.397229932936385
Ti 9.587301855495348 16.102583026347176 10.535594168911672
Ti 12.905099485599301 7.987585037302962 9.121838207983062
Ti 12.243280723452491 15.607533869627888 9.850553414435115
Ti 8.324632684701477 13.733391274784001 10.808233729318202
Ti 12.961630669720522 10.436751406938418 10.394861096267727
Ti 14.975479057546723 15.641620180632424 10.79925431059912
Ti 14.437150061452407 14.755460795753585 8.430866358378521
Ti 7.3329307623972255 11.397784721839509 11.218073206887906
Ti 9.790748960461436 14.082666145141943 8.78536904544429
Ti 14.702331952716985 12.037715759036072 8.297603987788374
Ti 8.362137562694553 9.390326618351187 10.35789775514731
Ti 9.88727391371141 9.62342847593394 8.159883499207094
Ti 12.430185830980943 10.42286796953157 7.79732655362526
Ti 12.203551548541407 13.237665537402227 8.229832637684547
Ti 8.102880462675913 11.641102652474832 8.710150858172282
Ti 10.21732758944345 11.919883317579897 7.240524770657601
