40
Energy = -265.97723624 eV
Ti 7.290634823281114 9.39214728603046 11.876438299701869
Ti 8.935109938372474 7.6158428949885435 13.226475343596173
Ti 8.161392087484215 7.447894846172359 10.603678779766096
Ti 8.293901172774596 9.836636489576932 9.331777077639119
Ti 8.63817410572435 10.31693672884051 13.800459027506305
Ti 8.632922813376302 12.959280812039621 13.120091583445978
Ti 8.256572781266398 11.757442166255569 11.059406667367512
Ti 9.042188934481059 12.840781442839297 8.735056063182892
Ti 12.036813431852535 7.630061819285237 12.843701979504546
Ti 8.417898215747005 14.662653591784196 11.032641609190415
Ti 10.328089943241299 6.49788231002318 11.217347407951381
Ti 10.00567074191501 9.173736694493282 11.494572680931023
Ti 10.16239916923545 8.083263511199725 8.879676940271048
Ti 10.575247668230565 10.568914638581871 7.201335958561326
Ti 10.496768005062822 12.709639090019872 14.89034883339797
Ti 10.11257766012217 15.299044774116174 8.998141781209908
Ti 10.171500356890757 14.999275006013486 13.401035964018758
Ti 10.979074637245198 11.299579374749626 12.740320472621203
Ti 10.720091192369727 9.380631104337144 14.52697418077569
Ti 10.85487602941099 10.923712603266479 9.448520970093176
Ti 11.601223844317795 13.256902537852234 8.216774521228047
Ti 12.375054477042985 8.732899297967649 7.938221751769875
Ti 12.839937192754196 10.035966602586972 10.84524560865274
Ti 10.620958083567478 13.444243163878316 10.790591833932067
Ti 12.54981709828278 7.314902868970855 10.198679178199953
Ti 13.082508434254272 9.759002644920784 13.777738121322411
Ti 10.619978921220701 16.21488416343112 11.253486027826987
Ti 13.067597556439136 12.079521448812502 15.089189837729952
Ti 12.254354426105172 14.640875300036482 15.017825221857382
Ti 12.484287608170561 13.272798608213103 12.731834212105673
Ti 13.498708642166186 10.93750778797479 8.068645557250772
Ti 13.408495716141392 12.578700682521749 10.100951463841474
Ti 14.523056031985755 8.682214214930253 9.153697929107098
Ti 12.892727035782436 15.813278881003459 12.63389761691759
Ti 12.662174070227705 15.226283131352 9.939237916602421
Ti 14.54309350268997 8.499678318249936 11.803764917947523
Ti 14.559688703273514 14.03305199681418 14.020878756958473
Ti 14.547318541059026 11.559939373610634 12.635194702171058
Ti 14.781526418164534 14.076352365939305 11.507357265865439
Ti 15.324648625320826 10.79469806337058 10.197844575030494
