40
Energy = -266.39767849 eV
Ti 14.16572715290859 9.958538922095723 7.764716700453774
Ti 12.04239886460147 11.112696478722556 6.546041329987535
Ti 11.900860537469923 8.620605654748687 8.052860965400782
Ti 14.139043760758982 12.389992745769769 7.674217214776582
Ti 13.664329484781023 8.726767934276399 10.084455482515315
Ti 14.742573542199189 11.230113300334125 10.147353330500778
Ti 11.580935129816684 6.567849601193071 10.091678930661548
Ti 9.578198324803022 9.952296162498381 7.781842127802575
Ti 12.146018767854484 11.185147959365292 9.053848131407952
Ti 9.60765717608543 7.404208402545036 8.441339786246374
Ti 14.272954380938188 9.913213636675733 12.77345771953401
Ti 12.86488429532834 7.7041662000573305 12.228687551808507
Ti 14.05219267274289 13.769045950186829 9.85294403212464
Ti 11.906070070356343 13.700570566960934 7.878037484260668
Ti 10.58261760114221 8.826225358754375 10.505387901866046
Ti 8.950316176389403 6.666550797932718 10.667392087564052
Ti 10.464851472870997 7.139312714669973 12.722023227790407
Ti 12.350625325327385 10.558714501482948 11.728782752893329
Ti 14.201405962807732 12.832611918979664 12.433321333449541
Ti 9.798200634070644 12.4130835659057 7.448802452627122
Ti 7.721153335013481 11.915769621209893 9.06069343830663
Ti 11.909792882463341 15.520726781320372 9.736955124709203
Ti 11.65829882473388 13.15704230253362 11.182064365580855
Ti 9.634072846552673 11.375584697989591 10.18315874376995
Ti 11.773462578739066 9.155314004258704 14.137909941990337
Ti 12.450072017680634 11.709858790518995 14.155460922061005
Ti 13.296553654894897 15.305785426514433 11.77918071003355
Ti 9.652520623284799 14.122198826250377 9.457035290322157
Ti 7.856077330639204 9.04885090863208 9.741241377110756
Ti 7.846326718542512 8.310527677628942 12.302253476856775
Ti 9.661881711846132 10.411685546038475 12.772615996990456
Ti 9.272059374223515 8.407755882339375 14.665779482633464
Ti 12.316646067847595 14.314526947450526 13.726920293844833
Ti 10.18100025574281 12.988543933219717 13.471255861541366
Ti 10.563689381128182 15.370178866589603 11.9752354935964
Ti 8.312146879595971 13.27509843747739 11.566622933055367
Ti 9.68685830208977 10.902908633756589 15.32100202045598
Ti 7.057942859528293 10.882709342958155 11.723985269626164
Ti 7.365221661025539 9.933818929547197 14.257018513801263
Ti 7.818798879499343 12.265839588934968 13.952857718366351
