40
Energy = -266.5475262 eV
Ti 10.105606142379083 12.358138971755231 15.042303388520669
Ti 7.710092985153653 11.4000763739353 14.369874764597558
Ti 8.397467197876773 13.7199996064957 13.445859638505535
Ti 11.900097443377001 10.265057346861031 15.236485934469982
Ti 12.795648207480996 12.492802020947034 14.468402737081163
Ti 9.637814445423643 9.54849501500916 14.570789190458424
Ti 11.10711061368443 13.964063504021064 12.947725730381418
Ti 7.064258849482037 11.97147973464688 11.75384183598874
Ti 9.616417065657913 11.587774330485637 12.491239186860042
Ti 11.822349432303804 8.11142016688658 13.605330748578114
Ti 7.598018013959286 9.392126263572024 12.710322237478271
Ti 14.112400650262435 10.098546374696502 13.744089218501063
Ti 10.981254440336906 15.554910425104664 10.623002299231342
Ti 13.317593613944839 15.005067349926028 11.377631865566029
Ti 12.149632266051976 10.738591872386436 12.452600051617749
Ti 8.983418052398775 13.884969585766315 10.93703717042865
Ti 14.19297937919431 12.719283588664073 12.43500823629748
Ti 9.335614951468383 7.358792207145846 13.24964115185145
Ti 11.723822592062412 12.964524507341352 10.554527878755602
Ti 10.361085634667653 9.029014199124655 11.279098105988039
Ti 8.199009238697416 7.346491589256569 11.041077120755459
Ti 7.366808763136502 9.743082228988957 10.093701991777797
Ti 9.723225199670779 11.254141223631782 9.623743516717377
Ti 12.726973087340097 14.75502229175933 8.790069812428115
Ti 7.67391438717218 12.4855948138017 8.910304664998083
Ti 10.131577426821547 14.05942564037636 8.49857709581399
Ti 14.372150411440744 12.975055016610307 9.866746334126253
Ti 14.871051751960131 10.502080140619743 11.012715743849025
Ti 8.122778598468464 10.117468018088449 7.730509014755239
Ti 13.219755964862514 8.308266009229223 11.438631031118437
Ti 10.808939641362272 6.603183740096395 11.11724040758873
Ti 9.327175029644753 7.9730782823462985 8.907738102204947
Ti 12.252788990018388 12.238498504532057 7.764052147548406
Ti 12.486742606991463 10.297850023740168 9.560222463308097
Ti 9.670692823251338 11.986474912768044 6.999659966871703
Ti 10.711138275359303 9.553507359179141 7.304116864566273
Ti 14.826560583026192 11.025699013469916 8.25306418395115
Ti 14.520091495390595 8.6085161109226 9.147437077964778
Ti 12.083320357912557 7.678244332854078 8.800402674004857
Ti 13.221444215846235 9.552008128498723 7.073999240034225
