48
Energy = -320.98615611 eV
Ti 10.867180952594724 7.086624440302427 11.995240995308942
Ti 13.30954826535403 7.917387146163319 13.010223031878574
Ti 10.428004267136837 9.979409334463751 16.36650671190117
Ti 10.864257713474426 8.54657161449726 14.165559645891998
Ti 16.22349122766264 9.09866971367743 12.816027242271538
Ti 8.701538517199413 10.360170708175994 14.550742049879771
Ti 12.907430616064076 9.531021110704295 15.60753621488976
Ti 12.618054763093227 7.339987727987631 10.322661231146084
Ti 10.203834426458078 8.327124783719936 9.749565811025638
Ti 9.008696989627948 8.900299863438665 12.092481851495833
Ti 12.056451338854847 11.793092626506931 16.900468232904274
Ti 14.376653307741272 9.120180476313728 10.650852031990437
Ti 11.638767786856894 9.681236460195374 11.560768703506195
Ti 9.713949833893729 12.48318130865321 16.023041868752756
Ti 15.559536133797028 9.730320807146398 15.061307636765108
Ti 11.416020864725862 11.392272981512052 14.201384615965692
Ti 7.13958729597457 12.422837107843938 14.005191140439308
Ti 13.959284185694308 10.474870885264696 13.086093179566346
Ti 14.942573046087523 11.20496009185926 8.713423675248022
Ti 14.09030779248427 11.992578065236073 15.30587931256695
Ti 12.464604950407985 9.676357660291776 8.894886611557554
Ti 16.238702558839996 10.824082088755834 11.029766432831584
Ti 7.74425331064263 10.358571938960461 10.182983444582982
Ti 6.785542640738939 10.131036863564265 12.668480063841105
Ti 8.917211150029086 11.762974392158267 12.123717785405763
Ti 16.254243597158247 11.760616788112065 13.466921146327518
Ti 13.28553410812332 11.683891394239328 10.545919363607279
Ti 6.244832241949716 12.19559703472856 11.431424664969022
Ti 10.346959548227261 11.14462604834197 9.575983229074607
Ti 15.722204375978313 13.213402696650752 11.07842508589823
Ti 11.990158013346168 13.862384418784654 15.170112615472876
Ti 12.687953657055093 12.45412320849038 7.9896642415241015
Ti 11.208626980558448 12.895817854785546 11.674142130064872
Ti 9.701652144693899 13.81851502074008 13.759360871039517
Ti 8.153580216338609 13.053538616553634 9.8386472101138
Ti 7.466071258037664 14.192843842934598 12.203483118785856
Ti 13.543016577271466 13.136482468085987 12.956342791061173
Ti 15.002307116932936 13.966282588679045 8.285313224710928
Ti 13.365197965683503 14.522480167750139 10.321521585482182
Ti 14.807589906606973 15.235062163651207 12.737417798625843
Ti 10.758891028211861 13.964578549743962 9.075019910379286
Ti 9.578220673129598 14.950551356210125 11.158782612758813
Ti 11.946066910264188 15.411042707751012 12.460849171562506
Ti 15.853402093808104 15.633319128917188 10.36578933082492
Ti 12.605867612815024 15.035693580516984 7.663382531900446
Ti 11.661333218117342 16.48373782420599 9.668668260426504
Ti 13.726947245522048 17.033309452832217 11.218180251835085
Ti 14.19294644060964 16.581766795464894 8.726649644234774
