41
Energy = -272.59104577 eV
Ti 15.11783518203158 11.612994019102967 9.452662472445018
Ti 15.129972010508515 11.036832135429185 12.179559883057696
Ti 15.182791155003445 8.549155678810367 12.823629301780342
Ti 15.302758354546025 8.943206184252906 10.254033479900574
Ti 14.301045195951893 9.71805501953797 7.834467388085693
Ti 13.259266000562326 12.748994115788525 10.901371358558878
Ti 13.208493825791187 14.608790433667485 8.984345957470792
Ti 13.956838598651075 10.078522772529054 14.71768357986446
Ti 12.865292213274685 11.98976653203862 7.953919978323641
Ti 13.168874192802289 12.335245831876417 13.439770421640615
Ti 13.449772339798669 7.205445316073973 11.341625125884201
Ti 12.962997699311078 10.184304677983864 10.056049564989703
Ti 13.308047247990963 7.458464240753159 13.995547563173725
Ti 11.878131755737451 14.990686977537118 11.284348055808891
Ti 13.212112398608824 7.7437547628464625 8.88850259199196
Ti 12.696222645410261 9.690518441539325 12.614181758162015
Ti 11.474512592946182 14.166466776358147 7.005174453991681
Ti 9.955005513110363 11.849092433281063 7.1918341035419955
Ti 10.790415246783667 15.797864593539796 8.983550084542596
Ti 10.967992769455003 13.281339180347816 9.439474960126079
Ti 11.492273182148326 8.744678943217405 14.984323207688314
Ti 10.185703626657574 9.919753259114911 12.407724617772963
Ti 11.528472265606876 9.53618172926526 7.88974775752821
Ti 11.304465339295076 11.18633589805563 14.719652464760147
Ti 9.018414427149132 14.289682029624414 7.853467783795942
Ti 10.430609539323662 10.936337368976304 9.912443797525519
Ti 10.73603451257354 12.669544733599965 12.376495355496493
Ti 10.909440298315538 7.3232971665010185 12.7600087974276
Ti 10.883882577333958 8.222780870672393 10.186703021949022
Ti 9.01494070114462 14.357184368007173 10.695004640430911
Ti 7.906667951875735 12.166415927234132 8.780061485459496
Ti 8.407004618790424 11.760091379622827 11.467645220863966
Ti 8.267033747951507 8.408476751872621 11.28498463143184
Ti 8.968605624895376 8.695737287321805 14.178161613107413
Ti 8.578956941621424 9.597978941968686 8.884209687881965
Ti 8.114841283343807 13.807046101758276 13.056805040540707
Ti 8.434988994974876 11.420665050876877 14.35659440461082
Ti 6.5404008278650405 13.385823067428733 10.842848325398558
Ti 6.430873168356497 10.460102143013723 10.557340736263694
Ti 6.983380257284236 9.683852814450828 13.03884412552884
Ti 6.228003468834433 11.991904337741031 12.97857149481368
