45
Energy = -300.82853584 eV
Ti 10.775709860350382 16.20353521777494 9.4272122864067
Ti 12.966117106643988 16.044500772316045 10.892430472540186
Ti 12.463678344692239 14.300260113609426 8.62665042878699
Ti 10.508009152717431 16.513263584789875 11.89001365574706
Ti 14.839380254557652 15.393617378227331 12.490243311189479
Ti 12.29853952581574 15.782915474179953 13.5838866767207
Ti 9.647450950000703 14.309705374946528 8.132901271359907
Ti 8.640084707622037 15.07786967067309 10.623101631350602
Ti 14.594488127757945 13.661386714761072 10.359903014240633
Ti 11.044464786429687 14.055474086952017 11.009682478462276
Ti 13.109743945108173 13.47798945104065 12.601001170356984
Ti 14.235569123200055 14.366070401489745 14.760853078551424
Ti 11.309159981491694 12.460855446720132 7.341128886541196
Ti 9.753675198411921 14.437828929953216 13.369695569830908
Ti 13.84958583802452 11.565187992629896 8.158382169460317
Ti 15.69723312503249 12.921292269850632 12.914124605656069
Ti 7.419073246563496 13.324718842652313 9.234348179289537
Ti 11.658308051922187 13.335306025659785 14.878592511056913
Ti 15.25199991433805 11.083014884957768 10.76296277261959
Ti 8.64487638456004 11.595190821911833 7.521698592300334
Ti 12.471203116594204 11.812697850506162 10.017300829583492
Ti 9.698745278338711 12.024310711737275 9.706180633472307
Ti 11.09788349478602 10.147902493804123 8.05960364991392
Ti 15.78815120275187 10.360193108915452 13.33583947716881
Ti 13.332961860171004 10.866429411071772 12.529954757360809
Ti 10.603725551779165 9.87422451679022 10.827648305357116
Ti 7.244437228921523 10.969791386498226 9.897931262368433
Ti 10.55612973413486 11.728068928607916 12.76698736420819
Ti 7.973466994688211 12.741176404186952 11.887543731224325
Ti 14.188693107958269 11.829836003618896 14.976094122023149
Ti 9.023212492030124 11.819582435562982 14.541238367941977
Ti 13.282377492188761 9.200062133617982 10.026206595260257
Ti 11.723540531213914 10.55384630502658 14.996435203618029
Ti 11.061012810142643 7.796579368632317 9.307847905039692
Ti 14.030016352255569 8.973642033423578 14.642258498813877
Ti 8.224339988816471 10.115091960059592 12.133366127281795
Ti 8.823324189161696 9.145110936490903 9.041944125798539
Ti 14.6248532464954 8.354524442738919 12.047760002458045
Ti 11.967483488472029 8.717800457471435 12.739126653807137
Ti 9.488395147238974 7.4819186719973825 11.45792194142154
Ti 9.574992055785275 9.043507005687177 13.905299761356712
Ti 12.147066334845642 6.6004329076348105 11.248905891286675
Ti 11.630943873138921 7.9725346615029675 15.313615351553352
Ti 13.238880495447376 6.6161921741347305 13.698878247409194
Ti 10.654903543205016 6.502447470986367 13.47318566760612
