41
Energy = -272.28034654 eV
Ti 12.776450357785842 9.472800118731918 14.222159195291944
Ti 15.466027224832816 13.083011723342196 11.588419007263958
Ti 8.192172872249564 12.771838749090733 11.590279914478753
Ti 14.585035012081049 13.495257775042083 13.777673098882811
Ti 11.621358157965863 8.8492338889472 12.000811396487437
Ti 11.641352993381178 16.692907620190272 13.332251275233208
Ti 12.729098370881216 13.231970259268337 10.791380571415468
Ti 7.4130083606873285 10.547900074256992 10.691871468554233
Ti 9.003882344487385 8.705839637791117 11.64945249297155
Ti 12.844248660604695 15.007347364707279 15.109061920129845
Ti 12.809398285927696 11.369614053833425 7.013659667840673
Ti 8.600998950993588 9.399285337592614 8.976521086674943
Ti 15.400749596310634 10.987929204353424 13.43522009647732
Ti 10.206331753150716 10.954381246745054 10.550954432429215
Ti 10.146846646060576 13.660565771739313 10.716905400172424
Ti 14.91221985701519 8.388549472964119 9.163145884465944
Ti 10.136870420251539 15.504260299452085 14.914550566597383
Ti 7.971100814386921 10.645532047272889 13.230593182959437
Ti 8.651091497065863 12.11178928761757 8.839988617643726
Ti 9.920036248061377 9.033275385579266 14.336968556558325
Ti 11.36129913694818 12.878150880150784 8.445878602968925
Ti 12.854974714423554 10.249509666640378 9.562914790871684
Ti 15.460200069500862 10.810636654095987 10.528296765251506
Ti 10.684791928914155 8.176741152566818 9.162554711952875
Ti 11.606582109733829 15.692101539891292 10.940794692807577
Ti 11.34790668981127 10.583910708698534 15.999323148715709
Ti 14.950977043273737 10.472566182573686 7.861924382528806
Ti 9.373463959314222 15.609091879899223 12.422993460380146
Ti 11.53035970905045 13.99057813506772 13.175360785799137
Ti 13.758011972581405 15.432092603906767 12.372250987813409
Ti 14.252883691688133 12.70383458399978 8.864031605682316
Ti 10.517998793198773 10.388153605416623 7.619286959252486
Ti 8.753530208487543 13.455451524722616 14.122321637299978
Ti 12.836370930844987 8.69860984961909 7.471705743232778
Ti 14.246152558238391 8.824725416798106 11.723970041950865
Ti 13.286884897212367 11.267788278531864 12.296935826394174
Ti 13.231601345050269 12.056912074848269 15.153366964391392
Ti 12.784173128100065 7.487186671899324 10.010175847784545
Ti 9.022443669491517 11.256053173762382 15.495750092446151
Ti 10.708938125053558 11.26029934617305 13.351362549882788
Ti 10.805198128473931 13.195337985792472 15.88995380363749
