47
Energy = -313.89640403 eV
Ti 15.990202280028253 12.385896142093786 11.617461937134726
Ti 14.617654161301578 13.861072477374513 9.622725938799011
Ti 14.423191218578774 14.514669395963098 12.033758190370422
Ti 15.133938325509856 11.261897822651619 9.31464617475308
Ti 16.19039640892783 10.587579559919682 13.606390935462729
Ti 14.587422291939541 12.617459852689155 13.983245630037674
Ti 15.518164466601135 9.660594900844037 11.354261628677905
Ti 12.080963004950432 14.559116244489276 10.65025306651398
Ti 13.29768528057405 12.099507522988509 11.182104899727907
Ti 11.56583468992802 14.659867851100511 8.006231982433132
Ti 12.853045849403129 12.212211536263169 8.498455312856505
Ti 14.626314366551929 10.475468924691537 15.544723354692575
Ti 13.037356696665004 9.625799565298173 9.8449938563537
Ti 12.230186927891681 13.758358929348908 13.250726917714774
Ti 13.291694616180314 9.995848550225682 13.15743808023899
Ti 15.024421501611641 8.205205883163504 13.953135268522587
Ti 9.631361726353774 15.429275200533997 9.687903148317803
Ti 11.63090170473718 9.981553092783965 7.314836004420206
Ti 12.111499025158645 11.54597316892926 15.073282701484787
Ti 11.099560708191284 12.665815239532025 6.5621107831179195
Ti 10.18031909465109 12.73487289485364 9.320272552615794
Ti 13.950864940468206 7.600267684367348 11.447556223477488
Ti 10.506066860277588 16.004053817300356 12.833318850845355
Ti 7.8609995570884 15.84105325453901 11.75122629234916
Ti 9.226569653142986 11.161325184354594 6.966576954912882
Ti 11.615075572471168 7.685024634946657 8.691162741423927
Ti 10.483076898939105 14.118690097953777 14.839869805257687
Ti 8.905060886264481 13.905054215449892 7.438880164869534
Ti 9.550665858902521 13.801075824656724 12.001829330459381
Ti 10.221966541107793 10.166879515923023 9.650776077824199
Ti 12.883796869753347 8.82069970736257 15.622332230140406
Ti 8.265337638915785 14.941711922241394 14.122745422891533
Ti 7.534803486508614 13.904655885882786 9.976024929090038
Ti 11.705422940282856 6.329699751007373 11.063564001310834
Ti 10.82467741379872 11.375572906619563 12.49069033456433
Ti 12.374701983734147 7.279715303555631 13.531946130233548
Ti 10.937889444834463 8.777391380123317 11.653899495535565
Ti 9.163651997744324 8.63815532812504 7.880278026386157
Ti 7.746876778232634 11.161909195740341 8.860068585452353
Ti 8.210628242569525 11.448218546870685 11.338813082941508
Ti 6.863901143935762 13.483678623635544 12.521781925188296
Ti 8.840127484351937 12.165955893098898 14.103410170464766
Ti 9.530815243962255 6.923213505869404 9.89914518929389
Ti 10.640119568453013 9.291964431157814 14.31961106095189
Ti 7.988669627713375 8.68454860168465 10.666210380055984
Ti 8.470775302705063 9.551659365630426 13.02231062445833
Ti 9.51086774924062 7.035304697300553 12.662537636509205
