40
Energy = -265.16710019 eV
Ti 8.581422902950075 12.935205829619292 9.678114043790426
Ti 11.707197566596967 15.789365634599758 12.693016393666554
Ti 9.798828246317958 14.905995042961765 11.478699538889403
Ti 6.658901759855044 11.886779681042244 11.027966783870301
Ti 8.189010532829558 13.36260388399803 12.516808381385502
Ti 12.17083800939761 15.782455793698917 10.21575209000269
Ti 7.8149097192085435 10.436988700414998 9.194128466133149
Ti 10.154685834966074 14.526381100965194 14.281062669481107
Ti 10.318493328544777 10.73492128791096 8.957787090877964
Ti 11.049627029961794 12.771766927566697 10.450661738539244
Ti 12.623763788941806 13.863877714133883 8.531542095696208
Ti 12.849926086118527 14.457023282009134 14.55548885241269
Ti 14.257781303923194 15.888146268173466 12.126706273843297
Ti 9.14572961411726 10.861972663845718 11.607990967181037
Ti 8.938271266244715 12.369404572977581 14.775589479858473
Ti 11.342446883073668 12.42215475872292 13.16704711097446
Ti 14.608025030153613 15.36453161840885 9.532861634566887
Ti 6.832763650049994 9.348047680393528 11.230167169374859
Ti 7.268587769133967 10.795513757236 13.451901642720332
Ti 11.765641463587732 10.295633511109175 11.321199185096509
Ti 15.144649557337557 13.888369769552737 13.640435405072424
Ti 16.107864108765455 13.89332379097722 11.247349953358729
Ti 15.052937733567962 13.041453051722183 8.871397634523685
Ti 13.3845210504866 13.621867676450794 11.230764892642812
Ti 11.391406922959689 12.30903885980105 15.65009141922204
Ti 9.209709813362283 8.428862514430554 10.275750163686784
Ti 9.860003298454137 10.048755969769852 14.34324467874234
Ti 8.377005310703483 8.4475694584735 12.865640412558738
Ti 13.137502221164555 11.316099660864849 9.195433425426002
Ti 10.797845847303513 8.051877948865753 12.40258163577424
Ti 11.904065662222331 8.327503895436427 9.846083036701625
Ti 14.114250873368944 11.14345951017505 11.95676829503498
Ti 13.993919056166888 11.962009937533939 14.70561940429583
Ti 16.19875223870716 11.321573036215481 10.333538722332007
Ti 16.39252411083863 11.652095103638294 13.063339686719798
Ti 12.344491779839526 9.89010786191322 14.028145067075956
Ti 14.48908216463006 9.241444214327732 9.894246342143271
Ti 14.895106281951147 9.576280717250489 14.096297802881638
Ti 13.539832862661118 8.22136246646811 12.10344293484454
Ti 16.023301290706772 9.253798817514776 11.890961449771382
