48
Energy = -321.49375926 eV
Ti 15.683400439169459 15.738973948426061 11.976970681972352
Ti 15.53400230546993 14.527111492814223 14.32245659342932
Ti 16.490484322515194 12.564449874407869 13.234681388914142
Ti 15.083144947929384 13.211183614357537 11.1144843175151
Ti 16.257373469818564 10.835832075887476 10.712261995834977
Ti 14.272935849293502 15.343977621698906 9.78571121567428
Ti 13.79854103159049 17.415940672412834 11.267942799354126
Ti 13.912591732691933 16.78962601004842 13.944536396197245
Ti 14.585330786680297 12.071621151993586 15.390786432380226
Ti 15.27866180112753 10.357549186857659 13.232687788502677
Ti 14.778915052922036 12.054010227635688 8.917352414814866
Ti 13.033406023294756 15.06621830728247 12.230512743529255
Ti 13.48132443319496 14.557414472864311 15.48220268919282
Ti 15.35478775163164 8.5928038638542 11.237094960804004
Ti 13.65044463779839 12.706654445923688 13.292489868166749
Ti 13.416756782014847 10.628764190332467 10.99517592635739
Ti 12.485907937460983 13.367867602875465 9.887607360374338
Ti 14.710367671255606 9.474492275952903 8.892076456269299
Ti 11.679623505159487 17.362936059496135 12.58882805266221
Ti 11.700519341755045 16.10146432470309 10.122681443223449
Ti 12.676143038362389 10.33481266231401 14.075766277590814
Ti 11.4139344586058 15.534064491681857 14.464646107027443
Ti 11.565430474739875 12.621035751604651 15.20166383620774
Ti 12.478645645122871 11.115544057258871 8.346899447901045
Ti 12.987103508038901 7.844610685624155 10.325264321211918
Ti 10.480824952920388 13.06401992611439 8.013980809571605
Ti 10.271951270865738 11.427779850198212 10.143842168059475
Ti 10.749683357241695 10.064040262396214 15.90441405583491
Ti 13.241926844989118 8.261235260110103 12.844483337701421
Ti 9.599257478648655 14.197486947801137 9.89549317944653
Ti 9.944261380625097 15.553830568944495 12.21831383563565
Ti 11.229380013236064 6.60485057757127 12.138446987493657
Ti 8.967086486057575 11.661494074101077 15.887056611172074
Ti 11.101090053864358 13.043340802486549 12.229892213777337
Ti 9.208038120892166 13.730395822993835 14.174127521394812
Ti 8.062292226836316 11.87872818940971 9.136759273475482
Ti 10.061253956901762 11.086319822362016 13.510458223126909
Ti 10.958918230535156 9.179118138140186 11.556544049430858
Ti 11.299591914547864 8.847941450865433 8.502784078371636
Ti 10.744698900622591 8.094569703393706 14.13937477887234
Ti 10.318369977760106 7.0871521607559425 9.922933414454683
Ti 9.860030908425886 10.622849132570936 7.600762073117818
Ti 8.38232833621776 13.059804245319446 11.710222071995041
Ti 8.813303094989596 7.834214701888661 12.074564982834012
Ti 7.441840868071884 11.747473116779297 13.836651248639939
Ti 8.421777499408464 9.358854884696436 14.470256081185147
Ti 7.925596791887863 10.396020725244718 11.665294769795471
Ti 8.719795436879027 9.092595617617727 9.49363776957307
