44
Energy = -291.23052031 eV
Ti 11.999715833769438 11.086026184977843 17.323716039883784
Ti 10.096564935612658 12.517016078095669 16.647073596541585
Ti 14.206529783769367 11.612534182336171 16.399410749786334
Ti 10.422433792515848 14.524545049293797 14.93011706814338
Ti 10.308713783646164 10.060323846790997 15.671761022684992
Ti 12.505064266503506 13.702622234248844 16.694255107347207
Ti 12.90572014762847 9.484995948588404 15.323442369126838
Ti 9.184872389055847 11.887460614289974 14.245854767409504
Ti 8.906549645808136 13.89384142874768 12.713695444785971
Ti 14.40104084926782 13.44504914614095 14.623622746649101
Ti 11.991080200623177 12.065800562646615 14.703527913618235
Ti 8.198031499424358 9.616508642782449 12.99719071397113
Ti 11.696726172722759 13.755783165862589 12.400189500535737
Ti 7.1406503462514515 11.739647775001366 12.58355498102827
Ti 10.96873585414647 9.461174280177419 13.209501708397923
Ti 12.686404547021901 15.413906650956903 14.397991297806428
Ti 14.940216940781356 10.738478424911413 14.144708094826935
Ti 7.474771765571772 12.962422450489475 10.493328566368161
Ti 9.77054601281347 14.259748547601589 10.268451900218938
Ti 9.664480820137793 11.388642014039158 11.449804926819516
Ti 15.827766477292867 15.41646532791446 13.574398011768029
Ti 10.75346353793467 16.031519030663897 12.524124686456853
Ti 13.623242280627723 15.913523204194531 11.984895896398415
Ti 18.035633194996265 14.73863116376372 12.24337244092886
Ti 14.44474732798675 13.231766768232635 12.039816997776672
Ti 9.39279937208869 8.591125044209326 11.0923248858619
Ti 13.03484878043258 11.035566896901209 12.283328791000548
Ti 11.797772559713076 15.485991108710058 10.045974867105336
Ti 7.552067781907025 10.302959114758298 10.31522268233072
Ti 13.841719291431222 14.600396157885982 9.538105047671902
Ti 13.657209570529767 8.692289443512133 12.71504053256539
Ti 16.788543259826255 12.882135821525408 13.385262606905902
Ti 9.129101249192004 12.215131755686379 8.79949190743596
Ti 11.900259218402399 12.137178270574676 10.133203805590133
Ti 15.91801684295225 10.723831177881154 11.610212030285256
Ti 11.816824264216137 9.228595275714184 10.492503862741124
Ti 15.991198573658348 15.240939394866132 10.974794037681331
Ti 10.0425857023252 10.06139653968731 8.970877500970376
Ti 14.640751455430184 12.281252482302158 9.59140157683793
Ti 11.694652162774819 13.439669446242473 8.200473240804062
Ti 12.90755144942042 10.614139963524448 8.230023744411062
Ti 17.131705897748756 12.779420445598012 10.64668319402832
Ti 14.204573583779696 9.512134924482659 10.174681306482125
Ti 15.91238022622023 10.747333682047598 8.724908921313705
