44
Energy = -292.79676141 eV
Ti 7.377267128823572 11.92223788984279 13.891455644038553
Ti 7.368684351337771 9.508571164971361 13.149814248339629
Ti 6.737433109665494 11.676771789127981 11.422417197427098
Ti 8.988930870041054 13.219495395983996 15.41160243498934
Ti 7.400785567938595 9.376162874733042 10.438861853946412
Ti 8.517489420359905 13.953113792307253 12.619052658945064
Ti 10.188821150516285 8.374762996726037 13.802892226676658
Ti 9.168605104243484 10.493001957010616 15.12289611770675
Ti 11.037682147657135 11.75618940823655 16.438126903399187
Ti 8.496930008714271 13.490401246888995 10.236607857152098
Ti 11.977428115251936 9.820349561903276 15.077926985701824
Ti 10.333180510047375 15.124631533093979 13.716082084675996
Ti 8.851054856598747 7.964890885805241 11.703783689455863
Ti 9.16754110248355 10.960956098799121 11.847090309662027
Ti 8.511301753695225 11.38815062341689 9.074686331184024
Ti 10.241185911082983 15.573903145049133 10.646361234413776
Ti 11.418735409724926 14.06974291414832 15.890664121517155
Ti 10.159425116135901 9.105059700496563 9.66399947866254
Ti 10.880871067171881 12.36103860108182 13.79199542858907
Ti 11.183059553933546 7.380079088546841 11.552609459296495
Ti 11.797856796553365 10.032344922273696 12.216910015069304
Ti 10.974925550721117 11.50817626583607 9.910202070059915
Ti 12.811947744103586 14.498854206973581 13.804439750026328
Ti 12.971470098511505 7.964702180059788 13.178293261817755
Ti 14.848768971288573 9.55526283893299 11.537523475197995
Ti 10.773709131679889 11.024325946500506 7.246995674693029
Ti 11.147397149668164 13.617082921786126 11.43013894954532
Ti 10.38242196614126 13.61286870247793 8.45055263941269
Ti 13.417112304781678 12.298329799053072 14.941299537588199
Ti 13.516635889567976 12.398101134340818 12.049998338130672
Ti 14.328814288601905 10.115905349282555 13.90915592511443
Ti 13.400577610336056 11.322035822446285 9.432894720535032
Ti 12.536770231585354 13.01153582361935 7.212326948968306
Ti 12.346712880740894 9.059372214313203 7.944814989780494
Ti 13.011474622533763 8.651461736814106 10.24005167902266
Ti 15.27996568926251 13.99196644116865 13.23910349385172
Ti 13.010806330420008 14.166902041730475 9.393869347891677
Ti 13.50351384759446 15.184884992231835 11.57075760662475
Ti 13.418845429965403 10.84920162285853 6.589338911434937
Ti 16.05218200208249 11.69822038821401 12.507130291163227
Ti 16.154654622764422 11.292401400457358 10.02320708905129
Ti 14.953681991583412 9.615396279309389 8.392338716129613
Ti 15.058666581965488 12.54181020462565 7.927235121134197
Ti 15.518951547408031 13.678870967827713 10.565715909307796
