43
Energy = -285.57421993 eV
Ti 14.606583103414165 14.962070374617113 8.687261239918886
Ti 15.680282890776585 13.7998664377892 10.745367934774833
Ti 13.54141838430845 15.377688541848485 11.120343877611736
Ti 12.200463357416352 15.561945382193004 8.574124435344674
Ti 15.218752313013473 12.54718273021913 8.364165679027483
Ti 12.83738222531277 13.07594093908542 9.734948518641973
Ti 13.057258610268743 13.616191445932467 7.085522574953103
Ti 14.7607435994107 14.254233025557037 13.256915513547838
Ti 10.92127445134989 15.21561623529713 10.65291235297709
Ti 16.595659687674456 12.4969245517869 12.695240812650384
Ti 10.472570770859626 13.614549457685804 8.230205790461474
Ti 13.534902416565552 11.143340705962805 7.206568762395209
Ti 10.1311535284486 12.473682493847981 10.855752980570774
Ti 13.431586512904095 10.184120013938049 9.489828406497075
Ti 8.530281686148715 14.354772670721212 9.740875627807037
Ti 15.913585260616214 10.955167780463233 10.565188579655064
Ti 11.648582331400462 13.841219280544271 12.738183410525075
Ti 11.14489643407796 11.253694996786358 8.42249851070984
Ti 12.859032272088303 13.550942339253442 14.965780603766039
Ti 13.838903280173454 9.483080734525126 14.418571174957872
Ti 14.051448154638445 9.035958231311838 11.728112857692524
Ti 7.433483437435084 8.830928616075798 13.459216783821445
Ti 9.561505939887947 8.015102326531583 14.342749587638721
Ti 8.64456172039794 10.35260637013538 15.36851690861485
Ti 7.016214033967566 11.309652132922087 13.492219102726018
Ti 9.332337198081047 8.004133383322525 11.660139062678553
Ti 9.495121632495385 10.403909964613273 12.878371320966728
Ti 7.495310342010751 10.052281294604825 11.061290228180104
Ti 11.182758529684778 9.533273554642484 15.722532327967272
Ti 10.60198363591481 12.174967021381427 15.885417587067614
Ti 11.733664684875306 8.200557206116118 13.16397663668447
Ti 7.417188115238618 12.735013304932716 11.412714451453066
Ti 9.681552618200527 9.452313183420632 9.596192348269668
Ti 9.004623663866381 14.704608248123101 12.230741269906193
Ti 11.726503108849021 10.3471168800865 11.337196874868736
Ti 8.929494909540647 12.997734974347223 13.840352261405116
Ti 11.82097734040484 7.9558353735961855 10.451702935250712
Ti 11.889816639286192 11.286090077422449 13.788786076918262
Ti 8.403308858807819 11.738385209350636 9.035423950611385
Ti 12.950981746326894 11.31300578284779 16.241339715112225
Ti 15.006596183868663 11.983203971794158 14.784599472080306
Ti 15.944811099304596 10.152582957787953 13.096030970147888
Ti 14.01736754179331 11.925434047685666 12.139044734251085
