44
Energy = -293.57017115 eV
Ti 17.35025141172866 11.066871134275559 14.131203532626778
Ti 17.264025950203376 13.639780549322372 13.845062840311883
Ti 17.60528677178468 12.083496099463698 11.807650596273142
Ti 15.643007089471908 12.438130060909021 15.639676466694075
Ti 16.134165913468433 9.846316326386193 12.048834098002736
Ti 16.093524515978718 14.361542515643713 11.529002415400033
Ti 15.23495652312792 9.780096261049293 14.744661882576581
Ti 14.909930390084043 14.939914171083279 13.856383041537175
Ti 15.155178977157219 12.202998974756568 13.10149731876821
Ti 15.559606921384177 12.093889512555132 10.256866038255515
Ti 13.552778043484699 11.237534972854107 16.22384993012513
Ti 14.000678698986976 8.460849705123602 12.568756509150203
Ti 14.556912733328184 9.321201605227195 9.715608237351695
Ti 14.102845138606472 16.130528644219677 11.497970292661055
Ti 12.893392193054051 13.566896890626081 14.91425401922128
Ti 12.561266627789628 8.950297208508319 15.184905921510847
Ti 13.942030268903043 14.28155128698901 9.40373608719693
Ti 13.201947746571932 10.81867166246331 11.137013272446147
Ti 12.762161109586726 10.878658589905859 13.678951099685058
Ti 11.065456587477788 11.745017612452012 15.590252846888971
Ti 13.395364218387241 13.709488085077865 11.955715162365602
Ti 13.800181337270889 11.755480207455834 8.514113498952982
Ti 11.016245537884561 12.844440109448511 12.977814871932212
Ti 11.462569299981658 12.693937239556051 10.15696499926948
Ti 11.43824953199357 8.419369297464236 12.814251100500272
Ti 12.109997123600843 15.717589718690075 13.280782719146105
Ti 11.832197916558874 15.458106614091365 10.499719820232828
Ti 11.612771497629357 13.282643001531005 7.911023680770248
Ti 10.123539539945602 10.130517614895055 14.072281179472393
Ti 10.360607017048249 10.202459231700738 11.171283524749326
Ti 11.919978517535792 10.271366984121672 8.80039503793475
Ti 10.120340892789338 14.357996700630107 14.781074178546067
Ti 12.28026359453403 8.314009577376769 10.49765132749185
Ti 9.738777280402548 15.270164042794066 12.037451935164762
Ti 9.235914253776839 14.267792473466317 9.525016898188511
Ti 9.313914278550985 11.662715882952675 8.888336585142051
Ti 8.769086461657725 12.357746457778623 11.554874554283787
Ti 7.905312159057312 9.911660038911405 12.666749725029641
Ti 8.312479399710318 11.922899365410055 14.392506660236215
Ti 7.557787441402415 10.317401438128407 10.389705995184613
Ti 7.881793400196694 14.154967857371656 13.57128771461085
Ti 7.2578957107138145 14.619614686215149 11.254816228711139
Ti 6.986997358101397 12.725425696306154 9.588970136042862
Ti 6.381904596559329 12.191535872281095 12.224647996826494
