47
Energy = -314.36428983 eV
Ti 10.863338727506678 7.016455957315924 11.761156815124476
Ti 12.183385920836432 7.755386115733995 9.66061004586879
Ti 13.364614549832954 7.444512231635466 12.299848194613796
Ti 11.342071243302687 8.211043164995951 14.09873720959455
Ti 9.227032039435043 8.802959957297967 15.275172555248366
Ti 13.379474282846585 10.43472764169824 9.209058270458554
Ti 14.59902668767287 8.446667588303502 10.22926860599158
Ti 10.931376059973472 9.878809361858735 8.220871011179488
Ti 9.534027179843147 8.513299325870507 10.104172895721725
Ti 8.76055053296517 8.264139957568053 12.793162346643122
Ti 12.053738838984145 9.50816689900917 11.63767211966753
Ti 14.894532373454785 12.335208086229754 8.061848537627988
Ti 12.498323475879474 12.586189532425012 7.510676369465093
Ti 16.125180131364328 10.87306917123058 9.622459203935437
Ti 16.89545417822734 11.861370198412299 11.799214973630123
Ti 11.014679980159293 11.557079684766482 10.14544336714869
Ti 14.990113999132785 9.923470759466817 12.122457787562707
Ti 13.19959416070282 9.902613372622382 14.249105395934997
Ti 7.219061206579442 10.057509002568038 11.213157064853545
Ti 8.582136200275782 10.605478157480922 8.957885532006706
Ti 8.794830085649435 10.93182046792267 16.457111336619718
Ti 11.341473494465411 10.028722561032708 16.491417793473694
Ti 14.432624513015186 12.388326569401032 10.90760866053173
Ti 7.548071627822021 10.40811644970013 14.141572042371955
Ti 9.944934021332253 12.921975312826081 8.305934870573543
Ti 16.303299415723373 13.785879538748341 9.831253958792214
Ti 9.383422242972722 10.707880841921115 11.97901171497852
Ti 12.394899474264733 13.8607254889357 9.954116075010546
Ti 12.549338101361053 12.096810682044865 12.652271615358396
Ti 15.97769354028655 14.124276337533885 12.438265473553287
Ti 7.276402273960027 12.4965995426764 12.570177553870396
Ti 10.521153460208936 12.655535312861666 16.554794658178302
Ti 10.148644558184813 13.286663469197718 12.045404714318185
Ti 12.83365249914204 12.281572456177264 15.354973746539079
Ti 15.112006502758328 12.047421336074704 13.75709234780331
Ti 11.453138872048614 14.950721641790553 7.689072975277434
Ti 8.043874453934112 12.688679223827863 10.295006027623222
Ti 10.589538864911784 11.106445229356776 14.330206328689231
Ti 14.097999251203209 14.850276568633122 8.250741276016731
Ti 13.631819197905166 14.465442585992248 13.41631719503503
Ti 11.725305166975305 15.59304618324484 12.018417755547098
Ti 8.567120362413723 13.028967881744217 14.725007881281602
Ti 14.370169934021401 15.5696529016704 10.978004164007038
Ti 11.05323255121686 14.089060014657159 14.509373311748222
Ti 9.967460785901958 15.104191085597343 9.944812886450151
Ti 8.75398854117873 14.907975244617141 12.633876133511645
Ti 12.318427233653692 16.43729170080981 9.588411996048928
