49
Energy = -326.902672 eV
Ti 12.480486426724687 7.468808813882554 11.54386392246635
Ti 14.988427937433768 11.028134091461432 13.417450414588345
Ti 13.691159569370186 8.583792580875405 13.804159036554443
Ti 13.018980623662198 10.900086330233394 15.270694565559749
Ti 14.504109501506642 9.235095143641995 11.179272891269301
Ti 11.685450618507689 8.848559711070695 15.695438864512056
Ti 11.273676389418295 7.264072167829344 13.793516699701541
Ti 15.156370063610247 12.32403135499847 15.824894923431224
Ti 15.238602617105764 14.293037659169498 17.287278595014943
Ti 13.360928336669481 7.946821574355424 9.106264154851994
Ti 12.974148597256722 12.754638932585586 17.23419489955178
Ti 15.183630958298787 13.461656923113654 12.516661067588315
Ti 15.441276007070343 11.649939001163442 10.545726092636622
Ti 10.307047619638626 11.190106109572236 15.846018720301311
Ti 10.910703681502492 7.510440571435976 9.302488226719255
Ti 11.73112351732569 9.834272155441932 10.277882635586344
Ti 15.74910735890426 14.777439949231493 14.818786500330793
Ti 13.100346929288351 11.635146474308534 11.888332574127748
Ti 11.420212328747166 9.887694566970579 13.174348602723551
Ti 14.262230862639946 10.228482773397799 8.5340792889207
Ti 9.34128267890929 8.87912636859105 14.408068209171006
Ti 9.842824694503667 8.076248996089522 11.652766053121946
Ti 13.16820231794016 13.332064946808881 14.253265887532926
Ti 13.319055893541282 15.21687939350156 16.17250834641516
Ti 11.729886848402682 9.421552877087837 7.639989412315543
Ti 10.915186033292196 13.927626188591557 15.90093506170799
Ti 14.377460604856962 14.413522316915422 10.17353373783742
Ti 13.990538423786433 15.765529803466166 13.198311620171381
Ti 11.688921864678049 15.847862135646084 14.131910082404639
Ti 12.646263113558335 12.505399113027766 9.13021703652448
Ti 9.321916317232953 9.634440722338903 9.079702389743444
Ti 8.963296827936366 10.458921398749501 11.688394952094121
Ti 10.482343673554807 12.547693128553995 13.409303472695141
Ti 8.155555019690283 11.039844257603617 14.061870178191551
Ti 10.426911336085283 12.319278024316016 10.562095358109529
Ti 15.206197229795595 12.641446032921863 8.181914383914204
Ti 13.674311874182274 14.419886314388316 7.567410167488199
Ti 8.52036989979559 13.15759631418414 15.10615797005177
Ti 12.184561242375924 14.250769057708574 11.911857484788097
Ti 13.085838374959701 11.873960230727667 6.676235865114385
Ti 11.509674178952416 16.73098544250889 11.675106335948584
Ti 10.176337061084205 11.628365430898304 7.643713404624763
Ti 9.383823973451527 15.122305183033244 13.724172826447965
Ti 8.12403302639804 12.092138358154168 9.54875521462914
Ti 11.356350959423649 13.814939610544474 7.008560538515254
Ti 8.094376955768343 13.0970460937461 12.389632001987943
Ti 11.77670505027948 15.171037950529888 9.36411531343917
Ti 9.632834624021354 14.801216797844198 11.106207159173223
Ti 9.424287858884599 14.001067008595475 8.56784920198253
