45
Energy = -299.33940092 eV
Ti 10.612162569724667 11.881043246455253 7.697745070144823
Ti 9.191467775693926 11.241189765825768 11.61232053786073
Ti 11.917891148178352 12.045294677572981 16.194023056649502
Ti 8.691007457702774 10.458409685564005 8.9303148010771
Ti 15.24559020033586 12.529333113398115 8.952528648882591
Ti 16.060327094513248 13.434985433036998 10.953274064119215
Ti 9.292462257816766 15.346661637679047 10.00420867404526
Ti 10.872464898703326 12.319856312365957 13.624043494865958
Ti 11.924218146464852 7.4535046625993875 10.419863841728914
Ti 14.853188174576589 10.238453958150515 8.168412035034551
Ti 10.9966529611387 13.140670906440997 10.459133219265416
Ti 8.65646111520896 13.171261705447915 8.86231497036752
Ti 7.852781907146719 13.780747596181351 11.505862245316157
Ti 12.681520557869291 10.665576179363615 9.66956089112192
Ti 13.133666546862363 12.634340992039474 7.754906322032758
Ti 13.384143195742718 7.346509458838987 12.49441672219318
Ti 15.838590255931136 12.219823821603239 13.293724295130842
Ti 11.60380366068462 15.845923651094752 10.57219327565617
Ti 10.794845364979945 14.353022977866774 15.22193336997661
Ti 12.777033682552563 8.531840768884233 14.535587563099531
Ti 13.1801736981617 8.281001654658528 8.3490875350003
Ti 14.679721433519221 9.664962643161415 12.83928596385936
Ti 10.710225491166476 8.986767187769248 8.522546267645813
Ti 8.501712028596938 9.014632138172551 13.132940785379146
Ti 8.165159899553657 10.87509749004874 14.666903354752835
Ti 7.256479484523634 9.45580640899439 10.923122570603072
Ti 13.351389910431205 11.059771384361161 14.303366764356655
Ti 6.769416340747882 11.406670254560007 12.713299645005042
Ti 11.109445623529371 14.523790974887975 8.28368898267106
Ti 6.903571734541588 11.838236654757656 10.167352056661656
Ti 9.91109975754613 14.895789636329209 12.57529908121989
Ti 13.572920632006873 14.31461946113576 9.968760423221694
Ti 12.299936655657525 14.533134557029094 12.717270728908325
Ti 13.495162181575097 13.458452077377192 14.534514579113075
Ti 8.259879458616249 13.400967895660452 14.152329768452445
Ti 9.56653910111434 12.157578257033911 16.044174079523582
Ti 15.993846062554452 10.83231929315737 10.749703442648322
Ti 13.722746550802817 12.238056564751197 11.793882809640511
Ti 14.5012683954826 8.601445951300665 10.499046436413034
Ti 10.815082246438191 7.426653461053709 13.067262223473799
Ti 9.471047440631954 8.239633227306514 10.810694074454533
Ti 11.785913888932516 9.657670234639035 12.199370932126092
Ti 12.439677307231236 10.275619244166851 6.9829035942604705
Ti 10.59663895009055 9.842255582179519 14.81567818783049
Ti 14.855380383700954 14.675330844079225 12.555862243190475
