43
Energy = -286.72257314 eV
Ti 10.385701354040934 15.132937701503769 10.1460090487131
Ti 8.315787006381427 14.099792799663657 8.89527409603651
Ti 10.527890510014041 13.281984827887236 8.119483980501535
Ti 8.326620815557707 11.585790144326573 8.03894117292736
Ti 13.009911626516285 14.643733949297298 8.733431097797292
Ti 12.836275039573637 12.736025135235545 7.041591548324431
Ti 7.015480337491753 12.397918322124914 10.417852683941408
Ti 10.711550966835734 10.851729056061616 7.0188351821245485
Ti 8.004275015280472 14.681569658240392 11.277965533580351
Ti 10.037696945264111 14.621056265248784 12.845240655277028
Ti 12.449245492441227 14.44388962185003 11.519829213645044
Ti 7.334560952014807 9.957140496545296 9.715882528970631
Ti 9.665769388673137 12.58481311571014 10.897029000654337
Ti 14.786421452776969 12.491182104057593 8.600984557225935
Ti 8.927445508928297 8.75343284662571 8.048538935099343
Ti 14.743884574124696 14.053156507389174 10.51432232258706
Ti 13.197855435171862 10.304490737014817 8.019660875059362
Ti 12.370882867569637 12.27409678634675 9.812810554816297
Ti 11.44692814287187 8.490120771068383 7.7537864332850726
Ti 10.197880097265644 10.226125494342623 9.605049245295795
Ti 7.284513703168171 10.338048988968175 12.265394297954103
Ti 15.100582886663247 9.854085440587426 9.544070731933388
Ti 12.266252777849132 14.472450045091954 14.133104176558426
Ti 8.082906479984453 12.784536842326034 13.119892394585369
Ti 14.28563973319313 13.180981722127267 13.227996226663969
Ti 8.291158798066599 8.037670750643253 10.887954112570663
Ti 14.527518194370607 11.489434179548464 11.375418611648694
Ti 11.789660859730814 11.984467530651536 12.798978296587535
Ti 12.448594275338694 9.570169011524987 10.95376142277033
Ti 9.984582849462505 9.749423117321289 12.444751776064505
Ti 13.521535100289462 7.79624640491601 9.279256578883146
Ti 10.2165071647412 12.814266807626135 14.842232589068697
Ti 10.817163842628768 7.414280833327397 9.948771796682136
Ti 8.688082588781816 10.499369234745094 14.629650988358783
Ti 12.850356319682064 12.462720748334103 15.327063221042142
Ti 8.054803465407465 8.166933112392615 13.467080553306058
Ti 14.736919031394173 8.633242400112843 11.750547002898802
Ti 10.322885864100774 7.035112427147046 12.483641399557674
Ti 13.899729056235229 10.558583755308213 13.867605001220195
Ti 12.437326306910201 8.473547810592573 13.532935485463446
Ti 11.43070911629673 10.37432158859604 15.172364737982912
Ti 12.929913722802983 6.8571770358784745 11.542236125655206
Ti 10.127271919161801 8.228621456746898 14.769451391734755
