40
Energy = -263.43067853 eV
Ti 14.287608291597854 9.407086087515449 7.283483503449325
Ti 15.162116094206466 11.155639053369315 9.00991107347849
Ti 15.182075425369419 13.089456742825933 11.057833164146238
Ti 15.37093020217253 12.420967596780406 13.299062422197757
Ti 13.103092481517036 11.703174973434656 7.284904516561037
Ti 14.934341115178249 8.540037450747255 9.640301218320994
Ti 13.02271109549809 12.905862508825562 9.670744369662236
Ti 14.638791083300266 10.298483343502914 11.648178582821952
Ti 10.980327551204239 14.263162462986594 8.55781831201531
Ti 13.818931437146809 14.563169416028462 12.861128669018859
Ti 11.876132168528242 15.074410972258288 11.01538146572755
Ti 11.668658868359593 9.427836085233562 7.019363349543975
Ti 13.965707087940432 10.6763221940549 14.43660182765695
Ti 12.714257650379706 10.111615799429256 9.437820436817958
Ti 9.315633819005669 15.39794227413379 10.175753806330944
Ti 13.352973100881078 13.104479273032634 14.902957503651422
Ti 10.641528126831872 11.664551553048904 8.156719739530974
Ti 12.854732093809867 7.531562759505808 8.351332862387594
Ti 12.805036303684744 12.134423192399465 12.41309689791409
Ti 11.200120605335178 13.939684424406177 13.649337293400675
Ti 9.588336358241044 15.155029544762577 12.539620280214569
Ti 11.148625466545612 5.90853714502581 10.03654165163218
Ti 8.365378116671721 13.249450474886991 8.989737369441748
Ti 12.618963070227197 9.057121365073217 13.354393093127248
Ti 8.25663650561699 13.625271297022568 14.244567362788699
Ti 8.94511539978614 10.587039799964185 9.511494655416689
Ti 10.443085412309971 12.854484318011103 10.60962248745277
Ti 10.983655578379594 10.123690093533044 11.545168708136972
Ti 11.27541166490267 11.346105040621092 14.560106426791556
Ti 12.672048592350421 7.818208569374266 11.03650839891993
Ti 10.535829792797738 8.300942125167197 9.466489954739817
Ti 7.413114026639738 14.026148661373188 11.605420078083947
Ti 6.692457394575005 11.645305859417176 13.088800268775447
Ti 10.046037711297107 9.101647403309016 14.153569568783315
Ti 8.261605390880986 9.617411218686696 11.932063944754383
Ti 9.219831235412936 12.096751975921633 12.560601962877005
Ti 10.204163978313119 7.594248035449916 12.163068353366953
Ti 7.026038831510587 11.669234233350773 10.618800309434803
Ti 7.485497992926959 8.491435239851796 13.847202081373345
Ti 8.43053123990851 10.838763466215847 14.773935177917107
