43
Energy = -284.04530143 eV
Ti 8.769177424291819 13.018170463957132 15.027534530264026
Ti 8.240456881155442 14.053746432803795 12.841020332968546
Ti 8.118676645101457 11.347672154034386 13.088763367702729
Ti 9.261951888770541 15.964785673629295 11.3452009874687
Ti 8.715664972357933 12.966984575565316 10.665404413900198
Ti 8.937941142549636 8.439040089103711 13.487633452298473
Ti 8.93293643557932 10.159848073910291 10.809297839079681
Ti 9.677671905669062 10.52306082617764 15.1684960775032
Ti 11.16342864799529 12.893698305295036 15.874993024680123
Ti 10.373244424085653 15.119010512911592 13.958339644539153
Ti 11.201447851203675 16.328365685235656 9.538684549952992
Ti 10.569818578604302 12.452976288763523 13.260630822621154
Ti 9.5709896071487 14.60842682869114 8.870283623729915
Ti 11.8611728416373 16.675622058851804 12.10404057077641
Ti 9.803145730727284 11.61595274481167 8.499775700628492
Ti 11.139995551743734 14.318645383326626 11.450562547842974
Ti 8.508418367410378 9.130860409096906 8.54981777609064
Ti 11.175896036731084 11.598501585444511 10.706374365943875
Ti 9.69103988465838 7.578154709705199 10.98413620351554
Ti 11.179002183336115 6.894875657439187 13.063974158798889
Ti 11.149698237195565 8.35092764420696 14.986519908329646
Ti 11.04911018548391 9.490888753543672 12.510069128169043
Ti 12.977172918570453 14.301696172351054 13.36380371526876
Ti 12.29885797584862 14.844796218624126 7.435252099502309
Ti 11.013629792391646 9.235576388274898 9.386625193435966
Ti 13.686599078122448 12.786862699828433 15.60292426594758
Ti 12.257569128964565 10.580575826729982 15.923486230289791
Ti 12.062670934790923 13.50727948368835 9.07008893304953
Ti 13.82632322960037 12.553826811830646 11.121690483659002
Ti 13.039036276097063 11.301843686153884 13.46487577896416
Ti 12.390755224610142 7.45851085864715 10.919734282462809
Ti 13.464761242934335 15.647857670903447 10.0309994665362
Ti 15.19454879198142 14.829735028011656 11.60388529596444
Ti 13.209408126109604 11.34219075570153 8.653772328017173
Ti 13.507564233991399 9.682618077787195 10.70040662616247
Ti 13.494592723036765 8.603590872546654 13.3302204117931
Ti 15.281865946650482 12.902609186116162 13.508979359206302
Ti 14.860159580179781 10.490301359745411 15.072989183077173
Ti 14.979534726318311 13.62558872733131 9.00430014394183
Ti 15.57983374434765 10.97943152259642 9.649796867402264
Ti 15.28790104716558 8.04144675223719 11.506111382112259
Ti 16.55538534800637 12.791285787093836 11.066544698031333
Ti 15.53350332672888 10.56031942717713 12.393264317864375
