45
Energy = -296.50977882 eV
Ti 13.676997744508968 9.241285928823963 13.244652145219225
Ti 13.151433833517695 6.97187959346419 11.870265572395978
Ti 15.305692613517236 10.635636335006867 11.690958706971164
Ti 14.984084122910813 8.172763886735895 10.958052033954408
Ti 15.397851321593494 10.590412981269314 14.61745670567028
Ti 13.13768842983141 7.491498878689037 9.176877918095219
Ti 11.262360354250825 8.068558945504073 13.617919743753102
Ti 10.763259351527179 7.194730556012403 11.020951786735663
Ti 12.125212005603407 10.202462002902758 15.13022681853147
Ti 13.484505925956633 12.11419798107235 13.94137609167395
Ti 12.517736121492124 9.416207397575905 10.651673182860288
Ti 15.525674779971212 12.946435023897424 12.633859512123786
Ti 14.688226349429664 9.862306068812469 9.074549337761116
Ti 10.389786558398052 8.148087516495067 8.480005447049317
Ti 13.56958002029216 14.639126669243904 12.85515470162994
Ti 15.706888434336523 12.677391520423376 10.055639423890787
Ti 9.564192605454739 10.285921031042175 14.833398158629599
Ti 12.299625571859433 10.030285837919198 7.948315203873064
Ti 8.733416988216398 8.231429682192061 12.63998803734808
Ti 15.852685233585602 15.119104333737733 11.311351705547088
Ti 11.129826380138924 10.4963468862877 12.641835106308456
Ti 9.54956315597533 9.673880250063279 10.436377525805723
Ti 8.34462601403036 7.362026568101786 10.167599570133861
Ti 10.87653734687301 12.697871516348728 14.045732703999683
Ti 13.757529921537042 14.497731932682733 10.227818861542433
Ti 9.505754436869896 10.58224701621094 7.306149329818156
Ti 13.467533015866904 12.342419833933452 8.568354041721605
Ti 10.753328763925172 11.937941833032424 9.481614107922478
Ti 9.184297804406745 12.096353697888853 11.872836227539707
Ti 11.22241103217158 15.254551913630518 14.357412788279335
Ti 13.015373103549573 12.122228328648788 11.252978741889654
Ti 7.490714240017029 10.349259403100387 13.211482181362554
Ti 11.479291231055306 12.417855552556356 6.928165489808318
Ti 11.171658932169947 14.158156915044264 11.699823234170747
Ti 6.888693761182977 9.509479695365636 10.8938179325668
Ti 9.640720108923833 14.046888873717064 15.80340164954025
Ti 6.982686301435616 11.596052922045763 7.079506410748437
Ti 7.73288738845199 9.137008800814067 8.443399704333832
Ti 11.38605801585606 14.380536063398358 8.747370585666804
Ti 8.971572634243682 14.514164565090967 13.261618740555132
Ti 8.994058920458091 14.0904341817412 10.064923545912325
Ti 7.851382998673489 11.728870771443113 9.384879082452532
Ti 7.983224763712961 12.520592699833474 14.387838105251328
Ti 9.190510188880017 13.27848125328334 7.562338485813526
Ti 6.7537747389654506 12.617836808986441 11.883706625459459
