41
Energy = -273.43428682 eV
Ti 10.587784200392251 12.462279170459501 15.334097754003935
Ti 8.554179557061808 11.534136974440846 13.93516197361278
Ti 8.220549702556642 8.989187445583523 13.937490215068692
Ti 10.295947575402545 9.811635070383488 15.273911646469148
Ti 10.058266999566602 13.77411959047155 13.189996626355343
Ti 7.424483707081849 13.261823101272881 12.036041319602544
Ti 7.248113144506709 10.3113734649849 11.951573827989552
Ti 12.193642916854765 14.97824887854384 11.876119883673649
Ti 12.806472248335355 13.210418321598944 14.002370166869435
Ti 12.652192529490117 10.924690142833468 15.424342751975693
Ti 9.140872682117918 11.981254834771375 10.75959938605708
Ti 10.262243304097245 7.595729286410091 13.826325624180173
Ti 11.318488298747589 11.20631593934083 13.141492377673359
Ti 10.00006348438502 9.476835988972532 11.742220262587647
Ti 9.550201260601092 14.804737346590663 10.940053052009414
Ti 6.519658338613364 11.782064958708917 9.906292256953543
Ti 12.490787490288728 8.682769363353135 13.853120063527461
Ti 7.726850742497402 13.88136913858935 9.369492403311384
Ti 8.6087880960006 7.448108015980523 11.783956539299345
Ti 11.75960656856714 12.765903425217246 10.761937116146255
Ti 14.12588083002024 10.794484198231624 13.377040866711202
Ti 14.35098984188722 12.916915089813799 11.804270834453527
Ti 11.52041868909388 14.995311288194985 9.246889551454855
Ti 13.773817791939637 14.275514815712635 9.789426490380743
Ti 10.012923981774673 13.273060035191927 8.11228792675289
Ti 8.291268419432146 11.687180145571025 7.912320251972932
Ti 8.04344659647017 9.473614608092358 9.731782481590125
Ti 11.529099070481813 7.1756410608192205 11.648961648262192
Ti 12.780924918892033 10.187592509321957 10.743226472250662
Ti 12.43529365882853 12.664302791879388 7.965322595939098
Ti 15.48215553595472 10.589580560714172 11.231149888853958
Ti 10.690951673321976 10.463493270052751 8.91502477858544
Ti 14.175990683726392 8.31362177839192 11.78474124879607
Ti 14.558788915945907 11.808207882485098 9.17784977631874
Ti 10.786484110555696 10.990124134377787 6.43175627775134
Ti 10.029846004735886 7.743538593164451 9.431217788490308
Ti 8.939618232182276 9.215193307241178 7.2861457344417255
Ti 12.680700857030475 7.841715602860765 9.261628561136819
Ti 13.174616670219216 10.012612451720546 7.531120344719167
Ti 14.833389694439857 9.135834160770784 9.339724206892035
Ti 11.25830762122095 8.453567902203083 7.12662367220021
