42
Energy = -275.94332814 eV
Ti 15.336019724597609 10.68585839400226 9.507867874011977
Ti 14.636949691323403 12.751958895791013 7.99575060243034
Ti 12.101137598343954 13.814307085149926 7.993154841300928
Ti 14.340146931524984 8.455525049165042 10.82216178298703
Ti 14.447945115254878 15.150059530545343 9.131743269590428
Ti 16.147702404574407 13.129997224731879 10.068609461693143
Ti 13.902826078428149 9.022986180421894 8.181596685389433
Ti 12.541567112464403 11.352226096790345 7.7322777605179605
Ti 9.275542858348913 14.062675963376114 8.63029221222078
Ti 9.942189959767427 11.780642239921637 7.752049601105465
Ti 11.469482754758104 9.042846417978579 7.480501866003842
Ti 15.69048078005505 14.931881658531896 11.442296745425715
Ti 12.061180383750143 7.687103096869083 9.519695215500613
Ti 15.16690024741716 10.935298705509107 12.01141085716666
Ti 11.541648661826155 15.232545838270614 9.881488021771306
Ti 13.496601038499353 13.174170406361563 10.496680178529214
Ti 13.510479429215502 9.121088243077788 13.411019396731175
Ti 10.796535406599839 12.604472138927017 10.232888448882713
Ti 13.372001959203981 15.616645676828833 11.722820148415227
Ti 12.76333282772767 10.389443734947275 10.372234759826485
Ti 14.325578232963844 13.386587953340081 13.014784513186758
Ti 10.257190005238993 9.752594484415562 9.527839328231373
Ti 14.571230068530928 11.288104120961398 14.556731500494282
Ti 12.758127511143748 13.165506684163784 15.09840179061809
Ti 12.304567167864727 11.508010702690342 13.094080854568602
Ti 11.497144239123331 13.984096260904938 12.570255345611738
Ti 11.457504806018733 8.36446441688615 11.806581172096635
Ti 9.06138743362692 14.600054519856599 11.011562480760471
Ti 12.467057650416045 10.615882045673839 15.689028445420975
Ti 9.889120054121909 10.396350699137718 12.126053723831907
Ti 8.762219801730607 8.37166512357175 10.777593832943314
Ti 8.321627878557882 11.866346627956379 10.08222044061277
Ti 8.921612018737264 12.684846330201328 12.617723708775218
Ti 10.268579335221544 12.065961718510476 15.01543393349735
Ti 10.747344492407183 9.329389264935749 14.524631601108833
Ti 9.597250289361924 10.193624955562443 16.815931459303343
Ti 8.562789673618779 8.193542093601218 13.110117890692596
Ti 7.112287704318452 10.764752297159147 12.255829783700165
Ti 6.608996826613079 13.28394919387691 11.45060923979669
Ti 8.284699543244907 10.405037173836831 14.501387811018832
Ti 6.96181582943521 12.851378105134685 14.105987217029583
Ti 8.879408162570245 8.204391357531218 16.071788325017707
