40
Energy = -266.1370702 eV
Ti 11.946800910953373 10.036602944574799 7.729786718968708
Ti 7.186828288966811 10.237493970706684 10.441923155957499
Ti 8.915639814542617 8.42813562564947 10.874508647111362
Ti 10.65112179091558 8.09157018967028 8.97295549041834
Ti 6.775077784147193 12.508423508149313 11.93290520793239
Ti 7.724562741101226 14.46539298292675 10.365962219038659
Ti 9.273151488382114 13.859755310211469 8.550523756329257
Ti 9.452514327042406 7.910816110877918 13.354445687423768
Ti 7.8670562359132425 10.09164759857225 13.003393202294816
Ti 11.31517794591646 7.316010588553759 11.401187844340459
Ti 12.124437120466489 9.899838718793958 10.446393882046463
Ti 9.501050128261049 10.498814040490807 8.865343207437162
Ti 9.067648471249544 12.138331754725575 10.98667851446052
Ti 8.679001194369134 14.438307412757814 12.647433645238795
Ti 10.38038892112209 10.161912160115019 12.35723767301873
Ti 9.133349186229111 12.3265146673852 13.811257701083024
Ti 14.15435549524559 10.887028609235962 8.790982353348642
Ti 12.008199966547085 8.06262844338247 13.960647411629504
Ti 10.16211809692641 9.993544424112665 14.91941241977458
Ti 13.269507024059486 8.005404129812463 9.388418628232063
Ti 13.704377585630661 7.786048554803272 12.003659940528781
Ti 12.625668859216052 9.878005645395438 15.634153242282883
Ti 10.366478268086716 15.112240737195926 10.675491141849655
Ti 10.45706813097907 12.282019700111913 7.093095060361181
Ti 11.373705084274158 12.840754043061908 12.133572373764432
Ti 11.798911326812183 12.424573384739722 9.462009209674276
Ti 13.071598152214015 10.678813707158675 13.006161573128098
Ti 11.733528000977655 12.36352484337172 14.884443997084912
Ti 11.77658350539293 14.600907221689585 8.120892325983219
Ti 12.927325948094925 12.451693767124334 6.961940418565628
Ti 11.252015308762472 14.882058425554918 13.29531532739128
Ti 15.052822905791745 9.622354920521563 11.244568164792419
Ti 14.719986212906683 9.102145908414906 14.100406766410977
Ti 14.32001758294539 11.577952480653776 15.19779508636054
Ti 12.930666855340606 14.769503238752662 10.869648775360787
Ti 14.143196893070645 13.617749183736512 8.786681073393876
Ti 14.383095685300816 12.330050528261228 10.981786674465873
Ti 13.728885669567465 13.399866889004457 13.324553016519992
Ti 15.653985926827183 11.448056944747913 13.07808586247077
Ti 7.177402287739846 12.258813807283078 9.129649725814124
