41
Energy = -272.7430485 eV
Ti 15.753182027367536 8.939864891052432 10.558254159899002
Ti 15.867275257930453 11.434655240497332 9.80178885790909
Ti 14.450099624608695 9.554431609289223 8.288118254381665
Ti 15.78341095734251 10.921357771642597 12.468118474925214
Ti 14.17896523322743 8.586906453629595 12.619769188319223
Ti 12.841219861465088 10.723708195574874 6.46076228729939
Ti 13.236660927127541 7.970072029895491 10.054508323140064
Ti 13.92145242143836 12.23677899674581 8.286570567488544
Ti 14.649090026952875 13.235761962351292 11.509678974816547
Ti 11.798363032464119 8.297369140713014 7.467499681718894
Ti 13.699756595122064 10.490605807917756 10.765165873595226
Ti 14.227090366407102 10.237988851128891 14.54275433721807
Ti 14.788414827642546 12.770700195089447 14.15664583008145
Ti 11.812238631959746 10.287381143558996 8.853185321642666
Ti 10.410519421307535 10.479751492260917 6.490382513952102
Ti 11.610852654724198 9.302690531199914 12.198866167714412
Ti 11.413061640892069 12.681310835932086 7.639578876068858
Ti 11.479723672904298 15.549702889406387 11.037836653027897
Ti 12.764219823746114 11.711270030711798 12.922847150793412
Ti 12.571141987569483 14.29705550635164 13.361999698581549
Ti 12.263536171961379 12.916606217466597 10.492539090186442
Ti 9.264049374219198 9.090275644863272 8.149081375754534
Ti 12.562250472411614 12.138224115601593 15.545428993734834
Ti 10.277718181248648 15.8674242693852 13.409960367274985
Ti 8.825944573361442 11.67115993065778 8.295078005067415
Ti 11.578091204114964 9.594223053582889 14.924075594058566
Ti 9.092785644148194 9.110332674704006 12.421988624289087
Ti 10.066817875578948 11.092476288630149 10.730020447709984
Ti 9.876277437267317 13.882498151675454 9.553598981540189
Ti 10.355097280892446 8.183144240877548 10.102113006206439
Ti 10.177290621904907 11.52222591666951 13.700761523346264
Ti 8.774728997460876 15.566404556985878 11.32191923133398
Ti 10.236694167649842 13.605309288847637 12.178435531544183
Ti 10.348168380629847 13.90871127759702 15.205454789492869
Ti 7.865452539956016 9.921052709431649 10.206888083562843
Ti 7.95896113635891 12.869230688683245 10.822159032295444
Ti 10.221009217458118 11.357207284208105 16.36736892487595
Ti 7.614961638703304 11.283820817042214 12.853246919876321
Ti 8.701611697234803 9.810969421401465 14.913848496899405
Ti 8.115946476692708 14.182883106072335 13.587528473317235
Ti 8.159206686402278 12.30979553852135 15.32751208291462
