46
Energy = -306.17468916 eV
Ti 14.917553187916495 11.176007184598566 8.472584484911415
Ti 14.311715868016487 13.674948800171876 8.37625878473254
Ti 12.79609144048574 12.21541158310168 6.9018178035856
Ti 13.049450746636259 9.66579124232734 7.798116844038175
Ti 15.916785164939526 12.890747819997685 10.300878748206252
Ti 13.638964919331356 14.752936694562862 10.6150725532848
Ti 11.903448806925342 14.675983265278905 8.618997766521074
Ti 15.998384697941304 10.153127307549532 11.109381333937641
Ti 12.332260072507095 11.879290454839557 9.408527418080986
Ti 9.956941621575645 13.15917270210761 8.080490922111773
Ti 15.42413204844509 10.126332684445297 13.793978932041043
Ti 10.76943748421629 10.524786862735132 7.440371264500234
Ti 9.398672605607633 15.528719500756278 9.291491153625746
Ti 11.286058042515375 16.24175894901552 11.150971893588714
Ti 15.045972845142362 14.212500352531611 12.582474783348525
Ti 13.005229871239552 15.88921866631371 13.323334908709002
Ti 13.878461070119421 9.24505444312181 10.27904960759972
Ti 13.9425549214339 11.863253329314537 11.710121074678801
Ti 12.258216208804717 13.598419966864014 12.72869186205991
Ti 14.460676342338788 8.022533217105089 12.915885507109477
Ti 16.378357178634545 12.064783890373125 12.798133818422487
Ti 10.531715879493717 13.687564172917153 10.74720587484282
Ti 12.134947815823322 14.01193125901767 15.571015316760588
Ti 10.491763985872524 15.402834274528841 13.63640164021256
Ti 8.858648859281223 12.917290914194263 12.882461481942515
Ti 10.518918438032264 10.937209841893687 11.631519797053489
Ti 14.106071744536331 12.43994913470711 14.41285935844514
Ti 9.462647067508373 11.23572909372808 9.57781206299313
Ti 12.677534536234512 7.204569482555494 11.45126545289649
Ti 7.891502362029785 13.451541354979808 10.258494853296417
Ti 8.763281673011893 15.443783504332114 11.798963390556697
Ti 11.2127027644003 11.79561065684741 14.302681246522212
Ti 12.403494920116298 9.682525642934714 12.759613244773778
Ti 11.274173784994499 8.986674597618391 9.72964496621917
Ti 9.389054791962247 13.74167231135508 15.306581086744046
Ti 13.44551414582278 9.34010003493697 15.212363943970082
Ti 9.514714382776488 9.432526660966593 13.464499885253199
Ti 7.607478237182775 10.992363662022331 11.653558639956781
Ti 12.805225274953784 11.466595180140242 16.517976728130076
Ti 8.616474240781407 9.073310976831765 10.742308784791232
Ti 8.699772566756883 11.269364015341413 15.117586245583777
Ti 7.327530709891099 11.051707992309671 8.763530086901628
Ti 10.431522052049582 7.619097434987498 11.97048649618201
Ti 11.921287072671849 7.531989091744629 14.095452214048313
Ti 10.876066855836948 9.670130574718259 15.940200489486244
Ti 10.480366083733545 12.16873804763624 16.87162870856589
