44
Energy = -292.1720658 eV
Ti 13.204867062741732 11.915439887159362 14.48256573700446
Ti 11.256775814134668 13.245097935039947 15.787980873211062
Ti 11.854726913742702 7.795736171121056 14.31323386089737
Ti 14.40209410141122 8.944492346823312 14.240961062814964
Ti 10.791616983814562 11.239123659122601 17.083270032838456
Ti 9.527603843393646 9.482705079680766 15.815457621916513
Ti 13.744326642462415 7.3076249124539485 12.435286412038487
Ti 12.269464174322264 9.808626498756292 15.660880055702592
Ti 14.725589416294671 13.778127985193633 13.764517308587081
Ti 15.578037976053198 11.179156799772619 13.432352458912195
Ti 11.323298159585997 7.199518784003131 11.884609018166767
Ti 12.632018906968732 15.07340688602791 14.684088598187387
Ti 9.827793272277624 14.727897465569324 14.368043902979714
Ti 9.726543050716145 8.982838161403734 13.052460516294145
Ti 11.600756715365629 13.655750887249297 12.601981463008899
Ti 16.665407438568497 13.17451205040672 12.280508828666358
Ti 12.545166613972395 9.7296364428894 12.513406407887446
Ti 8.770960251984912 12.22537609808579 15.833398924130927
Ti 15.084200840174953 9.36432376014162 11.51324847319593
Ti 12.85306579703498 8.3505239637637 10.110640901933959
Ti 7.861848947007549 10.568767756360879 14.173728878506434
Ti 15.391764657997523 14.347236104317144 10.565601711014299
Ti 8.747051269821808 12.88399557093466 12.941213668222597
Ti 16.158956736937235 11.697055816934927 10.366844286028286
Ti 13.64260269348457 15.682820404707124 12.198833323596391
Ti 13.883097762352069 12.260821984737406 11.679638070739436
Ti 11.273472813461465 16.41294971490275 13.100195499077888
Ti 10.569259633631745 11.284046849812963 14.052128795527318
Ti 11.03728846144502 11.293180634939835 10.896766703125644
Ti 10.120579473246966 8.81934028100241 10.30121523318904
Ti 11.272731277068022 10.07876944458906 8.266947828732032
Ti 12.128482058408544 13.360922809678724 9.74886798317317
Ti 9.483437958735331 15.240842491966479 11.584082860528143
Ti 13.73737552510795 10.68768473036274 9.52152317431562
Ti 8.458228716283065 10.751223410577712 11.529869174128722
Ti 14.626569795544993 13.249113471694347 8.500258464300927
Ti 13.38109174178294 15.635648335249359 9.200414766773738
Ti 11.610293447991454 16.43748912954418 10.747409835597791
Ti 8.939286143202361 13.143539697205773 10.095950953728394
Ti 12.821947303838867 11.798265550966265 7.420256297751621
Ti 9.000134425673233 10.795432798215431 9.041434850296016
Ti 12.43236342184634 14.265210438991375 7.266736658049851
Ti 10.473506209423228 15.196157714468963 8.873387308323354
Ti 10.299917021144598 12.665170553633343 7.803402687357153
