44
Energy = -293.88696528 eV
Ti 6.762964961477546 10.815701532352902 10.777737828483064
Ti 7.070324825433333 13.342066827072502 11.996274536289562
Ti 7.061166572732847 8.727784977836183 12.610490112130282
Ti 7.57966642752138 8.346871629702042 10.017102023278383
Ti 8.836185577587495 12.93044868195609 9.955353285146167
Ti 6.4730643110507025 11.21278004039103 13.297828521212397
Ti 8.86163826079513 10.519920509933625 9.124859237196265
Ti 10.656014238970807 12.28222990842496 7.89491230732226
Ti 10.34222527377113 9.696173930397107 7.17148128671242
Ti 8.834203050691748 6.794263977614265 11.572146008919924
Ti 9.222779098789928 7.636330716031274 13.830634250229764
Ti 8.171306401849938 12.898631439797814 14.381287452716341
Ti 9.567574022871913 9.258335967961294 11.67596085022038
Ti 9.721549637559777 14.13980979725012 12.404123604082836
Ti 12.337183414276511 8.286752100938651 7.670518318972102
Ti 8.969826667326776 11.589788630469508 12.284419691448909
Ti 10.88364377239587 14.771256883909444 9.714326556057285
Ti 8.411844659654115 10.05567182808454 14.619577887944686
Ti 10.201496994956617 7.883725638434186 9.393495524733185
Ti 11.465259674991726 10.069360649558188 9.556222132860544
Ti 11.266430981343081 12.513640992331226 10.729270144872537
Ti 12.75765278215114 10.870428873450106 6.9639579120878095
Ti 10.665498669675769 12.014025071723477 14.353624495788798
Ti 11.5431826027672 7.746405855467768 12.282771767756925
Ti 13.007900956750564 7.829315730464278 10.074620026364407
Ti 13.081818914200522 13.444970311286623 8.054662703983434
Ti 12.246486574483034 10.490684307585106 12.221523636052499
Ti 13.640432349815951 11.405502970972703 9.72352385148136
Ti 10.922663025988635 14.758207458557225 14.599870724973039
Ti 10.956014068336007 9.429525450635836 14.264239610059477
Ti 13.3712174726827 14.438599090608555 10.442537955513107
Ti 12.657142987000308 13.313957981347478 13.13788938296237
Ti 15.176535178808926 11.722023108276804 7.598286467023975
Ti 14.629264788941837 9.255681312862812 8.459169115105148
Ti 12.675814353808175 13.18675141001739 15.829729246568613
Ti 12.083273714931675 15.779668325715823 12.329609459154453
Ti 13.571218579933939 11.071605081667336 14.347288557498434
Ti 14.536247371640153 9.358353348955283 11.35939557041761
Ti 14.814132370354448 12.053386706482607 12.029772737277511
Ti 15.471406392550382 13.364156957454215 9.556823213480856
Ti 13.420120583321706 15.413219592168454 14.663824286216242
Ti 16.19241109579058 10.916891074149966 9.920483903128769
Ti 14.769967608728432 14.902333082748992 12.468534579047876
Ti 14.964363407451737 13.313874913116061 14.490953913389212
