46
Energy = -305.63466939 eV
Ti 15.315420438352483 9.824439046752817 13.386144134166539
Ti 16.437079928161953 12.20212463938158 12.95499090388272
Ti 15.159544339874786 10.269816596445738 11.023308114428659
Ti 15.008455423865826 11.561845955664218 15.24621864913242
Ti 13.62697543398886 9.140554372380294 15.149486250980418
Ti 15.855944132303403 14.592481606232942 11.713688760484889
Ti 13.900720097154457 7.786662410727171 12.567680260350205
Ti 16.286838835137385 12.52060981299216 10.328456929810919
Ti 14.96119379976538 14.177602507359216 14.31773267451724
Ti 12.757912894001715 11.056100105317816 16.78368142820742
Ti 14.463836066716247 11.693128600294482 8.794776094590224
Ti 12.487672577641632 9.903709159878847 12.691252521618583
Ti 12.700315126190635 9.349825784379693 10.026156802903836
Ti 11.764228259971848 7.679676871380912 14.201309061245716
Ti 13.469949938941765 13.426412354231253 16.364503919460567
Ti 11.458692610146633 7.534457276229393 11.670122298048915
Ti 13.57648696021238 15.39855106278539 12.455948921403737
Ti 14.031475187249212 12.602291300583657 12.154905438349669
Ti 10.961691471486693 9.856184196512784 15.411378442972438
Ti 13.68562492733348 14.150123643502887 10.029723871815133
Ti 12.09576028431911 12.011781052287214 10.220463192855421
Ti 12.423382706302116 12.099696466781774 14.326328757831826
Ti 15.460727649720052 14.202589412277574 8.475178168722184
Ti 12.72228131355488 13.15535284677049 7.728542380301053
Ti 12.294242936356587 14.823779354501514 14.598906224150918
Ti 11.885314805199252 10.54936627762763 7.711257887058964
Ti 10.792527723294983 12.855593240085675 16.176854129851062
Ti 10.37860240058367 8.542321905705878 8.482944114501423
Ti 11.50337210277256 14.068776792063748 11.821378630963185
Ti 9.675112532831228 8.89763895351556 13.275384920942978
Ti 10.286120171348914 11.706608839527556 12.528185330595067
Ti 10.90942653697544 14.419995012969851 9.042474289442746
Ti 8.887768627248395 11.373658283506131 14.789259506131435
Ti 10.140339236602637 9.480965625386984 10.755464762914313
Ti 9.696441146544748 13.927300343053274 14.002568171867772
Ti 10.173101875750767 12.737655770000806 6.858094849103164
Ti 7.878319707934538 13.553969242637857 15.669203808476448
Ti 9.580634397626257 11.612638080713074 9.175994545695211
Ti 9.446089992671977 10.161935743547872 6.819600144302122
Ti 9.037891055156729 13.741079522042803 10.965846901326682
Ti 8.086386378029804 10.677452414435951 11.509004409441378
Ti 7.621214899906842 12.751419494637158 13.020444714726153
Ti 8.40484854234989 13.970017862548675 8.411476470452266
Ti 7.788294681130446 9.6890991198539 8.952279815000184
Ti 7.641329132883814 11.790700984283383 7.313241174358853
Ti 7.003047042645204 12.26735436680061 9.829066579496494
