44
Energy = -293.74211132 eV
Ti 15.33679227082979 13.750187595489377 14.636273728145289
Ti 17.005430018218597 12.911209772759005 12.987327305069813
Ti 13.222896590718468 15.203458613202125 14.141944284686796
Ti 15.164098166506038 14.682308234201944 12.130245048122497
Ti 15.884038090454558 11.025576629553248 14.650055196305066
Ti 13.392917364565633 12.424213731870616 15.393233521570897
Ti 10.661179486974621 13.728442355588328 14.937347736856207
Ti 16.126614425515832 12.611362583067587 10.533309000885732
Ti 10.661084352263048 15.284220701636302 12.921189763718269
Ti 12.831727929432638 15.591329932970014 11.48042674988212
Ti 16.691475338027498 10.517214509383336 12.010937887593032
Ti 14.582414012040784 11.904822243867343 12.694138894705265
Ti 12.163179566715083 10.462470844341649 12.380713390755709
Ti 14.466930854900516 10.482558203683919 10.350242775773348
Ti 13.391559289746189 9.90804264579637 14.722177258198165
Ti 14.570915487765909 9.111807613327763 12.835030278123144
Ti 11.0569346909931 11.12270352207021 14.770775572698549
Ti 12.403602777235749 13.255565177568656 12.737154930564976
Ti 12.744147627327644 8.154615948590672 10.683971085140275
Ti 13.59462679269538 13.336265460800934 10.149541704932968
Ti 11.834805417374369 11.303628905446669 9.888655579060893
Ti 11.285090449339775 8.158424973286136 13.025435639391405
Ti 8.677947881291255 7.585360667742529 12.284254191564361
Ti 10.775627676084653 14.119462873766478 10.576010431778373
Ti 13.493722426985073 11.664476742167105 7.993597710511128
Ti 8.243763343404895 14.218260392095013 13.72581899023737
Ti 8.986705796699336 9.917909768920866 13.266451113301859
Ti 9.224644250192249 11.879973571949172 10.086474109916333
Ti 13.039745941497003 9.258863917483318 8.423930493602548
Ti 8.469477234842905 11.996064863342053 14.854823342607375
Ti 10.599168397849587 6.6247063852668715 10.827826504213794
Ti 10.179344741142593 9.231513175496001 10.7943329431831
Ti 9.860862345846328 12.395936855057494 12.667128756830305
Ti 11.183760970854753 13.261540267559106 8.059388361418735
Ti 7.447993581909274 9.697193030287497 10.978835266258248
Ti 8.415452123180932 7.517786751792637 9.726915274396456
Ti 8.702011841968385 14.197377016634263 8.72106654695693
Ti 7.973726955081148 14.178961383303747 11.057382217740015
Ti 10.98729173193871 10.602406051001578 7.392687394074825
Ti 7.211980901137459 12.101807791571119 12.375046314430627
Ti 10.749121059485345 8.044728911832921 8.483536238424662
Ti 8.415383615764924 9.774089693153273 8.448794356736865
Ti 8.87595593678882 12.133983301006795 7.397890906250287
Ti 6.937827011666989 12.191143155321141 9.321657968637746
