45
Energy = -298.51753235 eV
Ti 15.322108329949245 9.300050145467987 9.311001531604045
Ti 13.559349906013864 10.294287630476136 7.745067185062949
Ti 11.491505859744358 11.964609446834567 8.039348729970971
Ti 15.637933245575418 11.713142848682608 8.89520364734677
Ti 13.641138452244324 13.10392629227471 8.242205275040158
Ti 11.276341116590086 14.70847043705027 7.564391816402103
Ti 12.867390986196826 8.190393107243475 9.865776050404921
Ti 10.90899026027347 9.872542072004133 9.715468424187609
Ti 14.878292727686848 8.394241041525904 11.508119499979506
Ti 15.895638051153615 10.84929597005356 11.503563983111183
Ti 9.392424003851696 12.847074277143538 8.81468829787367
Ti 13.355559998537686 11.068988407962872 10.177885526596178
Ti 14.754123608585564 13.425894139954831 10.822765727749292
Ti 11.630749634853418 14.137409156184743 9.919064611067148
Ti 10.113899161366174 8.154086092178625 11.745931604639807
Ti 12.921274216700665 7.318089465192359 13.052861137796118
Ti 13.894868768637801 15.70447004068688 9.628117354494936
Ti 12.47986985255841 9.485205843760742 12.194521151484963
Ti 8.679721216502326 10.429505485784501 11.012646869774095
Ti 13.766567031298965 11.487091646170468 13.004801291614823
Ti 14.917390583566661 9.135417298584326 13.84066173156842
Ti 9.346954215220283 15.532211375151098 9.158896618664365
Ti 12.594526842767959 14.028149445544647 12.389820352916846
Ti 14.668077798590595 15.770630595448733 12.29512255868585
Ti 11.464886852078143 16.782340908736657 9.392542849026858
Ti 8.33713497445375 9.36530413299808 13.66263130273043
Ti 10.778689772691354 12.154671749456778 11.197437158324732
Ti 8.71683804143295 13.865394336282668 10.981921455728541
Ti 12.775172679761273 9.47983429008648 15.073091449279831
Ti 10.672222434543457 8.014710064248401 14.239695441791694
Ti 15.081797163283682 13.530660395929193 13.483862911289242
Ti 10.389589765456261 10.571955778844485 13.203097645858234
Ti 14.725146065913599 11.497376988126822 15.420313651302607
Ti 10.228377697581857 15.949641049563219 11.720680430127015
Ti 8.049116826825085 11.960769445389218 12.77912552204969
Ti 11.771378197560447 12.276045703610098 14.704465641936322
Ti 12.59356107643343 16.84675628588611 11.593444681516772
Ti 9.856314919642337 13.855750474258315 13.458147524563978
Ti 10.251058765768347 9.9859268628892 15.85737581161767
Ti 8.84224353148999 11.84615696170554 15.140644699801094
Ti 12.73894006019903 11.998193609314951 17.101251316092693
Ti 13.742008336784975 13.948709089488172 15.644292727965071
Ti 12.228349235711013 15.611552622454713 14.067593843176375
Ti 11.27532972686607 14.196407264618403 16.371601939762506
Ti 10.308464040089312 12.1735714595778 17.312887618330794
