49
Energy = -327.34042213 eV
Ti 9.244856797482303 15.671762978181883 10.851933462955042
Ti 8.213332767469138 13.32296985782236 11.47086877703235
Ti 9.742301010607529 15.080203295067655 13.524919202091798
Ti 8.351505078047628 12.698058383801632 14.101309469995508
Ti 7.611087208848086 10.739442812535167 12.269801429396752
Ti 8.686909865189396 11.207965178164946 9.89464378937284
Ti 11.359225187869416 11.503882027561394 10.05373249457091
Ti 11.09537000608791 15.956179537765799 8.963425166383285
Ti 9.405743513014139 13.726994700821177 9.038130886345977
Ti 11.528632991669506 16.422495670783988 11.647261624476368
Ti 9.164816214308429 14.04362861405458 16.0309678638171
Ti 10.941729760367654 13.799341507079234 11.66616488484764
Ti 11.188444395711613 15.587134675826823 15.817603275467754
Ti 8.685581496419758 9.735981699187988 14.036985810344826
Ti 13.484329339177755 15.494244684436362 7.710581467589065
Ti 10.161653459148061 11.472298413053535 12.697946858472445
Ti 10.67714602019136 9.318956686064992 8.843155640148355
Ti 9.806189852192173 11.454841079054056 16.089910662971036
Ti 11.461912875685709 13.118711385618106 14.639550373439583
Ti 11.17596861164043 13.366952988497726 17.325105495587536
Ti 11.490239051477637 13.661920838169138 7.160669087311716
Ti 9.956864304892756 11.564257717623413 7.658451573342799
Ti 9.95710235521024 9.219705836385897 11.494443855687134
Ti 13.59239373825786 16.308399118064557 10.166162466960158
Ti 12.397845165680096 11.098139545337688 7.546630273386215
Ti 12.86753439391022 15.275818846597547 13.803739046466042
Ti 10.859264817982142 7.321719512757706 13.144483340704891
Ti 11.79698551731022 7.170786226560382 10.49967945441983
Ti 13.37322925295387 14.253158832061422 16.25632016325093
Ti 12.57913207690486 11.363132705537959 16.292139710085472
Ti 11.162686327375473 9.699609316721023 14.4677562899095
Ti 12.689458938887826 9.043675401046663 12.129239663578632
Ti 14.155029077886729 13.033620574489104 7.46888109793806
Ti 12.632501183328348 13.84622881271671 9.52413868099751
Ti 12.984644635550655 11.810524812563164 12.295582480720697
Ti 13.27322149898161 9.325220753027661 9.432590405900298
Ti 15.250751682270009 14.385867029034872 9.412774573500986
Ti 14.02538869678166 14.194835545739332 11.828193557609465
Ti 13.182382382217996 6.341586605984853 12.587761637345473
Ti 15.665936456379173 14.918095769303584 13.874522882001619
Ti 14.42363330494227 12.889117263185826 14.43951738423012
Ti 13.978389139149073 10.299879797660719 14.14099545882521
Ti 12.92294195796932 7.881452494511565 14.739459262710069
Ti 14.38227117565663 11.761639438897294 9.899294238317138
Ti 15.456386784033631 9.888417518343793 11.597252329170216
Ti 14.45670449002776 7.4610409096208885 10.765073247388528
Ti 15.787863653684449 12.402745290723262 12.17696431465389
Ti 16.416850962892255 10.703588307647701 14.095065244442642
Ti 15.123336094650323 8.00933741595341 13.29419461313305
