40
Energy = -265.02604381 eV
Ti 14.387298600141486 16.252200157093256 11.000808608398273
Ti 12.168775381873479 17.25946916546184 11.231110703639006
Ti 12.723625600307518 15.684730779831803 9.073885342470012
Ti 15.21155287266639 14.420006884317411 12.598844755849525
Ti 14.622132718042858 13.888062314429522 9.855222583710434
Ti 10.361449131378254 16.0569691356688 10.109490621197397
Ti 13.227747586167853 16.151055154510527 13.373748589828857
Ti 12.270248347079987 14.455156068581895 11.439473077455919
Ti 13.134980298644644 12.82282378584047 7.821024241896801
Ti 10.411951935821216 16.018465938686 12.7507729886288
Ti 15.961277459421085 12.351057472354274 14.071887974813214
Ti 15.09491159091043 11.466216807651262 8.94798473266971
Ti 15.291582354105696 11.877937846293735 11.518376051952067
Ti 10.860814779582647 13.687887153248875 9.057268002082921
Ti 14.471654954560236 14.186286335065846 15.235069723997556
Ti 9.091070867843568 14.162033768354416 11.26583174260103
Ti 11.560645029933125 14.502009861195686 14.552554025282056
Ti 13.226893927710549 10.105799409454319 8.084453933588335
Ti 12.674071170157038 11.70766283374042 10.248810527692543
Ti 13.319481799287937 12.583275776351748 13.495364517129534
Ti 10.57980690057114 12.500159695563662 12.803768523256409
Ti 12.587999690672664 12.96318024905842 16.404571008937868
Ti 11.032176178723303 11.246838006396983 8.074085857932044
Ti 10.099066268917843 12.78008465331097 15.814584051001498
Ti 8.709822371661483 13.849394649998008 14.00735655959006
Ti 14.127877722085719 9.485297816082117 10.54258487083602
Ti 9.768178192807813 11.549206454734502 10.310434008323597
Ti 14.63706294376414 10.017448576710335 13.384600542157486
Ti 14.388656834493478 11.417245652849438 15.732177180467167
Ti 7.9660482269259525 12.020295388243271 12.28733955488637
Ti 12.017490003135585 10.121366195526278 12.432753468538658
Ti 11.717462041203188 10.839685726657411 15.0593677223954
Ti 8.891614712646689 11.084426255217343 14.43820884201305
Ti 11.457201401916459 9.328682371828773 9.936092069325923
Ti 9.317974693051267 9.694515153013635 12.174417318619602
Ti 13.434339935668623 7.78103065636232 12.626955497665396
Ti 13.1100425233124 8.58047960497791 15.051890580413396
Ti 10.556000278841168 8.499351528455014 14.245428524573978
Ti 10.791920430979301 7.470705075577968 11.9096081177843
Ti 11.91454524594097 6.4157560100827435 13.949332263875702
