40
Energy = -264.10277968 eV
Ti 11.55119852721138 17.278769082292946 12.971795398877898
Ti 13.773207041926838 12.228514181195262 15.698922385374294
Ti 13.322802606814546 15.449758618843278 12.12896642557719
Ti 12.413079585558389 15.298328407874182 14.616678538079915
Ti 13.963403815751898 13.309543697817123 13.40699279734975
Ti 11.401300734609418 13.364473993834308 16.26725714325752
Ti 9.816412703411189 14.881877853595222 14.888627255004272
Ti 11.540807739238167 15.820465342906067 10.22902890781252
Ti 13.960196355375745 9.73238866302926 15.3156245873913
Ti 10.308728937665016 15.311929378242633 12.43660513613408
Ti 15.600200971170933 11.344956898781948 13.984457753455603
Ti 15.049167807030571 13.457894160831671 11.027398272243278
Ti 11.572661878757987 10.840798617464799 15.633662772056686
Ti 12.269875347595764 13.160699268368289 10.959538434814494
Ti 9.726882909921414 9.722738182842589 14.621294464614314
Ti 8.371548091936504 13.349560189309036 12.952486792172435
Ti 13.056416761193516 10.83009587160274 12.885682235126149
Ti 11.244161514806526 13.025961679622684 13.665808149096506
Ti 9.169364038498875 12.202556565911621 15.201196703211576
Ti 13.802352957693225 14.895931926659369 9.486013190798486
Ti 10.09795063341799 11.069656052148257 12.090473963630542
Ti 14.250664524213594 12.410094323529528 8.529015831119063
Ti 15.060464426290942 9.026025578241251 13.202103139409566
Ti 9.564652333724348 13.778208573043289 10.603421076330369
Ti 9.29601765783933 8.44243461948039 12.593099032683151
Ti 13.71367312312645 8.521202939056108 11.159552992563183
Ti 12.018056981417033 8.661116207618884 13.515520841901152
Ti 7.753491458782169 11.920876030633016 10.843158701792822
Ti 12.661140002198632 10.629181683694808 9.749244955177927
Ti 15.085901582479956 10.944624508390842 11.21411992108787
Ti 11.699955781435884 13.86385188177258 8.409962493159203
Ti 7.7259070553819384 10.588294975337725 13.135381156092372
Ti 9.998290366993698 11.56875503653901 9.365304051979255
Ti 15.05330911068912 9.607736995261096 9.019597200238536
Ti 8.39324388190085 9.584497364878866 10.569717041854503
Ti 10.991793598978557 8.790316385728872 10.648898535515283
Ti 11.735350510411376 11.744917903879555 7.324524206634154
Ti 12.934849474477058 8.090942101532182 8.760812432509427
Ti 10.892509658741183 9.429964414788635 7.999693140369165
Ti 13.414091424115567 10.072210590534475 7.159634666740753
