42
Energy = -278.31651351 eV
Ti 8.839924378502655 8.245044128839387 10.616408006848792
Ti 7.483981366828573 9.317716252682763 12.428939361989771
Ti 6.580407942109722 11.797126198781964 12.485775579082595
Ti 7.664367200490722 10.50793202228027 10.110064857337377
Ti 9.084787879381159 11.93476169583124 8.497568725994704
Ti 10.156858942322232 9.272319013792009 12.619736354803518
Ti 8.415103482517717 10.431683988941987 14.425936706009674
Ti 11.28053033321461 8.008574152300639 10.309426412627362
Ti 7.672606836330985 14.1963433261754 12.73461660750076
Ti 9.62717386870507 9.320880908088597 8.384207299711907
Ti 12.23381534816802 8.987341292645496 8.33740101762887
Ti 11.243683539345104 9.185164592644865 14.95928142030012
Ti 10.901127931010324 10.742308747703818 10.253676884002362
Ti 7.708197948549008 13.190094960086943 10.320432084061038
Ti 12.643580260466814 7.871580484913861 12.842698921073769
Ti 8.026930927047436 12.711213219197637 14.73886239073474
Ti 11.422223218561207 11.311077584470958 7.577903501129828
Ti 9.093680374935676 11.915916232636354 12.107742447532722
Ti 10.803469648755733 11.876031999262793 13.995834640766603
Ti 11.130962025424221 13.587230131196602 9.196767332209072
Ti 13.655787368410666 9.448704119245503 10.561685148477428
Ti 12.074952614842875 13.029300545019368 11.81741076939234
Ti 13.532825737221954 12.103896792755435 9.723340335231857
Ti 14.109062991533564 10.668575755153356 7.6030736110899255
Ti 9.902462748733052 14.650849793179205 11.494549238397372
Ti 12.76480021098005 10.470361792356954 13.0059710855555
Ti 12.215404164640114 15.56684362151012 10.79373251252643
Ti 10.431526702946348 12.349734276685972 16.17962974310678
Ti 13.113576845454956 13.20356969718818 7.272004564705502
Ti 15.09914032348717 9.147823040211728 12.703934814000684
Ti 9.857307540178793 14.392583069106657 14.22518246855954
Ti 12.847940768522232 10.994229645326115 15.845642457914947
Ti 13.851429089348775 8.789904023618147 14.951962374902855
Ti 13.204455671395397 13.14362001857 14.409403537952016
Ti 15.52028736033319 12.84603208963804 7.977354128670617
Ti 14.345968158375918 14.50064721954292 11.987332590732295
Ti 12.066667599160471 15.290757633907347 13.243873861016414
Ti 15.907300044639046 10.825381084471067 9.676515615251034
Ti 15.037359479698274 11.044913143286099 14.56815387263002
Ti 14.017392756727636 14.72202582849203 9.257729876288597
Ti 15.052266207156169 11.75447268704153 12.084975906713957
Ti 16.035928184701234 13.332068659213725 10.320059143427176
