40
Energy = -265.81151872 eV
Ti 15.042091041128877 9.096484344742894 9.814356724601783
Ti 15.086314809448035 9.30124076351628 12.440593326253724
Ti 13.835330920792465 10.415261887445848 15.168800892023786
Ti 13.151632815743882 7.784672510841929 11.201069193748936
Ti 15.558295410302527 11.374637785936846 10.876635122198982
Ti 13.965155995383942 11.356556671358181 8.696832802205734
Ti 12.749832089582197 8.91745279824324 13.484150404831343
Ti 14.239581763603816 11.86180250332188 13.081807900031807
Ti 11.153419647752198 9.696332463033738 15.501827319145313
Ti 12.429205363723858 11.933045682329583 16.426141646854408
Ti 13.006323256952683 10.43052361073754 11.007680499949258
Ti 10.503423138023592 10.383539019456206 9.500828682634872
Ti 12.809300099809455 8.558777418836595 8.682589944106173
Ti 10.022485568552089 12.000763554329149 16.136551414910283
Ti 15.048200904675182 14.39961683449557 13.021321813421446
Ti 13.837144561737658 13.375633928176688 10.718035964366104
Ti 11.498509561728639 11.636893174198473 13.786029002777733
Ti 10.712411758397092 9.380087398112583 12.336323457586467
Ti 14.036008548116271 13.560407065570425 15.212492654495954
Ti 9.017079643153462 10.669987084292758 14.189903184298986
Ti 9.293232391786063 13.43030172933139 14.125058476260222
Ti 12.047482426241487 10.502087418634146 7.049761447226621
Ti 11.280265024028287 12.585842597657017 11.028743292421918
Ti 12.291373631806678 14.262666487699631 12.986005523852578
Ti 13.86220704102193 16.010693723664396 11.638361003114017
Ti 10.54199593278306 8.570954402124237 7.438163620094865
Ti 9.059479580433068 11.672882545114861 11.874154918416979
Ti 10.538596127726912 7.710741795308186 9.965916825535034
Ti 8.514694338988463 9.173159719472993 11.124295723713953
Ti 13.259366433536233 16.126876364459267 14.374113943282241
Ti 10.456561131080141 15.874778016269389 14.215135228675083
Ti 11.539353607300749 14.29667802877499 15.78866550733598
Ti 11.683828991226102 12.72549714370421 8.300088507639382
Ti 9.71740319367973 14.72951278877777 11.883559407292482
Ti 11.554689232948254 16.78724781692971 12.301382100363956
Ti 7.885219418716168 11.215026983078838 9.498338623715544
Ti 9.451840172339505 11.08647724737626 7.240769194124105
Ti 9.488490033975468 13.161654013344638 9.209653365187314
Ti 8.435527172123496 8.895613580803728 8.550935406199319
Ti 11.70455303347759 15.019922774100245 10.267919797344783
