49
Energy = -327.9550201 eV
Ti 16.247463509437193 11.905859680166252 12.926116279658167
Ti 16.067567079550955 11.22601239764855 10.522702571604114
Ti 15.536704774135373 13.84363199543917 11.437727530195305
Ti 15.621671973033045 9.446743131928773 12.73513248372327
Ti 14.692266877691576 13.111534934758604 8.726841409496615
Ti 15.121710531079854 8.962663421652676 10.200930584144478
Ti 14.67422028812673 15.582081776975006 9.754836425455462
Ti 14.789587921756407 13.864416952233267 14.028817269039626
Ti 14.42334176381759 11.18199565149981 14.595476141980622
Ti 13.78238286327782 7.574747271708701 11.824246083467193
Ti 13.780503217535989 11.148573130929718 11.84703507224247
Ti 13.618108545051326 10.644786578289207 9.019664421757227
Ti 13.841725301017949 15.77599860573018 12.30672991819388
Ti 13.273201691937842 8.773919456758028 14.220104996491589
Ti 12.836048443781936 13.856598969534538 10.53431002181991
Ti 13.168071311748134 7.738656543909745 9.106421350088612
Ti 12.945744732926448 15.034997917096232 8.063995257313271
Ti 11.758510699843825 6.313650346780068 10.75014936320166
Ti 12.7970542016893 15.459202816341458 14.742518211402732
Ti 12.841649766990562 13.091390246550993 15.908010965905355
Ti 12.511461091884833 10.473368994155791 16.003078278311843
Ti 12.267632326935281 13.228014258791088 13.300295197492508
Ti 11.294705303157748 10.613719077111782 13.43216249685558
Ti 12.042763106764143 16.367975411912386 10.14273607285343
Ti 10.574100341921339 9.032215395965052 15.388957704349373
Ti 10.226792209831858 13.687629156295188 11.483617464790031
Ti 11.48167917529258 11.6656636029527 10.195147486928873
Ti 11.633433606331627 9.052323727731391 10.888743961494594
Ti 11.330155105196027 7.340687634044925 13.132791049919703
Ti 10.462367834754115 14.514858973008183 8.727425508972274
Ti 11.281191100180559 9.886201989801371 8.124580343180014
Ti 10.378173345134465 11.83159950581757 15.885699644772856
Ti 12.147220568848457 12.62164959784221 7.769353304091562
Ti 10.607786947126922 7.477320158532725 8.836737973784063
Ti 11.104601731264237 15.880672196168439 12.74901699844153
Ti 9.155476669285665 12.881805900263368 13.822193846581131
Ti 9.340214244322464 10.975555871709513 11.437502821778189
Ti 9.337032898263535 7.447864845590326 11.094278932238993
Ti 10.568570570999883 14.521090354503981 15.081525041929549
Ti 9.34896645326028 12.044189051770893 8.466102833400814
Ti 8.476409562307957 10.610583101338428 14.23990055767857
Ti 9.419922629113463 16.05402851660111 10.597583365763638
Ti 9.104469216659023 8.51795842271779 13.323171383028047
Ti 7.200433722483116 12.447109071634989 12.204122980912212
Ti 7.972876639265788 13.866456272573167 10.07459408391758
Ti 8.298586063208326 15.056230969850041 12.58870993350442
Ti 8.943453765952839 9.442743953057018 9.188852699630456
Ti 7.329067124565938 9.484528278873446 11.63499322849353
Ti 7.233922768520907 11.329495500718197 9.825360064987162
