47
Energy = -314.59525631 eV
Ti 10.719414305518736 12.232714977713488 6.694162881309082
Ti 13.449983197257087 12.476040299360319 7.070634982008445
Ti 12.375124499587384 10.09602616519493 6.5645820159521575
Ti 13.71757025865125 14.786291915336538 10.370756326563319
Ti 9.986400418298752 9.576797694807768 7.192678326161848
Ti 8.217483626039208 11.453613007941133 7.124635017191531
Ti 14.616210445741952 10.09025794204547 8.06866093479902
Ti 8.954406266870086 13.813767690300706 8.180601782002183
Ti 11.654837289709699 13.825621275189198 8.820585312705516
Ti 11.31062119665532 15.437140524997107 11.089528208276093
Ti 14.501460121192606 12.50458988043083 9.508822593285737
Ti 9.774624315593028 11.641452020093526 9.297946065578843
Ti 12.298563455294001 11.21381468796954 8.944071738022227
Ti 13.413473059338605 14.680163196716702 12.934225486382497
Ti 10.619156097779188 9.043445642798485 9.823288179337576
Ti 15.583168365834252 13.449107431575746 11.859653255354436
Ti 12.745926111021552 8.122186506704523 8.300316713767854
Ti 7.968766339470542 9.47498505553639 8.986083127585747
Ti 9.151068719994662 13.546262047384944 11.156663634459322
Ti 7.225327894886942 12.265297227447208 9.35431838093876
Ti 11.908674579328073 12.929150070242198 11.33501767871267
Ti 13.05935820803309 9.555699049548892 10.771003116459653
Ti 15.713051757970703 10.568788852451009 10.616134950773132
Ti 14.967506088813003 8.072337787325461 9.82020193696525
Ti 9.916066434565325 6.960720387394576 9.499502873319376
Ti 16.305949138630847 11.169807820975695 13.224151044757537
Ti 10.82634634015971 14.364363689999456 13.429411681904078
Ti 14.92815416585284 13.013197140951696 14.396909153326368
Ti 13.846297342695605 11.474083656705874 12.467918144350913
Ti 8.326664625873935 14.626890889063777 13.639496179469317
Ti 8.4800250647593 8.38708444967578 11.540165217108925
Ti 6.799097216437228 12.856738606322894 12.566454158897324
Ti 7.922264011874128 10.862341730954373 11.319070454476668
Ti 12.619290185722852 7.016522148256495 10.683015243266015
Ti 10.592223481052013 10.505417910604665 12.072432474495491
Ti 12.238121470046826 12.441070841972572 14.435995184970851
Ti 10.628536435106412 7.593416372490175 12.188726964336277
Ti 14.812065925799766 8.943668934788086 12.61018235319191
Ti 9.259323014017577 12.148394996203304 13.641798206942328
Ti 14.292604618419817 10.562780222629575 14.892261580144174
Ti 7.131267255781253 12.8129502309511 15.14633623756
Ti 12.288911940480963 9.422125129336768 13.618389719845958
Ti 9.735940881642541 13.313658449305306 15.853955610103133
Ti 7.019752204183092 10.470607183178606 13.801236412062554
Ti 9.328424584846072 9.123490755270815 14.149526461804708
Ti 10.889711023209031 10.76420904781196 15.555814217287617
Ti 8.467491490677226 10.897613926758751 15.969383252500645
