48
Energy = -321.53356599 eV
Ti 13.774139860908216 15.349408506499966 8.840756336978764
Ti 13.561942556548088 13.818976192256812 6.4136584900407465
Ti 14.73058942316447 12.60635752649507 8.263989442063487
Ti 14.757593484355404 13.484293251811065 10.594660462378291
Ti 11.812539852899773 15.60637895760442 6.861668990923747
Ti 14.575151366289857 14.856496117982253 12.86696513268553
Ti 16.030110688599898 12.678380461241401 12.857787204132904
Ti 12.353089158806537 14.606344142459763 11.249293748630688
Ti 15.198359108625175 10.727523766681456 11.090775464477032
Ti 11.081991095388398 16.045143659585154 9.312522431654129
Ti 11.06372051842812 13.166712141067816 6.083353899595087
Ti 11.93222957339672 13.620364997779758 8.578397579483976
Ti 12.803310313918695 11.311048843740254 7.179446999418191
Ti 14.488744675190876 13.16820234493773 14.958222487117716
Ti 12.885752039870173 11.5455826836494 9.854991348582375
Ti 12.40171521975976 14.851831903102061 14.310838814412454
Ti 13.418238767757693 12.465407580174949 12.677342005319302
Ti 9.554085015137685 14.49619024877726 7.629043276006833
Ti 14.894138213785816 10.294440330141347 13.701886966477353
Ti 10.297759338595093 14.873731333894508 12.702524691493844
Ti 13.834774532649984 9.001446128296049 9.539137855304192
Ti 14.563438109748143 8.206064536309928 11.899715609014017
Ti 10.405305937340012 12.176553903868525 11.303770684782178
Ti 12.247045091541173 12.993188842825708 16.104703889217454
Ti 12.982242871468191 10.56260110900508 15.189176437184967
Ti 11.568337291520267 9.225701865559902 8.952724323537666
Ti 10.167618250721732 11.802127026036487 8.462315888311922
Ti 12.684139057212397 9.981919802300025 11.84811734004035
Ti 9.51086628081575 14.044799559685826 10.158432868771982
Ti 10.974434058475234 12.372827111224067 13.794439496415608
Ti 11.836646701975164 7.527248688849759 11.353022710515878
Ti 9.83884336893462 13.904782965464115 15.299183551855474
Ti 12.965521465521661 7.9640776040708 13.913990466959088
Ti 9.7783548684224 9.546476193501668 10.970944866696
Ti 8.956620163106034 9.478460203355395 8.279230523104939
Ti 8.391537368130063 13.49886552337198 12.940851694927035
Ti 11.469814072065606 8.509527484769986 15.934004836802615
Ti 10.483607933758945 11.033214373822327 16.099815526015618
Ti 10.582375853055344 9.635510023105297 13.65848552459917
Ti 8.038172442647415 11.47414405617416 9.760512500813743
Ti 9.724498900503946 7.371002590499588 9.467973262818015
Ti 7.709741964370104 11.074178682353137 12.117949922945659
Ti 10.31247652275684 7.1069649466436555 13.957023522744315
Ti 8.449415457252961 11.271915123506693 14.519564982985079
Ti 9.01653001916943 6.999211107563188 11.716816041760037
Ti 7.465946853966566 8.718313637364039 10.358137583191983
Ti 8.988834098085922 8.792681450283046 15.619186357103692
Ti 7.9571492070003575 8.672869483949496 13.272134973350605
