47
Energy = -314.43888289 eV
Ti 11.057755291475448 17.681198578418574 11.696595572643531
Ti 16.296893204337717 9.00419396058771 12.999282802036905
Ti 16.139201109374095 10.100100089447436 10.67053916084673
Ti 14.001159895177684 10.164754159859418 12.287896324723176
Ti 11.886881472797471 11.300213530642822 10.889405181816567
Ti 13.148218324707306 18.20024265324849 12.841498613437237
Ti 12.463786433762564 11.458171541597817 15.234102215762867
Ti 9.273428147264147 14.391516631472724 9.211500302880408
Ti 8.145478913379344 10.903358518883275 15.049512095131938
Ti 14.189707645927053 7.648297608863124 13.984454441957464
Ti 13.342352677138239 15.546578857525219 8.421789937929393
Ti 13.240490305346006 12.700811616562374 12.899337093154625
Ti 13.910140955364595 9.989751960848226 9.536155754856045
Ti 15.018336873743031 10.177339471353488 14.87334011943786
Ti 7.738542221416273 10.929265998710248 12.526956383083848
Ti 11.37719731592015 16.669413163875888 14.20116650270331
Ti 15.249041788345622 16.851023003074907 12.131859180115628
Ti 10.82841039335374 13.967547481190577 13.39334647647775
Ti 12.899043092211356 8.966186002393751 15.788476200262872
Ti 10.378825451574635 9.665248659374686 15.694772856666209
Ti 14.901961844303768 14.968482316323685 10.31564058109702
Ti 16.147813153163835 11.744326783714884 12.878015560349839
Ti 9.628726504154304 15.518232745047317 11.570421282457614
Ti 12.820620567262779 15.629240392122725 12.268083784340764
Ti 12.003696938070041 8.506765379015793 10.362655755409836
Ti 11.360211765802656 7.05746888912819 14.5219941050081
Ti 11.765133812625182 9.081880613717795 13.207534439676557
Ti 10.65772651746187 12.128900127017562 8.748461444661869
Ti 10.27095698440093 11.271410682294263 13.398493785825568
Ti 12.71529699147541 14.354019823275742 14.914520782964184
Ti 10.211776348317562 7.283851555485086 11.992841008047533
Ti 10.076441860235747 12.521630257592955 15.771470081160933
Ti 13.304174612136965 12.836520354091917 8.390553110891345
Ti 9.579725323106157 9.697173073443153 11.096852572759115
Ti 14.153170351978174 16.494062150425776 14.505156963305065
Ti 13.424526368312266 17.37508163861265 10.27031615116661
Ti 14.522998100710037 12.29056023489199 10.649582018271916
Ti 11.304457050986507 14.400069834592548 7.638609295240603
Ti 15.289943626921676 14.426176965620975 13.01523686124029
Ti 11.819778748140514 14.098408283719518 10.239869794667678
Ti 10.934038181055474 16.517744171010584 9.328288425091529
Ti 8.965188715691667 8.748649248304385 13.70604623082922
Ti 9.560133858443843 12.740206024475514 11.253800676445074
Ti 12.578451546961174 6.667183220501807 12.18758728684214
Ti 14.661423275657665 7.867151367126419 11.173940731680208
Ti 14.890625051335592 12.83114824961164 15.041927358677125
Ti 8.401821841371792 13.16415358360479 13.755824148667804
