45
Energy = -299.00345454 eV
Ti 16.207548014306408 12.472904509361008 13.23904906560145
Ti 14.6937654868015 12.176702854673009 15.45770826749048
Ti 16.0367363014268 13.759916632716221 11.048207577185158
Ti 14.07428015215584 11.929676049882415 17.86996898345929
Ti 16.279806558971057 11.032448374568421 11.042057071420476
Ti 14.379657387077739 14.442242926214485 13.136710159070592
Ti 12.913114441997024 14.183868974776061 15.769812223883553
Ti 15.364622333675328 12.399256526233458 8.8125864600329
Ti 15.099840816104381 10.109098786204934 13.458592102828886
Ti 13.458898915108346 9.820001594033455 15.711472290200541
Ti 11.632686080568462 14.473116089726439 13.300989239436792
Ti 14.002775283102384 12.235681312734144 11.74384700965364
Ti 14.452352728013489 8.87403857504672 11.182689313094164
Ti 12.786096628024875 11.71568623821635 13.998217780239226
Ti 11.921000321279022 11.728803325544035 16.457342828596595
Ti 12.75656808518393 8.43227690035756 13.357732617969416
Ti 13.182713269520432 16.4522953063919 14.069673369138075
Ti 13.53279801626138 14.06378081675544 9.901505449386184
Ti 15.544074287514922 9.749069858000375 8.981483675867215
Ti 10.156080221778216 13.781192631803812 16.034859543932576
Ti 14.218213906009222 10.59819602160451 7.125465502779217
Ti 11.052656391761 16.1128065905616 15.446628262741005
Ti 12.81849251409041 12.829490690074351 7.562921544086302
Ti 13.07196326191421 10.95300352406425 9.575373936478908
Ti 9.28510241770209 11.163722011813313 15.875609644217988
Ti 10.851378698529341 17.034860990279885 13.080237512121991
Ti 10.26315679064664 12.21989282913029 13.622700102367062
Ti 13.22015761153836 8.532390633092492 8.601952349516083
Ti 10.791689609598341 9.58294416943036 14.73145474304901
Ti 12.123817106668616 7.84699534727167 10.893260333066056
Ti 11.700718174848893 10.403029065160045 11.988834994581422
Ti 12.573889720048339 16.04402602263496 11.395487807603605
Ti 9.00435951057539 15.225128080300847 13.998412784487876
Ti 11.808173188535157 10.334981392393717 7.22592215499803
Ti 7.955502168250886 12.928609676644191 14.713641357708255
Ti 11.23367009248726 12.94778773128501 10.825753890862725
Ti 11.10977147671866 14.701325755405948 8.842218568177708
Ti 8.348006618682417 10.626310658543831 13.38179394730147
Ti 10.617865470829082 9.378214082262842 9.439749769003141
Ti 9.869046043389462 15.320387333458418 11.319858824531282
Ti 10.089608109768042 8.594666715995313 12.290879448934742
Ti 8.27349912981372 13.269183796200533 12.104860496716498
Ti 10.367932858693678 12.010403740614219 8.32333972706801
Ti 9.162034860728774 11.142067657841002 10.75794190350725
Ti 8.916629897575508 13.581663940790868 9.551451301642997
