46
Energy = -307.60327417 eV
Ti 15.329017665208779 12.694276863252018 9.010605904844116
Ti 14.947299337367957 10.629175220853128 10.685865724127508
Ti 15.43896552915671 12.405263831425755 12.750967731593391
Ti 14.748349326640302 10.231905793075887 7.827169265644204
Ti 15.16047322492266 9.878956517298434 13.233757826822245
Ti 14.680956880007797 8.085815147794621 9.629407817541138
Ti 13.91173761628298 12.498126390747897 6.8442514345033105
Ti 13.850442882345233 13.817093810721719 11.094514704008555
Ti 13.07673663879627 8.117347447501908 7.447353203138542
Ti 13.998759480203681 11.583670859675648 14.962467026652462
Ti 13.436447822108292 14.496614833824168 8.507503112854224
Ti 13.457121042244651 14.123783710317733 13.761716475680585
Ti 12.718111247544693 12.112044542996152 9.299957196944334
Ti 13.150271039651733 8.91009845635636 14.685432874006977
Ti 13.077556375276624 11.301109334332166 12.412150085518922
Ti 12.23471409742272 7.072658200426493 9.681848808023576
Ti 12.172247649153968 10.526044136188192 6.79715585165901
Ti 13.15523524804877 8.608462565537554 11.878224665411244
Ti 11.936020175732036 15.638637683059429 11.884080364723417
Ti 12.643417513502724 9.637767261841088 9.487217163323512
Ti 12.093918296116605 10.48008525324026 16.386706075667814
Ti 11.45381134438146 13.293517912529728 7.171769014221314
Ti 11.700282299043359 12.844525799793363 15.284211173143328
Ti 11.33277647717072 7.5614376205458695 13.321604594553298
Ti 11.328823500190657 13.179345642661723 12.386770788720519
Ti 10.622787692680605 10.642758347820338 11.109546535302231
Ti 10.04833089602228 11.537408996644334 8.338396995173257
Ti 11.114971387178898 14.027297506033646 9.859479720039356
Ti 10.18567032548196 8.170984907268538 10.933003973714525
Ti 8.905498650947532 14.36196276971182 8.71014260201985
Ti 10.82357824953003 10.31655785643697 13.878760573192418
Ti 10.513040010410474 8.761226095027645 8.19544872902885
Ti 10.367278285805625 8.583058849739283 15.674085342444025
Ti 10.682314344285363 14.955724481644598 14.140531381055569
Ti 9.722551485453842 11.277031796288849 16.232311752120953
Ti 8.748171654423437 12.51569095667747 10.767963679972006
Ti 8.951213574403747 8.207681617582248 13.387901172642767
Ti 7.382371848283265 12.302782706248069 8.40009666550481
Ti 9.185523087334078 12.54663917473953 13.769760120800742
Ti 8.309275678496512 9.972864264642666 9.670591944603249
Ti 9.260130967844182 14.821898589102263 11.834599653148462
Ti 8.195495628767494 10.146287578000013 14.870085942767599
Ti 6.728929218536311 14.070316849069318 10.229054242225065
Ti 8.018137861450251 10.410177312541752 12.267903416795328
Ti 6.199461811426475 11.563919991681285 10.56738000548184
Ti 6.916573592334019 12.99476347671953 12.64504562825843
