49
Energy = -328.7414285 eV
Ti 6.699293463376734 11.199852171724741 12.221125167388006
Ti 7.872658595736093 11.3770044434075 14.518043141533248
Ti 7.259220619833806 8.92512173026038 13.620002724770936
Ti 7.162157385587868 9.112453373728505 10.880980097412644
Ti 8.513369636631476 13.294665590315951 7.949854940199964
Ti 8.440900934728758 13.199959193940117 12.547816862043875
Ti 9.46360327817237 9.501437768074473 15.60125069619729
Ti 8.75285239336343 7.270471281326283 11.835696656700575
Ti 8.369160865127338 11.493490929112445 10.093518133763768
Ti 7.66344762243539 14.149382057403793 10.255933425570744
Ti 9.499454812508903 7.520850501603015 14.112408633402277
Ti 9.14881825099956 10.200169962356638 12.385609215666797
Ti 10.178135164623004 12.182943048741967 15.150902590169723
Ti 9.342406199361909 15.633232886190285 8.924624479591092
Ti 10.755556287200339 11.50243270122817 7.983348689440533
Ti 10.91116049511084 14.342508568865359 7.2558534919579225
Ti 9.411858663181917 8.936457275881697 9.516674171807695
Ti 10.436438441751953 15.324760153757673 11.561706406553203
Ti 11.412319689557624 6.314787548005367 12.753393613769786
Ti 10.137603738840948 13.354869524294468 9.942747834329174
Ti 11.315650222888351 8.54309341518299 11.517358919859314
Ti 11.434169115400541 10.091292447631373 13.886845774420772
Ti 10.506892702138842 6.4890011418956846 10.100328935834355
Ti 10.766091560591825 12.486285547466434 12.534061291804566
Ti 11.43926984292156 10.826847140392243 10.256400251545903
Ti 11.919029195308081 7.921812529459885 15.090356876871097
Ti 11.945227593268905 15.969015837353455 9.343268659255875
Ti 11.86979451644689 10.438253638335219 16.35381829036362
Ti 11.522513531921515 14.849236872352982 13.850046296622496
Ti 12.99060082171055 6.712426133833582 10.660891488231435
Ti 12.904078396280564 12.588442285156203 6.624215418527992
Ti 12.75639374290691 13.155441208383058 9.221197430947058
Ti 11.902243796567554 8.470084821178334 8.830160729555542
Ti 13.76437579563146 7.960237121949044 12.936087376848084
Ti 12.90522130379976 13.71095214575045 11.89131542135218
Ti 12.753804181310953 12.515839962446977 14.627742408724847
Ti 13.299985016583124 10.834259068737271 12.167700294124836
Ti 13.596763080298205 10.772576243830423 8.501914022687908
Ti 13.432064853817101 15.007167592226429 7.389764067459601
Ti 13.24367364022787 16.214773234880116 11.838922322070037
Ti 14.02992493291664 9.965047378458335 14.650830327895685
Ti 14.18046420209999 8.932288199314264 10.335911817169764
Ti 14.593449602880815 15.284697482989412 9.602052971532922
Ti 14.151651354703304 14.805525088994546 13.942124365715939
Ti 15.082315126894473 13.058103705664191 7.974875741229282
Ti 15.647403216317926 9.833576367752864 12.316261866847146
Ti 15.131877488927765 12.361357801038562 13.24213453232955
Ti 15.063339819156536 11.952371783266218 10.504718661264745
Ti 15.470695804552712 14.462524090461452 11.746583463239986
