40
Energy = -263.80096183 eV
Ti 13.103319644541896 8.122138192015843 10.41568335839552
Ti 11.465647449369769 12.832218512572068 8.564582666537962
Ti 6.654955036679328 12.470867845357496 10.280733107083424
Ti 13.80942583859316 15.033477458511681 11.695431090369944
Ti 13.466285934034325 10.684116955786894 14.264475246124615
Ti 8.664005390838108 8.712614705500615 10.43653253842262
Ti 6.584862619895928 10.167694640786344 11.69377263747897
Ti 9.80777537497267 15.567803266970861 11.713624395295797
Ti 10.78790520669978 7.748585295306712 8.949527018706707
Ti 11.778185500170386 15.127616067096296 10.06747367787479
Ti 9.33867257160352 13.674946184546833 13.366738458057473
Ti 12.935124174242016 8.643974150436403 7.916721699939084
Ti 11.491658620761942 12.928498519113694 11.523906998733633
Ti 8.721541845000077 9.100795630144704 12.998682381134222
Ti 9.004242873657443 11.668118441241246 8.48166765707802
Ti 7.513551946403235 14.409226819125866 11.685064121994092
Ti 11.457610555637942 12.574198726386049 14.621573798495225
Ti 15.502519461018602 8.97715726419252 11.650607874743137
Ti 13.833679020130702 13.314761333307443 9.809923381238006
Ti 15.795582801475089 11.134746005752183 12.929052013100502
Ti 11.156636631082492 10.379456369799597 12.800958870546884
Ti 8.881833690086285 11.51127432719912 11.390316446912738
Ti 13.63610196583799 10.877606191135538 11.367599931572718
Ti 11.774067640543532 14.991600185509512 13.227499057526462
Ti 10.799711464373942 7.7358833622987495 11.757040906444795
Ti 9.316805608223284 13.91752521541893 9.829734841227047
Ti 6.8784059563565965 12.326042187617047 12.969706832807207
Ti 13.779399162026229 13.081402690430549 13.34661815649432
Ti 11.126251899902552 10.24362481050446 9.92378671878042
Ti 13.174426205731095 8.508359878453032 12.977107470800075
Ti 15.71843528625014 13.313632179666612 11.648380307992817
Ti 11.137076417354868 10.418499502849132 7.276521164177919
Ti 13.532398249857541 11.063199856240903 8.462603376961304
Ti 9.01950118675835 11.276355625333345 14.283748300207757
Ti 8.94188914345984 9.177012919328886 7.9360092606023285
Ti 6.942357272642001 10.191625025887555 9.192955688397582
Ti 15.14133459173213 9.097531999894713 9.153653601731817
Ti 16.025810904115176 11.220356066208948 10.238114076723694
Ti 11.133202165702622 10.115898467824634 15.500298613242743
Ti 10.871048769186112 8.175374934213476 14.350241861733979
