44
Energy = -293.74679953 eV
Ti 9.206216777418307 6.284474982397475 11.523925091042468
Ti 7.6996024872505595 8.556661829218863 11.145658171991554
Ti 9.187481413945065 9.584585210563583 15.460928341348671
Ti 8.781447943959854 6.9354787490671335 9.181998865678876
Ti 7.736214614400943 10.206838026754456 13.391511280952036
Ti 9.028151534949478 7.785100745009911 13.54267146586764
Ti 8.788250188519113 12.162537149833664 14.923852348282564
Ti 11.145225984497914 11.144022585844382 15.627821410729778
Ti 7.89938026982479 12.608043271513477 12.345899361046197
Ti 11.196215899112639 6.194224654135178 9.911189620822768
Ti 8.690074858355594 12.771241676712515 8.77369423892324
Ti 11.50296896362036 8.45868444815819 14.874700900335627
Ti 11.577529410735975 7.01049106446084 12.50689464494251
Ti 8.424911036038534 9.31647163357804 8.658366013143898
Ti 10.284144831312581 8.617303107202211 10.601196571177113
Ti 10.433405412177514 9.97058517635823 13.114662830474446
Ti 10.669622045656121 12.60140175703449 12.80913422880348
Ti 10.998979522660086 8.072605540642563 8.10402511676319
Ti 10.997541225982136 13.719803018623223 15.185145730658931
Ti 9.01869937953973 14.482441049821285 13.658780797375456
Ti 13.295917035026838 8.91343643774208 12.829295761762728
Ti 9.147270266715338 11.08956220699695 10.677616962351559
Ti 13.04805312876289 8.038738888067964 10.34584282748362
Ti 12.060301470293622 10.66320884028636 11.029258719977994
Ti 10.44458072334573 10.651056772872607 8.136685511957518
Ti 9.656258733646185 14.176879775867626 10.990741284804054
Ti 12.82080024183845 11.26801273637013 13.744801626426177
Ti 11.494342464406417 15.258264903946504 13.082511226767757
Ti 11.33412713234115 12.750415182255725 9.298545786494842
Ti 13.170824856119484 9.971276768560799 8.57884157691781
Ti 10.15537183897391 14.992279960189267 8.481897111467184
Ti 10.403125872150083 13.058641698013512 6.7970120513051535
Ti 14.519350235010902 10.572998773903398 10.948069387985743
Ti 13.613648968614093 13.963700855332505 14.250420166255893
Ti 13.434642913575093 13.254168609808408 11.674285082090375
Ti 12.627764062036693 11.908448949979055 6.95193523332997
Ti 15.25139885226332 11.931432986293865 13.242396067738929
Ti 12.176892454623783 15.352472037908848 10.244613282639255
Ti 13.819880510652572 15.882815040169746 12.306125213228457
Ti 14.172581698511106 12.526682305377603 8.988263381390608
Ti 12.637303048573438 14.414995156234662 7.699170368901431
Ti 16.025150425321645 12.684935767735405 10.839354907799498
Ti 15.752210197135696 14.429539013671977 12.603840996094295
Ti 14.831179713927465 14.922081299307521 10.075459078291102
