44
Energy = -292.90230621 eV
Ti 10.034382807823034 14.636073741725827 12.097540925507214
Ti 11.854712920145406 15.794269289549932 13.965427663805654
Ti 12.586321139441957 15.266134355765807 8.977107410380789
Ti 10.182286162641306 15.565539965183435 9.53637316608348
Ti 14.160480817282368 16.59439521851401 12.827605539272765
Ti 14.550254702250902 15.851193957958966 10.49177155582125
Ti 10.639805974704808 13.640797477816747 7.75722915106746
Ti 11.923918563472645 16.539412074841696 11.313522717534
Ti 8.283181426241036 12.659058738792416 12.434159533035738
Ti 8.65738183583997 13.577420973985118 9.801884670783036
Ti 13.276781386648786 13.048948245127105 8.004533946030834
Ti 9.638159977883666 13.765864162175331 14.647336068859751
Ti 12.368128819643138 13.573156254793005 15.188990569375472
Ti 14.510222452337006 13.077582307655186 10.286763635434617
Ti 11.19118593654809 12.131647192561548 13.181042848575583
Ti 7.268393021048557 11.482545882413229 10.308213145583123
Ti 11.304869627967657 13.111450271816944 10.187144329162765
Ti 14.410864465050588 14.738731439956371 14.467421782280935
Ti 9.090697038395664 11.36966349065595 8.358846077181052
Ti 11.826872161192505 11.111131341327635 8.0640097301093
Ti 15.64839319577846 14.375517418142238 12.3194505792418
Ti 7.780606900167984 9.775026135848412 12.244132883607081
Ti 14.120626656293929 12.15543771329428 13.176916063876797
Ti 8.053068047423478 9.273661043982012 9.639975090524933
Ti 8.853395437686611 11.034772777481406 14.378900102133452
Ti 9.878728144045402 10.800241218579547 10.980512920924722
Ti 10.67452292109657 12.011432356559267 15.988986237024582
Ti 12.975133061501355 14.248186250342698 12.151079878927641
Ti 12.879512289923518 10.744801239671462 10.742558391493365
Ti 14.66361657012099 10.800599205970975 8.81982557596976
Ti 13.140299467075135 8.873700159662752 8.561038066316822
Ti 11.661329482599744 9.355863980487236 12.859012186581879
Ti 12.960377203263006 10.762833546723027 15.243301120710491
Ti 10.560999519399262 9.052706757826247 8.924139494097965
Ti 15.615031212530369 10.925113314675638 11.322555284091237
Ti 9.503741101917136 7.876861832443106 11.296964110759582
Ti 9.44447655552534 8.290492301509502 13.998022856073783
Ti 10.662161186421816 9.673530859796436 15.643484025742358
Ti 14.476089527608751 9.529147904759693 13.345786493812758
Ti 12.082576573395718 7.521533667587028 10.5281005705464
Ti 14.59215980833874 8.614350759440043 10.686037227152934
Ti 11.150317911259773 6.673300284846028 12.919472565340504
Ti 12.482543555829718 8.003106604789586 14.858652539218701
Ti 13.549733801930866 7.256950293555721 12.63488065679095
