45
Energy = -300.62495179 eV
Ti 13.03837598037563 14.940959581868562 11.490300249233824
Ti 14.760196794191064 13.292641909718224 11.407813545192564
Ti 14.601838201433683 14.516543990597041 13.847273528938581
Ti 11.997762950306537 12.592931073811211 6.8167334905782
Ti 13.158373836332677 12.836952712098293 9.288092188135197
Ti 15.203916702117425 11.783642363877565 13.134369925142522
Ti 12.310347794201029 15.784188101558605 13.773809913939779
Ti 14.004378033599826 10.863045985836177 7.373063855035131
Ti 10.519589869271757 13.808142215744418 8.731688023226567
Ti 14.994377403212846 10.843863649598392 10.038212507281283
Ti 10.343801948466037 15.63307767551344 12.176565298188335
Ti 12.729172514145697 12.846839696493516 13.612401025954727
Ti 12.559345279413161 14.300356056956948 15.895287100572975
Ti 11.433116738543568 9.961459885886205 6.515364587351791
Ti 14.480280570494067 12.423832589458968 15.59671143428329
Ti 11.048980242457997 12.952800120878988 11.095421839842736
Ti 15.245450004132373 8.672184974624846 8.714945097748364
Ti 12.918088232900052 11.003780112186874 11.680010647676218
Ti 9.53000270643554 11.949693267743026 6.944725501354511
Ti 11.041869769127585 11.269202437199827 8.895149836876053
Ti 10.051188412449669 15.539842426022481 15.115190172630891
Ti 13.450056603173573 8.280264983040142 6.911915660132391
Ti 8.58566495412476 13.88972663129512 11.226452274917293
Ti 13.539753249942475 10.255638098223532 14.316286181113377
Ti 8.003374877096451 15.168770904099325 13.386656803813702
Ti 10.009376604246194 13.32551008609739 13.69352325034858
Ti 12.833005648985203 9.388037675002145 9.243271395638985
Ti 13.477983309342505 6.826303594031444 9.07520089703826
Ti 8.47442704564107 11.817451498977317 9.365123728488536
Ti 11.996563162376434 11.522393528284592 15.990331690531448
Ti 10.971535322720166 10.377636586665533 13.694408107515285
Ti 14.133130387957774 8.526929784509697 11.314977452504001
Ti 11.090396297165654 7.602491210894899 8.068904219340814
Ti 10.631417186166978 9.432846743441054 10.741526235553975
Ti 10.264241441809213 13.169632759454379 16.44676221182428
Ti 7.298548213764264 12.629318013636109 13.242323915835913
Ti 8.056705605883083 13.68129543838944 15.472443262264603
Ti 9.08508374478417 9.448258676722801 8.046220877767723
Ti 9.154748348735913 11.255012376700249 12.049147451889061
Ti 12.083782859944057 8.287411940072484 12.911673609933217
Ti 11.517200883566803 6.887106900046458 10.780865871973177
Ti 8.874672582133659 11.211478750159591 14.98562170988966
Ti 7.913498604285541 9.497737536220137 10.510120891210274
Ti 9.396977605345842 8.28254856631135 12.462024495116331
Ti 9.139032685672468 7.371848098522207 9.872719244647719
