52
Energy = -349.78530183 eV
Ti 13.65115631875703 16.08379749927413 14.902596972011173
Ti 11.627396826907331 14.859061843666177 16.04387405920449
Ti 11.143818072905669 16.593353410537517 13.873986177675908
Ti 13.563342043941551 17.060629046267174 12.527347373325286
Ti 9.1810717010524 15.068093130261191 14.833707202599893
Ti 15.228510527349437 15.05168164856304 13.06947331991494
Ti 13.90985568970152 13.47271707162524 15.074066767997358
Ti 9.554016369065756 13.012009768101636 16.309361680532717
Ti 12.009002494056386 12.193883125870162 16.3890776704017
Ti 11.503661735640616 16.478990889521793 11.100426933932795
Ti 12.65441765560576 14.664263449751955 12.802930513822837
Ti 10.888038041375541 13.1702483043824 14.106553046820085
Ti 9.453307460977305 15.00256908543283 12.285260091431196
Ti 13.974172664542772 15.028500649170295 10.508880889638602
Ti 15.37524646976976 10.109861642465273 13.317977033539663
Ti 16.447519891298416 11.050140069262666 11.31732188733378
Ti 14.515735231753462 12.625444947744526 12.45209752255235
Ti 8.331387252669723 12.660490327178184 13.751170399763726
Ti 10.292712723975042 10.62650520988285 15.112805672197481
Ti 12.115019907022777 8.54688996537078 15.238785871923362
Ti 12.934121002948043 11.005880862145379 14.135673844177687
Ti 16.04728747639328 13.3057760538416 10.250794891117092
Ti 11.219072369911052 14.04175945027968 10.481470141619926
Ti 11.529517664175552 11.92506039454396 11.92846466727574
Ti 14.014704772566109 7.899586852958066 13.233795327118331
Ti 15.509528780507626 8.562633637020435 10.947366269033974
Ti 9.527069505156861 7.98130472958835 14.28654786090635
Ti 13.717231450013388 10.141885700753269 11.228549048915248
Ti 7.686675843260294 10.112553331197539 14.503342601364393
Ti 13.430833453776776 12.425573630030057 9.855506797200315
Ti 15.580850532790992 11.028790195836326 8.846139612284404
Ti 14.91564523366926 13.56632608493321 8.05934738073866
Ti 8.905696284272869 12.549164333890358 10.86792377111293
Ti 11.634428929078892 9.093414201264377 12.77428655661621
Ti 10.795407929941835 11.802589730971643 8.859692474971615
Ti 12.17080348885423 13.95531314872586 8.0217359599161
Ti 9.389425411297115 10.424604793759286 12.613718124468248
Ti 9.344538805854954 13.966977098306339 8.561088411088058
Ti 11.698019518228591 6.636806583727789 13.332606012099427
Ti 12.732179742906977 7.450275429927348 10.862955587145725
Ti 7.639507685687718 8.445294205954632 12.416609814787112
Ti 13.219062738318621 11.559857534624447 7.313573775880816
Ti 6.974608459429263 10.936643209632136 11.98694715091955
Ti 13.479798170114725 9.16017780281869 8.623027889616827
Ti 11.322051748791834 9.731073974465355 10.108676372966446
Ti 8.08207233974738 11.75871695023584 8.39479059903832
Ti 9.908983905760332 7.360289022407759 11.537901979611815
Ti 10.144174680005838 12.055404084734077 6.527385387825859
Ti 8.616974690272702 9.61479984044646 10.16222647278279
Ti 11.516617983816108 9.666795330274905 6.947575203839895
Ti 10.705392026378906 7.78395560753228 8.775347547219718
Ti 9.231509629542892 9.734766440682668 7.580412711561012
