51
Energy = -342.13075364 eV
Ti 9.083889236970192 10.310022253397454 9.197120487937337
Ti 7.629850833244222 10.821255826250797 11.373121336447197
Ti 7.9548552830234245 8.414844857496316 10.834919981368868
Ti 10.276340978076353 11.951212414722796 6.90935899133747
Ti 10.179485169724561 9.34715937900183 7.321073248037581
Ti 7.522631539668325 13.66552930777277 11.714711946121458
Ti 9.562962436036488 7.174511735375669 12.272585915867174
Ti 8.415988578803864 12.985819977600489 8.778666821382442
Ti 10.213516449280872 7.53170968622485 9.547610221951468
Ti 8.41971486634608 9.209048263994323 13.439096708658859
Ti 8.77015091947173 11.907863803148523 13.440286277360103
Ti 10.194636730588135 9.746669062687475 11.498671922459579
Ti 12.744618295601331 12.941181092044108 7.063125267949313
Ti 9.075257380202155 15.182631965716824 10.422822574180893
Ti 12.542249748094246 10.268734137722793 6.68258473279105
Ti 10.160887325309456 10.573533418542748 15.815542280771474
Ti 12.97967744386846 6.664815086531525 9.324970915008851
Ti 7.56819501146081 14.019257642308323 14.35121429114401
Ti 11.974252650407239 6.9231004135333345 11.742000977776067
Ti 12.00761941528458 7.731571642151993 7.3213840392009235
Ti 7.748171217813642 16.061666431028566 12.718649846755099
Ti 10.979897404171876 8.303809055403441 14.203291740406607
Ti 13.95314214471096 11.32043104344465 11.105160325097305
Ti 11.586799575384893 15.538622610492915 10.713631732306094
Ti 9.996957764699559 14.534031557934869 13.020753889632264
Ti 16.3053246947065 11.697993723245146 12.421974682764464
Ti 14.659130749504463 13.758597117221337 12.083731510336413
Ti 14.137060039574292 11.74476559246665 13.991414763920327
Ti 16.04994748999485 12.54206458522507 10.048990071044368
Ti 16.067110214611944 9.873097209574066 10.44891908384349
Ti 12.582618175489552 15.872417937045991 12.780592388052726
Ti 12.91635225943843 9.677811289224186 15.227477603345081
Ti 12.148236856396377 13.150646872511965 12.029517353635752
Ti 15.385427348081429 9.41333815374683 13.10639010678233
Ti 12.399012691902234 12.104924286401632 16.2088396454816
Ti 12.950950535353803 14.040899429966691 14.56924302867645
Ti 11.354144570530245 11.39041256578731 13.859801108591512
Ti 13.53350995817811 13.588894757431511 9.573178505407112
Ti 10.157685643040383 17.118548120436433 12.72156497708005
Ti 14.470320137586326 11.316518951831538 8.346495297868394
Ti 10.19056200606921 13.464391432799669 15.449968566063824
Ti 14.456267133326417 7.8675425224778355 11.059310185456008
Ti 11.331114162563631 16.098673373831335 14.961776991969941
Ti 13.578596291911907 7.421709511020133 13.674209366683245
Ti 14.405890599637734 8.634876679034313 8.209039646514533
Ti 8.973133910620035 16.05667318070023 14.98199273227901
Ti 12.751707881949141 9.51381870376711 12.533774033817489
Ti 12.252143234008766 9.174661377744924 9.542671030504554
Ti 10.776284461654432 14.153174299648768 8.490044008252744
Ti 9.84298839717494 12.538678540375239 10.813485109910369
Ti 11.737114751889068 11.610219715392093 9.007624323206844
