52
Energy = -349.38673149 eV
Ti 8.946960703044834 11.795413833999694 15.73591910614091
Ti 6.547775418611326 11.368405134675665 12.170839533579905
Ti 8.199886258287481 12.690929668140322 10.600523941565948
Ti 7.080791008774481 10.571231621271927 14.435503010213534
Ti 7.638596519590518 10.218079347466476 10.00023754655428
Ti 7.517519640419608 13.178886901156545 14.065659344954245
Ti 10.293123312580487 13.672702361398214 14.347166268578638
Ti 10.018010872016934 16.35955124190303 13.746675962810123
Ti 9.774840138724596 11.868927103418022 8.541985224948775
Ti 8.722779351503656 14.730384716086787 12.080624630536063
Ti 10.174009915966744 16.81903232840844 11.131415609479257
Ti 11.399475180164705 11.151968020921757 15.312537843110743
Ti 7.853276598240333 8.927249974014368 12.493137450707021
Ti 9.178365016151828 11.481229513925623 13.014202534957839
Ti 10.119478891513593 10.124671754413308 10.841841464933541
Ti 9.440058823217242 9.284332751095313 14.689032650003973
Ti 10.402499533262796 9.316280722048763 8.25230702701222
Ti 10.929374837102566 12.751742926151447 10.909652234392638
Ti 12.53220659616111 15.601163088046404 14.811212691646812
Ti 12.29225154389445 17.232007285473678 12.451163036099036
Ti 9.750971263056229 14.775275726165154 9.615153665662259
Ti 11.86859500561014 10.660519109500346 12.691068494507906
Ti 11.816626090432857 13.465012634069623 16.48794373280208
Ti 11.475426227784139 14.81106109007108 12.31826529928532
Ti 9.02765257233562 7.926194489068855 10.301762078874843
Ti 10.38415160827247 7.913562089734684 12.610513488046106
Ti 12.135833274116012 8.767041581616668 14.580717930010993
Ti 13.313289537957875 13.085417306238385 14.06239608281186
Ti 12.239340681872235 11.21935287818594 6.938150941305142
Ti 13.658493055156395 13.123132763491293 10.996505163760197
Ti 13.754207485383946 11.586316159713276 16.365109150487523
Ti 11.643981161597608 13.55931167728641 8.215947888006264
Ti 11.771495232516465 8.062332512838418 10.117394885975271
Ti 12.546947936939873 15.417521207928367 9.952349540880784
Ti 12.27336692261634 10.92574414920737 9.364990892143425
Ti 13.166236132543528 8.319023532989245 12.261247581237386
Ti 15.333674381872815 15.022131209147599 14.593026222476038
Ti 14.309969219784103 10.52695053755313 11.064282087319384
Ti 12.953126292271211 8.810424390989112 7.806981817169241
Ti 14.216038610861533 14.140097603784087 16.511108641503963
Ti 14.091146570285586 15.32952117607447 12.368042388654484
Ti 14.110338647369144 13.112006735995582 8.339416203706575
Ti 14.262344644601146 10.437819831304353 13.811224143887774
Ti 15.802755698138162 12.496000583566909 15.136053403532884
Ti 15.877020139332487 13.317124844300716 12.534820467188208
Ti 14.924297627139191 10.518611816641142 8.174731590390273
Ti 15.723313450993954 8.590699122310298 12.18597279171032
Ti 15.378087212856824 14.820213617169705 10.133276987882303
Ti 14.61690315879498 8.204101297892079 9.679012109644555
Ti 16.23508952300427 12.313740597383129 9.880784257715801
Ti 16.683531249525767 10.95323511568119 12.303407880229344
Ti 16.670246762939946 9.716043428769366 10.029875777292164
