50
Energy = -335.02151363 eV
Ti 14.343887206584021 7.105623060441371 10.19830235846072
Ti 15.55633208258136 8.982481589195194 11.704286474749422
Ti 14.758881062433565 9.528109840460266 9.220742881385394
Ti 16.40255402775155 11.484306118695919 10.589575593497644
Ti 12.361034487607377 8.07240411486841 8.638152346985905
Ti 14.943482523801112 14.96807792593348 9.775031704259353
Ti 14.270500206633631 12.352784444081355 8.99977823436206
Ti 12.999657080735197 10.401925843645481 7.515831547674682
Ti 15.032276919011995 13.511401068034846 11.97723033161989
Ti 13.25396738845107 14.69625473137607 7.856837276016309
Ti 11.6233850552221 12.678664755254772 7.759815185885545
Ti 16.254577749630634 11.218180227831626 13.116991740743092
Ti 10.64482808718191 15.235778715223011 8.813204873019066
Ti 13.691856296756557 7.139416181583745 12.780043285233925
Ti 13.91632519034609 9.637750305464056 13.926915745149921
Ti 11.911977035887691 6.572338827905676 10.977043252992553
Ti 12.788315280000957 8.998986634639818 11.183295012459851
Ti 12.83780958800887 16.491500482287123 9.635603835817474
Ti 13.986357940535834 11.29064576107734 11.600711289440289
Ti 13.880815627104083 16.140577614887974 12.057907232065803
Ti 10.095897766161059 8.242549441108721 10.110474935663426
Ti 11.81603616269752 11.1496522680762 9.775133011961312
Ti 12.457243345861981 13.861802338790886 10.191719560323634
Ti 10.318425591619086 9.989348692542476 8.105572749061157
Ti 14.220266950895658 14.95155092058737 14.52774125880929
Ti 16.705549466838473 14.017385246903395 13.549770004778283
Ti 11.942188619185092 11.089103628384171 13.489962430528694
Ti 11.540824840198187 9.239502304135721 15.494283538462716
Ti 11.111398343591853 16.27295014129179 11.494731458280054
Ti 8.685955528540942 15.079689758039203 10.854107624764366
Ti 11.100389732856419 8.34594379433479 13.042363074908407
Ti 12.840754956681435 11.283962472053002 16.05727955834251
Ti 10.0688225324699 13.288633759923412 11.662976788249523
Ti 12.444269072400612 13.941739062310777 12.824354618380815
Ti 12.057646233127246 16.251137260090974 14.039057261428534
Ti 14.472146719404677 12.435553165964256 14.43775842485465
Ti 9.390608242634393 12.771604996943287 9.119189603346586
Ti 8.240623024877742 10.323345905601869 10.001046222079898
Ti 8.455902420971412 8.546044320756234 12.144804122847198
Ti 10.06179268989823 10.519605062041814 11.696428347154765
Ti 9.087217628631693 9.543945231431866 14.558114144053564
Ti 9.766843705988645 15.192450786808125 13.632569191035934
Ti 7.578876930249441 13.663695636302414 13.413238449106993
Ti 10.197296296134045 11.447255345679084 16.433894542980795
Ti 11.712929491115835 13.72865535233639 15.355839172723917
Ti 7.509370762591377 12.710356766326477 10.923202698328307
Ti 9.789191906147881 12.301718934448504 14.03494370947768
Ti 7.431007265950584 10.952319818806556 12.769121606826625
Ti 7.662796605870855 11.635598713737838 15.33208704319903
Ti 8.962518946883776 13.867282904153644 15.82479754545479
