5
Energy = -26.58694208 eV
Ti 9.421015744437467 9.337778268483293 11.623658835936988
Ti 9.827331419438103 9.996743365022018 7.675953979359566
Ti 8.78300487626502 10.78790726188458 9.730769540895603
Ti 11.104078783596057 9.809544035715671 9.77686151136611
Ti 9.097776724479463 8.300891605731268 9.428127426339161
