5
Energy = -26.32701281 eV
Ti 8.838134933596068 9.238990014762146 9.033704041794229
Ti 7.4734830460295365 7.147308751028813 8.89010637959523
Ti 9.865201190422717 7.027730777984289 8.2339651430296
Ti 8.357895180538685 8.317173449158624 6.757330761398637
Ti 6.483716497154217 9.293761358214642 8.088789223191004
