54
Energy = -359.68766896 eV
Ti 18.04711205606256 13.9919466016409 10.858698591830926
Ti 18.111465722911245 14.614810506490496 13.34977058732291
Ti 18.639874201742657 12.214889159088504 12.535704561978228
Ti 15.833121706781485 13.887027253325433 9.624028429176565
Ti 17.395837567898536 12.460378790831903 14.788406914277877
Ti 15.777043939682953 15.14198012272534 14.40664694588305
Ti 16.198253120405997 15.71411560278888 11.786845728662332
Ti 17.04679274310407 11.56053800514801 10.41059768862359
Ti 14.936751696252761 13.205098824363997 15.694344605072283
Ti 16.951847070751974 10.367239651742848 12.965042946541766
Ti 14.067327719100447 15.78645896169669 10.04197244660554
Ti 16.05013692341006 13.038291268385638 12.49326567668599
Ti 14.038766497445156 17.112874910336355 13.49738491479182
Ti 15.68714173603734 10.472517340240447 15.427532617280802
Ti 13.477331755935246 16.058820308731853 15.80665148528481
Ti 12.241306018293947 16.896118539247595 11.576076434016949
Ti 13.46811762233192 12.766320423309526 10.744998655875722
Ti 13.048102286984435 14.000814896072919 17.479044414030486
Ti 14.571873842410593 11.626499745351968 8.654085056032923
Ti 13.596627946937504 13.95400621451112 8.288007231815287
Ti 12.296720626666005 13.673049417704222 14.89270617817725
Ti 13.979088809016657 11.421428549453578 13.603596023250109
Ti 11.7482071338915 17.91309556246039 14.670647268896092
Ti 13.727593090426705 14.729912587145732 12.698332824133855
Ti 14.744519058090575 10.370912475485556 11.228962801994806
Ti 13.349481495974258 11.428758317429509 16.546439703360782
Ti 14.920349896958204 8.783806424948551 13.41954592819763
Ti 11.025655101092763 15.389915038977735 16.51509044138205
Ti 13.982418494020422 7.906766547395767 10.840695334423163
Ti 12.665428892455772 9.95091893028312 9.631111714923803
Ti 11.197206732349947 15.886863110558384 13.830817757427841
Ti 13.105281600784512 9.189152456464628 15.288422114445414
Ti 11.554866421821886 12.385958017894376 8.965118044070094
Ti 11.19844352652984 11.221345433521627 14.476450927449992
Ti 11.184603112067153 14.006526737781623 12.199999688253532
Ti 11.615706180307129 15.155285807397451 9.586522596701823
Ti 9.786509718867102 16.308039105033824 11.329100215328852
Ti 11.10757313249174 11.239907577420606 11.457738466747355
Ti 12.474713493331254 9.200692016573234 12.60646778102832
Ti 10.797441928486789 12.626443025101965 16.975172639089525
Ti 9.51122628534292 13.614518853453092 15.147804245535676
Ti 11.109842504926668 9.979079627838596 16.847816233547885
Ti 10.77567188909084 8.500518881987208 10.774113850462832
Ti 10.252948317031708 9.952263623148284 8.705768110863147
Ti 10.591606697277387 8.611766420727662 14.694907214388355
Ti 9.393026871129418 13.583057172249026 10.493047344653068
Ti 7.418130298639001 15.248115941592383 10.268178126392346
Ti 8.42712570304354 14.962460792715873 12.691140475465474
Ti 8.946011472089385 10.705447246833428 15.428366237078697
Ti 9.035045767741702 12.331114664360873 12.989625211599977
Ti 9.24120039316794 9.681454280161512 12.787350980256608
Ti 8.319161115660528 8.82738282122199 10.1018641272738
Ti 8.532704300413872 11.108914559126413 10.45963346278682
Ti 6.870725545935262 13.282985028497713 11.513354431092289
