53
Energy = -356.4127106 eV
Ti 15.220412602774559 14.292545082302555 8.293554711914151
Ti 16.212137567499614 11.762508331708013 8.157475005581647
Ti 14.278154571559075 10.039510286019178 7.362237358164674
Ti 16.362447366768812 13.589286263679881 10.555603637529924
Ti 13.630260592472371 12.451428581735874 7.006635186721442
Ti 15.26378148770979 9.516738646971236 9.593169714416252
Ti 14.097490268073702 15.16852091472852 10.546240619037002
Ti 12.551582779921505 14.321757804103026 8.555621264590918
Ti 16.682555718372093 10.97538762393743 10.690493103640847
Ti 11.62991500160633 9.945659801275534 6.876569778037537
Ti 14.280522378333332 12.300973999490983 9.694413912135607
Ti 12.977763029943613 13.055269688089826 12.041630375477222
Ti 12.885656739209907 8.447844053991773 9.05470269851341
Ti 15.105893463408432 14.460956362688464 12.837338225880565
Ti 10.520242907057883 12.697186842552197 7.575663606265446
Ti 13.235263483738283 10.268748521687176 11.234620849696972
Ti 11.263893172940806 15.720809525513685 10.966074127295252
Ti 15.426486290204624 11.721288640071254 12.69041106851281
Ti 9.92863124440256 14.981992763900575 8.74184753884849
Ti 10.493734525584722 8.334464410405426 8.603502705968191
Ti 10.893567615699872 13.173366031693725 10.331341477690229
Ti 15.403932881549796 9.059576483818581 12.781071360926532
Ti 12.48390332160279 15.265225693668869 13.501047513980748
Ti 8.965357431428536 10.389206250361354 7.958772895863299
Ti 12.11403931034033 11.017541599078575 8.957754725824033
Ti 13.87034684073434 12.835362025646711 14.539167192658567
Ti 13.268674323591656 7.754079043989608 12.3676181152972
Ti 10.34224157781563 13.777939455649697 12.985433045108959
Ti 13.17420923239172 10.272797192559358 13.615338571608046
Ti 8.2977406390015 12.868549204021729 9.080800395434695
Ti 9.819446024737763 10.746183007858521 10.433007635477644
Ti 9.908891791989316 16.33418581136816 13.140171075707025
Ti 8.742632457859994 14.912831943014652 11.121604506548978
Ti 13.860599040203974 8.160682599434928 14.882677255060173
Ti 11.007171829030817 8.560347364404926 11.384698698152063
Ti 15.157996139477843 10.449970316392939 15.208784822439966
Ti 13.004121178700426 14.850270055899962 16.081014025375474
Ti 8.54751614961975 8.496724426320306 9.994206844982994
Ti 10.649629781376815 10.997200515765488 13.027773528154162
Ti 8.20756558771794 12.405773212775589 11.896176545081984
Ti 7.230337839166769 10.564872649856888 10.182690857397235
Ti 13.273757932577432 12.484161656956129 17.189144218978452
Ti 11.216031686409998 8.410628668930583 14.17520780964165
Ti 10.361084210739921 15.405595096513236 15.521124296784999
Ti 11.336995885877945 12.733735974686915 15.339750876083972
Ti 12.407512770655865 10.120485376723634 16.145701478079893
Ti 8.13253191544061 14.46668514747694 14.082585819038146
Ti 8.605181420985554 9.628511378356247 12.472188418492442
Ti 11.172990725648049 14.048330017925423 17.666960213221177
Ti 8.196714634639207 11.815935506174936 14.290528590541172
Ti 9.699698606798268 10.397202360274123 15.63431122031042
Ti 10.830024910966152 11.554538943874952 17.705827418676726
Ti 8.97060289242133 13.18850062245279 16.427586841932165
