55
Energy = -368.31540656 eV
Ti 14.141788647373529 14.513714244547602 13.965948593767328
Ti 8.93736970400195 9.676371938515924 12.193245807852517
Ti 12.566365858352368 8.724135287268895 15.780428231428333
Ti 9.629325325242672 13.368818586440211 14.899647392859206
Ti 13.512759332774172 12.49593657933978 11.27389268754089
Ti 14.278218978834841 12.897614298437128 15.97056542925833
Ti 13.830069744850306 17.094379707901055 13.507917424695519
Ti 13.444630246689478 15.440682163116389 11.501916699256284
Ti 15.808249082795607 16.489714533378827 15.04136144108617
Ti 13.935720363835907 10.652756333164538 14.231701139820258
Ti 13.605601883546774 9.615700622111746 11.578599617251188
Ti 11.726919190396917 14.025132983875832 16.244358703933518
Ti 9.361661492661915 10.859091288378556 15.00428384454622
Ti 15.90918581237082 13.757673825287943 10.919710684927315
Ti 9.867694974365081 12.284628360053123 17.289191916227654
Ti 13.701979881341952 8.053975408428022 13.534703243629952
Ti 15.768105278708784 11.024603827061947 10.884677550425456
Ti 16.3431556567251 11.113485043620122 15.469942346717385
Ti 11.949180708570516 12.736187173694164 13.63997299296304
Ti 8.483496550519785 13.592231719141822 10.213075828180395
Ti 15.226262194568818 8.658749875228299 15.530840937815466
Ti 11.602948597245739 15.479643412900634 13.849061265355656
Ti 8.590434414594528 10.97946915927179 9.784894921502422
Ti 13.413366371764852 16.235170474672508 16.106637267724253
Ti 11.418635748802547 9.965980119386598 13.538721228463134
Ti 11.330741846315433 12.73594428028369 9.044272601505424
Ti 16.846100383790155 14.091504211769712 14.801436905001658
Ti 15.672216707830584 12.408636297466906 13.181306397977533
Ti 15.392436899868754 12.50527815986141 8.923146518837392
Ti 9.326762746813396 12.547168452315072 7.455720287621244
Ti 16.025283307227095 15.772108883745775 12.665551407848913
Ti 11.683204097879491 16.191314726397877 9.259333188184886
Ti 9.549923126144186 14.937112725315856 8.270267344921853
Ti 16.04251451326083 9.40705325226475 13.221850909750643
Ti 9.238674074510005 16.13589843020314 10.284566441486785
Ti 10.350384221139652 10.105836423871088 8.096824219530324
Ti 11.061845953637047 14.260266755762785 11.265591092923373
Ti 12.13424988735154 8.478704610928228 9.503105987374893
Ti 11.553197370588524 14.240547105979859 6.889702960645712
Ti 11.094973076285953 16.854827397269037 11.815574997318217
Ti 9.581868558384311 8.588914533897093 9.98445643079054
Ti 11.704669345325271 11.537344605767593 6.616959398581829
Ti 11.128064240463901 10.72030914813812 10.917037889310961
Ti 13.644679829918609 14.434524712216016 9.038989727219274
Ti 13.656662552330792 12.794084696150156 7.10935512063778
Ti 11.176083569757305 8.107154687875012 11.910274451685922
Ti 13.300932308092746 10.815981208054131 8.966656879163642
Ti 15.56183366229865 12.66067764431659 18.103263112090858
Ti 9.386887672415286 12.21851663460028 12.465305691750226
Ti 11.779826525165292 11.28718524602131 15.953671763487286
Ti 15.686245390049839 15.120482035338748 17.029116392087314
Ti 9.025691433364692 15.128479124190575 12.578154169087002
Ti 13.575742391314753 14.475324294006413 18.16903908962345
Ti 14.420112065572033 10.370639593571829 17.167303529107446
Ti 12.843190524169207 12.160457479398337 18.18499221941995
