50
Energy = -335.41143312 eV
Ti 16.416011940477546 9.5878098042012 13.314160167571996
Ti 14.548008985249377 7.789523096644162 13.171866225592575
Ti 15.850559333283064 9.461626029397527 10.871014597470612
Ti 13.672485975237274 7.4430166776096085 10.38288032456559
Ti 11.31910061263738 6.33560528097116 9.806383086513
Ti 17.120289334423195 11.829495003103753 11.893855719964716
Ti 11.977517836815174 6.863718838156641 12.33844145910638
Ti 12.0086103441585 8.207651033006583 8.119244378350643
Ti 16.40207991987094 11.666973767630811 14.586015570532576
Ti 14.185810621470273 10.065463932953602 14.876019983720099
Ti 13.613887843901734 9.810762161303243 9.311059444880527
Ti 15.039728992311991 11.879785803811687 9.744362311771411
Ti 13.259322930123716 9.627917919816998 12.072051779412691
Ti 12.214976606434643 8.521284134450651 14.397678073835731
Ti 14.740393927949276 11.686903096040922 12.55109111580982
Ti 11.187754004107083 8.93040467934884 10.64184940588292
Ti 9.396976135785222 7.04826274475211 11.331958267978882
Ti 9.547749922167075 7.9785023193631455 8.822642852518586
Ti 10.65691694256852 10.640761553992464 8.726402778637613
Ti 15.204830002064636 14.10014653915237 11.01910196089354
Ti 16.15663938303105 13.852612633141943 13.408629723852854
Ti 10.103052323916813 8.93294754149436 13.130737134867426
Ti 12.961448486174888 11.831993553538425 7.803958998976266
Ti 14.026192038716434 12.941253248271453 14.933610453051797
Ti 11.90246720477676 11.252700072008722 13.650297245009387
Ti 8.577741132202378 9.592755513279705 10.747613446280141
Ti 10.058320767410274 10.615261680663735 15.316586524868184
Ti 12.379782249106846 11.97931118004131 10.385527735271552
Ti 9.991379269519273 11.415323937519302 11.52918869774751
Ti 13.386641108913873 14.135799627930087 8.884849000364811
Ti 11.14051422652549 12.930408965610171 15.85346801949457
Ti 14.120579523218773 15.539260384513126 13.227137730779265
Ti 12.766561040322975 13.560443690804593 12.510459914320124
Ti 8.085051443972901 10.900585656206973 13.695856290362803
Ti 10.802624007133245 13.41466874948484 8.009109666160668
Ti 12.245436277614829 14.918914674975728 14.970875099781882
Ti 8.60466807519138 12.519215402057483 9.259979655476132
Ti 9.858367484691215 13.26507606981558 13.328852679696292
Ti 13.043310866647689 15.947317647439014 10.820380722285618
Ti 8.555001671588178 12.70554769082044 15.680870000582853
Ti 10.659978123763775 14.267407557040256 10.668490843115631
Ti 7.238262532533055 11.838536866363135 11.590566400220174
Ti 11.506990656282174 15.839044097762736 8.607222980391796
Ti 9.539758458745029 15.107014404450492 14.962393323430568
Ti 11.316215869650028 16.148382619292825 13.014519827707298
Ti 7.293062399704528 13.618782065465304 13.6467472751418
Ti 7.67466320816513 14.053558088948213 11.06441582383864
Ti 8.966939939560854 15.329492634666305 9.149157358378634
Ti 10.574561132226345 16.96322586025021 10.629303450461013
Ti 8.790616070298308 15.797382653077827 12.230953655714822
