50
Energy = -335.51982774 eV
Ti 16.811975155478642 13.301856053989809 12.62549297869148
Ti 15.792891131020435 11.6732897111585 10.588238642919732
Ti 16.711810598437886 10.764900370912509 13.107912127471296
Ti 14.932702018321331 14.163666765674913 11.151120181072157
Ti 13.749387073698324 11.869395832085411 7.857131883825949
Ti 16.083846076286957 12.482994621465918 14.968310852286262
Ti 12.74134813971174 9.24959321868997 7.176084288614924
Ti 13.923315911009164 9.741921438676483 9.573127749217278
Ti 13.422322138491097 14.681471478792709 9.017695001702922
Ti 14.745248679997875 14.613662449677435 13.828331102714044
Ti 14.71197839887839 9.36887064499143 12.270045213879714
Ti 14.437827319120117 12.0642990731341 12.878697537799864
Ti 13.108011274127717 12.159591704730463 10.463359012928859
Ti 11.652786655010395 11.424872787790143 6.194929336206462
Ti 13.324908377193351 7.479924339564637 11.001261944932315
Ti 12.872156096970857 15.630869871510953 11.502013708956124
Ti 14.662660804220002 10.183838821544132 14.820594170687473
Ti 11.403724604131563 13.554139841142128 7.860265270366187
Ti 11.501980369442146 10.852495938376094 8.764685068789191
Ti 11.195575358226383 8.250924962160042 9.3699542879257
Ti 10.13342840781522 9.391191303770967 6.972122779691224
Ti 12.047118118166269 9.693402277755393 11.515023285036934
Ti 13.490417701493861 12.787257117525469 15.498237801108543
Ti 11.248033379744948 15.985093057771397 9.37466751246595
Ti 12.168076451165843 13.58900008090274 13.16251587721716
Ti 9.197904132753795 11.940221938202356 7.099656586132743
Ti 10.99694276250859 12.858197403453131 15.74704111541139
Ti 10.86637659016184 7.048052086930375 11.857413895484182
Ti 11.001816314226582 13.775448404229795 10.627291083062284
Ti 12.791017158654382 8.193397698731204 13.661560760776101
Ti 9.048961483932324 14.32113161355363 8.766639031866987
Ti 11.869443391926922 15.270109272871702 14.666421795075196
Ti 10.330946859408868 15.677544953609607 12.127943331047264
Ti 12.014473379510138 10.901894912143039 13.880165789037308
Ti 9.400368635787666 11.935174255409377 9.764552199186292
Ti 9.310879544677421 9.287161628345808 11.396432071362238
Ti 8.797534929418148 7.16652621322989 9.994540042629458
Ti 11.91495327587411 10.219053007657878 16.043043164399833
Ti 8.293545176641459 9.768020494584508 8.925451481408967
Ti 9.710209363855 11.762371835166165 12.455263333600616
Ti 7.087283952125224 12.360031224268099 8.884266306379791
Ti 10.151707854090866 8.715339222606925 14.019756782484613
Ti 8.346217355356893 7.195063039764302 12.641769545132448
Ti 8.135968784520161 13.679769506785885 11.300913562458726
Ti 9.454358130348153 13.903303751924035 13.98626368404437
Ti 6.827701118662864 8.53537172384287 10.980768819539234
Ti 9.272244338309083 11.043369090854846 14.969211505198771
Ti 7.0001444079769515 11.15345970784774 11.215309487599383
Ti 7.489705826139243 9.579110441526545 13.437418180060158
Ti 7.345100722175419 12.281688535869652 13.53842455731834
