5
Energy = -21.63737182 eV
Ti 11.77645988334227 11.663576869964606 16.666345375834755
Ti 13.526234859890717 11.300295893138635 7.059696948710473
Ti 11.928298102258674 13.59764660487583 15.484358875277174
Ti 12.029844062951424 11.632472730275513 5.9309337233802015
Ti 10.769528495201033 11.900339081058094 14.523737984321281
