54
Energy = -363.26043056 eV
Ti 13.369540275799345 7.521813810980661 13.165510937090135
Ti 15.561309084360195 9.213029562029776 13.48606748575349
Ti 10.603898333948813 9.71017213083124 15.779273288929813
Ti 15.362383842735891 7.232297744244139 11.746033575497693
Ti 9.187914000045147 7.908444902403452 14.092542487389442
Ti 13.49223326099323 10.93352691262661 13.849119378594951
Ti 10.997503606312867 6.88554993226873 11.957674479232633
Ti 7.88254060780303 9.276985558468528 15.805386945553904
Ti 11.386533327845353 9.205304438428477 13.233260278914875
Ti 13.078686407875358 6.567396978881545 10.468642388819024
Ti 16.738818142387498 9.233207438866842 11.130200736627419
Ti 10.982761974605628 12.159646879015826 14.461754802077657
Ti 14.080315088149232 9.65502843733013 11.368742716262876
Ti 8.919056364064875 11.567260406841859 16.270467120789025
Ti 15.768757467864642 11.627878980158327 12.079353469019818
Ti 15.258147946710912 13.109033687523532 14.21892058255028
Ti 9.044622739413892 10.612663820466901 13.700748594597504
Ti 6.947354311139738 9.038775151046575 13.348153274599817
Ti 12.999112860531177 13.310031128265427 15.467057155325437
Ti 9.199857262994549 8.825888142480542 11.551054768732316
Ti 14.969811547671343 8.033281916997055 9.258999557190004
Ti 10.543659530367226 6.989732296696241 9.398977825300271
Ti 11.142286834473778 11.37003931756163 11.905662523140395
Ti 11.725609833387079 9.028918390293349 10.328683852306694
Ti 6.670839456065947 11.342503826322925 14.675098139214777
Ti 12.553911857204222 7.641616746292803 8.081853489770515
Ti 8.403635848015728 13.342571819395939 14.548228879360499
Ti 12.990801807677542 13.30080910252823 12.844515278681001
Ti 11.082153883536881 14.911595302370175 13.745995038871198
Ti 7.14347885214967 11.351316673784593 11.929585778638906
Ti 10.640121907020644 9.700491060645861 8.009274085431139
Ti 9.175951474627317 11.286720954090883 10.01362479465837
Ti 15.571351617819595 10.788212177364652 9.295234477229197
Ti 13.482756568679944 10.06404747092032 8.135851888712676
Ti 13.89749468512471 15.35815313776491 14.106636522554098
Ti 15.220933683494392 14.647136896027643 11.853108614799776
Ti 16.157045821654606 13.303110473870532 9.754366189916077
Ti 11.635845969631857 11.790992765760274 9.199465334633148
Ti 13.885145338253805 12.399095835517725 10.510769332314814
Ti 8.373180402617892 15.64212594683537 13.31649238235072
Ti 9.218459241195752 13.458897560085173 11.934048409852634
Ti 6.60085464101438 13.841339136136844 12.601888225593353
Ti 11.755608371322975 14.143882994347107 10.570162345652436
Ti 14.19359130665968 12.820500130468318 7.799503303402638
Ti 7.1828836792971575 13.146867638817826 10.044964807071311
Ti 12.050270869990333 11.642832957581533 6.608888770736293
Ti 9.713415413022796 12.259594215739948 7.460488295818318
Ti 10.195983105762071 16.140107662503606 11.57131949392701
Ti 12.984284715350748 16.185992171590474 11.714446968558779
Ti 14.033220835804649 15.103188169001331 9.345635726428947
Ti 7.711195683502672 15.518561300111621 10.802537061754387
Ti 9.541995123800236 14.170403888201971 9.280619495529077
Ti 11.903211705558645 14.150451082306986 7.653465131262485
Ti 11.516361519648255 16.259672975894397 9.248343549967
