54
Energy = -363.2912168 eV
Ti 16.883773042551137 14.10054272760482 13.687351615511776
Ti 12.584602098599161 17.68642657781149 13.389707016475716
Ti 8.773451862788194 15.135479911432768 10.757991734188618
Ti 15.935503350953002 14.12350600019441 9.035493002182543
Ti 10.904484147140902 6.9073829367059965 13.795097220508746
Ti 7.652506485806195 12.995141971056137 14.97134154376128
Ti 14.338156865436488 13.427004861099913 13.659593423740693
Ti 8.672896291690597 8.065359681267507 10.083966321538412
Ti 9.672153228097168 14.5760073179597 14.765144028088748
Ti 12.25541128733047 12.14871628265449 10.688894657087522
Ti 10.568829312545478 9.9403746782651 10.549922064963154
Ti 10.339191026617145 9.105454473000124 15.202688254421865
Ti 12.448237417005735 8.762026844438399 12.30642663404362
Ti 17.36025722467163 13.324227132271007 11.191747299848958
Ti 13.011251165293357 12.972612269789161 15.974347554572093
Ti 14.070986886678554 10.87963888409848 12.051863406183346
Ti 9.133739254345542 12.926278507093274 12.559656755857759
Ti 11.476364455584465 11.169869516006369 8.295326906694715
Ti 12.684462055634468 15.388612373424657 14.884333732110044
Ti 11.247940970529397 14.69008505048151 10.49717247460371
Ti 13.146624169833235 15.502942468195421 12.063484721376316
Ti 16.186818125918837 15.741594394644832 11.435959423782524
Ti 12.775768306919662 8.119998010833765 15.027689036054408
Ti 15.062474399624957 16.3397639443797 13.879215420426627
Ti 13.412237393754898 6.540550310060634 12.819096439968577
Ti 13.121032210376436 7.129077879434995 10.11206918677764
Ti 15.005342990357795 8.469973042671707 11.366905731963431
Ti 12.86130601859196 10.82976552270044 14.67715323310764
Ti 10.611536023632155 10.563108022846619 13.036847775429374
Ti 10.479988517491021 15.896272984773933 12.775289031978621
Ti 15.498573184742632 11.885719340906002 15.280803937822647
Ti 14.201698906684435 11.985219622359578 8.508961851826632
Ti 14.605522540977349 13.43419965124343 10.981528063159823
Ti 10.995059421502154 8.2459874348863 8.699472895275676
Ti 15.16054225479656 14.505901026846614 15.866401406750564
Ti 16.50076233495757 11.450308299728464 12.791841124420767
Ti 11.733536947297319 13.305920998921506 13.338208284622466
Ti 10.805834120865 6.7816845419188185 11.134028128716457
Ti 7.93417930434272 10.523417162348265 11.283886999102922
Ti 9.008242018613428 8.25351199968352 12.738170391149046
Ti 13.03815261706245 14.034404658595706 8.666054672753571
Ti 7.312749435026843 14.800039120860705 13.006018823960634
Ti 6.405841393701776 12.242156844277131 12.884534970852222
Ti 7.13039181349625 13.19483413739409 10.73263423982238
Ti 11.841853841834526 17.35329487508645 10.790053434307449
Ti 9.663460062212803 12.521797858476125 9.86269856335619
Ti 14.826763516146197 8.919836553778387 13.842989383140017
Ti 14.405383329053773 17.77866190861507 11.57541985611556
Ti 10.187218035751442 12.003445983200542 15.168739921870342
Ti 16.066460206986882 11.313602595777068 10.072029788937792
Ti 8.859412295101787 10.21683206025497 8.650779676984838
Ti 13.409417080407785 9.64676124353822 9.519863020099164
Ti 8.108840126244461 10.488141309621057 14.093488785607178
Ti 14.202741756574428 16.236489324664873 9.549579262277438
