51
Energy = -341.77491634 eV
Ti 10.113197607406253 15.958809276826079 11.105500151478513
Ti 12.991489464422855 9.285458312661977 11.25914458087287
Ti 8.48291619587798 13.264340937641274 14.487398803855942
Ti 10.576048921237891 14.224294219554412 13.234922334185006
Ti 11.106277344073044 13.739761858031043 9.58077789801336
Ti 9.62049518957164 15.849061338488982 8.583022588720219
Ti 13.965125867219525 7.087223849809956 10.072638345876573
Ti 11.247567756710053 7.2643831430887005 10.159168496195624
Ti 11.347066353690309 9.205221533725128 13.710933761004206
Ti 9.30830246210919 11.010956392530602 13.479776346916868
Ti 7.6363469704450395 10.519485351610468 11.118841101392718
Ti 9.089942244648862 10.78596383173402 6.710001607675523
Ti 12.467391373450983 8.688619161592806 8.568446162751785
Ti 9.141038501243557 12.754816764967918 11.312487116930809
Ti 8.4001002200362 8.073508232367914 10.201802935779364
Ti 12.72068090136336 10.837672670645176 15.498304876126223
Ti 15.049679629819689 9.402399303761731 9.416799052514477
Ti 13.14023097812212 11.74488141138377 10.097677355617298
Ti 13.384510960836305 13.777637600543082 7.776163800066953
Ti 14.201798277604189 14.516735679361842 9.992435078810002
Ti 12.918124060644784 6.770916722984074 12.397856143698272
Ti 10.539261653699983 10.771548708077072 8.960946897978028
Ti 15.408855418826674 12.316538675562173 9.219743342020262
Ti 7.893908555748445 14.99356665429177 10.041903491280706
Ti 10.865237222291842 14.703603450177857 7.064216306023227
Ti 9.467473177408232 7.869749626338738 15.026244726453562
Ti 6.866973824139879 12.177200121586212 12.948591753498869
Ti 10.928307892038807 12.669566710734825 15.289366182663823
Ti 13.145739299550993 13.35182145452752 14.209643483054686
Ti 9.998393788610153 10.33584002331622 15.965989052030615
Ti 10.200910013502023 9.73333173129239 11.24322844547865
Ti 7.791557055791102 10.206019954391369 8.644424406262775
Ti 11.733571650915238 8.501583052167407 16.273232750601434
Ti 12.516806956925365 14.837157774338026 11.793625842583728
Ti 12.168077812517033 16.019965598300615 9.192878234691554
Ti 14.745386116234332 13.075743764113687 11.966292147590178
Ti 11.360738061333128 12.304029970584345 6.944803617405453
Ti 11.845156218167453 11.912001242468303 12.484748960651473
Ti 15.218758427721667 8.297183551756207 12.042342762185642
Ti 14.205873352069558 10.786736702258825 13.342940234899622
Ti 8.160388073380778 8.689981954329829 12.841476001789625
Ti 9.674072674744886 8.399006326755668 7.898275278624992
Ti 6.584525451485255 13.015353448670393 10.60958933172172
Ti 10.069332093926777 6.995661754372582 12.46187270271536
Ti 15.718195870662008 10.796365109733763 11.352208020021381
Ti 13.772688332057644 8.309697553450295 14.508194586299965
Ti 13.477983107119723 10.937596276459315 7.5981732824237795
Ti 11.364012691230915 9.69757040781781 6.461712493531811
Ti 11.656551495424747 6.634132245621602 14.614261766369962
Ti 7.658488492762405 14.717588284169501 12.50144072890049
Ti 8.793266412096512 12.920532751942687 8.472357104681665
