50
Energy = -335.20417569 eV
Ti 16.295379942821945 11.780102816280825 14.533886457708272
Ti 16.779244469914968 12.037220612523175 12.19601255048445
Ti 15.863145443956858 9.760933199160847 10.153829029427003
Ti 14.97827289106126 12.332396734464945 10.45612172020723
Ti 16.198959393750528 9.247812068540645 12.83797911018265
Ti 14.530736791387683 13.535560405149273 13.036509956512614
Ti 13.84102014314298 8.079544424006542 8.973991392177641
Ti 14.913128115063701 13.320005652470035 15.87153836643977
Ti 15.832676125803237 14.733626021361744 10.950495966612811
Ti 16.46630519735131 14.537013384025565 13.991031043470704
Ti 13.928247527276797 10.91831230281562 8.600622625330395
Ti 15.131543518334025 7.584446546062347 11.342985211177266
Ti 13.690771399468698 11.058308120830091 15.436202369338917
Ti 14.380391918004584 10.875515709771461 12.883102272983406
Ti 14.426538571910683 16.533722459176907 9.726354616074465
Ti 14.352500071245537 16.32705117889656 12.426010902173985
Ti 14.46179204637162 14.117232987565671 8.578283214489693
Ti 13.831816741045005 15.343545847355703 15.20020821792716
Ti 13.147978228039484 9.420653689321423 10.952092739566455
Ti 12.835720420415567 6.7875663907226125 11.283155680833627
Ti 13.495963802500247 8.253105766643394 13.527869272918217
Ti 12.98078770665642 14.587055980893131 10.843146074301654
Ti 12.387565408297121 13.24228823628562 16.788171181073878
Ti 12.444243596273937 15.685409193371017 8.391706732811574
Ti 12.161409660526052 13.177090922861117 14.206566581246443
Ti 12.044339660711385 17.023376123796734 10.772575596970723
Ti 11.831178717474405 10.045081812042277 8.489622021360416
Ti 10.949603028691111 10.99143932054879 15.83048109099471
Ti 11.857352376456783 13.07261713857156 8.670375482151764
Ti 10.996002603860083 8.05663307144347 12.48320607513658
Ti 12.407397254797749 11.937252560859761 11.037061851823866
Ti 11.086749433186515 7.984709082412512 9.794018135341961
Ti 9.826894256390355 13.230015547037873 15.576501502554576
Ti 10.189133262053366 15.169639074377235 9.498790747603794
Ti 11.969057023556124 16.067293891929996 13.379988694019906
Ti 9.284514535924183 9.09298742584333 14.577545444145551
Ti 11.313722711529005 15.388044288146554 15.779667447334074
Ti 10.470740479907827 13.578888800571482 11.760879422612051
Ti 11.84123376934115 10.474738214025034 13.371820206664731
Ti 9.33374440042767 12.690426891388503 9.431919614715358
Ti 8.216002267626958 11.174820737533976 15.692622754962324
Ti 10.283514669778103 10.526738626203372 10.574965420279314
Ti 9.535132244212733 11.503607082241405 13.338245099913317
Ti 7.143813041755276 10.335356318352128 13.561869997723457
Ti 7.695184126907163 11.624200218347134 11.300114426042429
Ti 8.72690675321361 9.149114287098389 11.977657302430835
Ti 9.767342562812507 16.232311757870317 11.821311642459893
Ti 9.341392804236849 15.032839415963178 13.86246491758994
Ti 8.086088725046958 14.280148775326243 11.280748091277857
Ti 7.419866443730553 13.00047816255087 13.709156290249211
