50
Energy = -335.51245418 eV
Ti 13.257679388112233 9.99080651622875 16.330672240543656
Ti 13.27937953101774 8.341620297119606 14.281093253650633
Ti 11.137830528713042 8.806738063880486 15.674690925630037
Ti 14.804403138696598 10.69184926811491 14.175651511270834
Ti 16.410131439992067 12.350788953350987 12.477347044360778
Ti 10.912325775071595 11.427262750872867 16.504905026425664
Ti 13.42017564710178 12.52845598771683 16.024544117865464
Ti 13.638435437403713 9.451229644451717 11.997780136118823
Ti 15.253645634069894 13.311705939048036 14.478864552285012
Ti 15.670864169236125 10.513379024795578 10.532948277822095
Ti 12.275251906421122 7.2468515584838995 11.135194937306403
Ti 12.045263312944277 10.72984298017136 13.997656768945202
Ti 13.775171157463623 8.64837150367662 9.318825011965558
Ti 10.861495939958107 8.465700748865684 12.970323666851552
Ti 14.994857003521858 14.749481639185102 12.37967310465301
Ti 13.326788520092025 15.366213509803384 14.6991423845775
Ti 8.997757049221573 10.158797556214415 15.081292811485165
Ti 15.603160023520088 13.05268969013768 10.02702857337262
Ti 13.872367921064376 12.150616806330055 11.826729328205586
Ti 11.12865148965181 12.039793460762809 11.615772980521674
Ti 14.979013340001668 10.870465275964241 7.667521569567604
Ti 11.255058947627136 13.969458375574755 15.909632199504223
Ti 12.588995454713778 13.499184604080678 13.495588745647407
Ti 9.60404629666692 7.652877097130061 10.642800770826321
Ti 9.8155268079101 12.536108348393395 13.857252038289731
Ti 12.476116455280257 15.935046238357893 12.191848679210679
Ti 9.129930960189323 10.36788420257846 12.164878805846676
Ti 7.272831771006786 11.441392175156004 13.693080434132517
Ti 13.248434249164632 14.389504231368914 10.316968978336869
Ti 7.640985411516775 8.70808653862939 12.724814045317267
Ti 11.444710292626487 7.480280748535456 8.689330074237283
Ti 10.450077915192429 14.530748971466496 11.112136759204262
Ti 13.493447634508623 11.443703495467718 9.294051549655848
Ti 11.454270055159053 9.640928882875038 10.333930861911913
Ti 8.668639443037085 12.90874515773232 15.77088497290188
Ti 10.567127789421692 15.24557413717797 13.830402414419956
Ti 11.449142493683462 12.768677043637544 8.932204588133823
Ti 8.200379183792515 13.02839857644585 11.667371907170411
Ti 11.325659157556824 15.42424503192708 8.72540909121683
Ti 9.233116796633954 11.178858049028893 9.735867659001578
Ti 12.00874485149007 9.785145741230354 7.553463248990321
Ti 13.51737270231835 13.981379676926545 7.733288154474738
Ti 6.67258672563017 10.940708396890667 11.123098005255173
Ti 7.474392236887389 8.985000247544919 9.921303013946375
Ti 9.090913314276932 13.72325884597189 8.707873335796217
Ti 12.621647648212162 12.01376939369576 6.478737098263778
Ti 9.355140688318151 8.89980882826158 8.125774578308503
Ti 10.97498663653599 13.982558221081568 6.665839625394963
Ti 7.377637623193294 11.082391760492188 8.309728325882253
Ti 9.914710721652835 11.534894424644733 7.066060432776483
