51
Energy = -342.43543861 eV
Ti 16.69349420002422 10.903996304966721 10.724790729754469
Ti 16.964250764970238 13.588665925041738 11.258864829752339
Ti 16.681100643714604 11.620050082494902 13.351841141127533
Ti 15.444214043837809 14.118954651106037 13.63402460030885
Ti 15.14001641193374 14.923697801712752 9.477932265297287
Ti 14.904503901748413 12.508541470485765 15.3582960000213
Ti 16.13745937580067 12.613930749941465 8.819099037535452
Ti 15.251835905900034 15.675786509023428 11.734337560590825
Ti 15.154227897862059 9.948248538561232 14.982682854013518
Ti 15.583583064430417 9.224740295758751 12.469003240410284
Ti 14.648440837253188 12.643213387710107 11.015408995386625
Ti 14.786249715298133 10.357253282480562 8.719995251095733
Ti 12.629856696048929 14.64777590800935 11.091441383997626
Ti 12.792722748935638 15.12166000454234 8.378336515049961
Ti 13.277179224390904 16.312800867465857 13.334109428128853
Ti 12.703748630958032 14.308103708490268 15.666913505896252
Ti 12.695535825775988 13.47607775770096 13.523649455923845
Ti 13.200856545170879 16.98816734029803 10.439268458014006
Ti 12.495572045094585 11.267333107009925 15.426398284912281
Ti 13.032479244945252 8.810355002148745 13.501010504553264
Ti 13.241594224584965 12.516461324675745 8.79880808417095
Ti 14.012387197931547 11.232923902614576 13.14281927402144
Ti 13.493206678352731 9.811891316262592 10.75135395567631
Ti 12.748548694178403 7.1347348021669985 11.56010233673881
Ti 12.201515122895424 7.833686177577773 9.161078032579013
Ti 11.77094450750839 10.228539995013941 8.44877989336794
Ti 11.97863743722359 11.997329150240612 11.2836840738154
Ti 10.91475990495996 10.611892381663806 13.464841369090223
Ti 10.885227801059346 15.48410687541073 14.029049600897173
Ti 10.756444792899401 13.50653682877501 9.018592531161223
Ti 11.002817131551797 9.11262191557624 11.196191076797874
Ti 10.728298844501657 15.97221713402924 9.702751772223376
Ti 10.506125053026027 7.404533014430493 13.207034789019868
Ti 9.879900972680572 11.205684139786865 10.002086692296416
Ti 10.99512922499506 16.77977756268943 11.946145897641186
Ti 10.123517198585938 14.014341866902202 11.761585363045835
Ti 11.130030670262629 8.851089817576165 15.4256477114623
Ti 10.28690000441841 6.715812298759938 10.62171925995764
Ti 10.181144249798855 13.092618978685431 14.488408652565766
Ti 8.960435990424338 11.400577469056847 7.919166708787281
Ti 9.805079460004414 10.9060515337979 15.889370022519305
Ti 9.538521333146393 8.687255818443587 8.946793085339056
Ti 8.701738157142778 11.504373616927362 12.30110506250643
Ti 8.625155066174843 9.15018492944349 14.259049376133866
Ti 8.02013517611283 13.189990680365261 10.179718566124338
Ti 8.407468209351512 8.495653952826624 11.552341728664578
Ti 7.9835103135665895 14.065351785755492 13.047686215962988
Ti 7.221648893778425 10.601217713229968 10.185226641338465
Ti 7.484005441554269 11.709386342154218 14.528687765492764
Ti 6.5399575798873295 9.97300370633884 12.759625142791037
Ti 6.2547428013728705 12.347656131897699 12.11000113406519
