50
Energy = -335.75842725 eV
Ti 11.650782514741154 12.66208910148975 17.25900850823018
Ti 10.852615497406838 10.541125976297755 16.15255707638995
Ti 13.268048885561239 9.4062909486912 14.525475300034833
Ti 10.623141368059706 8.84005905667223 13.952818385702441
Ti 10.431032014699984 14.852526452930697 17.147511837496136
Ti 13.111731758557594 14.817203705529254 16.427374462894193
Ti 10.861055571797753 6.354375974343908 12.503844522693422
Ti 13.623632747675778 12.106875589511183 15.927322158498992
Ti 11.20063638792648 13.840637409228174 14.80675671935518
Ti 8.916838186595816 8.066965539219396 11.904977843603373
Ti 13.47269515959019 7.237239539121352 12.770520596048923
Ti 11.229512506825847 16.508069664276906 15.442812360398166
Ti 9.144473688060899 12.765809166797307 16.113822848950278
Ti 15.19638792142958 14.117336489432518 14.718394807819488
Ti 8.90032437195595 10.77749256574354 14.370077204101245
Ti 15.34499654782955 8.954701013626293 12.866762046186082
Ti 11.508201442238493 11.336707907164532 13.739920567122939
Ti 11.469548464353167 8.633877336823797 11.452958540047838
Ti 14.987776706420284 11.37401623889045 13.884259317931896
Ti 8.981738711919254 15.265586837478486 14.955311621263078
Ti 10.235656549752331 6.810848667922369 9.947120429982702
Ti 14.40459057299045 8.352540038831112 10.415815844639054
Ti 13.333446095202468 16.093217483780883 13.981746229215492
Ti 12.622839319689644 6.3836844709134475 10.534566013650512
Ti 13.349980218138533 13.522591844661239 13.176268236540126
Ti 15.916053439846165 10.723928572299453 10.943537165022875
Ti 15.14896818542055 15.138998508284118 11.913270009955568
Ti 8.945162374615602 13.247559431358084 13.197624795731961
Ti 13.409215780775893 10.508081503126688 11.856168608075132
Ti 9.55235765517442 9.284803594505313 9.524241596564787
Ti 14.090021035885623 10.780306591876398 9.004389549297795
Ti 16.155650729686908 12.94736404437795 12.300888400139522
Ti 10.718894603811794 15.895171582430072 12.953228698609385
Ti 12.121252016942567 8.518381687269983 8.80193477813228
Ti 9.588337812182528 10.635504130683051 11.891461182795918
Ti 9.242328101887022 15.009499425095672 10.898184342878183
Ti 11.040281445135953 13.216555992164977 11.783460025839771
Ti 11.436793748197532 10.967435929695764 9.830203462675849
Ti 12.64889348727815 15.498673340367993 11.31675063006553
Ti 16.043892093388184 13.236472449218658 9.586733767213726
Ti 13.921446063275141 12.959306946248907 10.65769508994156
Ti 8.84502342341572 12.48758903597742 10.167162716829717
Ti 11.08751720831052 16.083580233799164 9.215826693429658
Ti 9.894900308475599 12.079622270190212 7.659326617009912
Ti 12.164946125976817 11.527531591100255 7.1913298381162365
Ti 11.65492011992744 13.422475362145738 9.254925115190465
Ti 14.04259021638227 13.166750696881753 7.698495061132043
Ti 13.674882008744405 15.245325694436174 8.925919954043703
Ti 9.254514610460621 14.42128573813265 8.402923395133907
Ti 11.613785867416011 14.31865454700533 7.003794254593143
