53
Energy = -355.92711985 eV
Ti 17.883740707407735 14.780851699805579 13.456701548091516
Ti 18.020330434677586 14.155642371299873 11.093535327518309
Ti 18.355419446302015 12.159200744566656 13.054845418876505
Ti 16.830480394415755 13.133857573268376 15.326049247503144
Ti 15.941697822291873 15.919227395191317 11.863466655508969
Ti 17.66624860599906 11.717837325458483 10.590144752937272
Ti 16.79134403025897 10.710663111970783 14.655261158060028
Ti 16.023146228260483 13.058784825425825 12.408765670224254
Ti 15.54801590491262 15.273068333141543 14.343795600427047
Ti 15.738389791130517 13.4472162179073 9.681163243742015
Ti 15.066957848275287 11.21060930807262 16.40490757324909
Ti 16.360622267259508 10.15560811403232 12.334134137331416
Ti 13.738234731789692 16.48148416811965 15.812869439777657
Ti 13.727618072279366 17.360779057732202 13.209322520896793
Ti 15.394466692768136 10.612947483962111 9.84557360239623
Ti 13.845569288276693 12.080220204671727 8.471433051386468
Ti 14.25560205740954 12.066618294935282 14.031871600311453
Ti 15.202879695134238 15.9704173786505 9.429560273438323
Ti 12.088425046131718 8.712309645238314 15.76937837448387
Ti 14.120205675624906 13.798900577748205 16.0822893607566
Ti 13.494280001566478 11.904875512068436 11.24676418464478
Ti 13.750254355957395 14.502365755360225 11.286141154612292
Ti 14.446251194868251 9.439016026411062 14.413709213557244
Ti 11.547703380925794 17.114773778415344 14.761412663297687
Ti 12.922354253525105 14.956577782548477 13.843640325275064
Ti 13.088993994704731 14.609755698828833 8.713116253365422
Ti 13.058966688536776 16.875537868324933 10.490608445928975
Ti 13.824885814298433 9.175093891439978 11.681980732388336
Ti 12.802086952514397 7.5390453022492885 13.496652254035245
Ti 11.496483342346501 12.773455953534858 14.155079103158752
Ti 11.959073669050031 10.045887230526017 13.52425241723184
Ti 12.463098147849424 11.38974458199779 15.955703193081536
Ti 11.127447141656774 13.805647113213317 11.61243758352345
Ti 9.825698521150594 10.45625077936033 15.041863606570576
Ti 9.841130616015326 15.085968656395261 14.33548909126387
Ti 10.341573262807685 7.908010008313116 14.033217629809638
Ti 11.43421777965185 12.456104239884336 9.228314268857726
Ti 10.688220069329793 11.010378639544234 11.459442659849088
Ti 11.174243224611983 16.617479155209747 12.23063710310365
Ti 11.613353223263038 14.82501750295003 16.194028742361304
Ti 12.477239891223466 10.000052763862879 9.691421039080934
Ti 11.14889644197315 8.167040012285781 11.452882317534682
Ti 9.10992710241428 12.387669322076288 13.055775935283672
Ti 10.810466126845144 15.463150714455612 9.719915064080613
Ti 9.136497003685731 12.902512989005297 15.709610791055798
Ti 8.795828430270644 9.420375046119995 12.701132757783705
Ti 8.777934305811694 15.008419214339295 11.872552781016273
Ti 8.92941329257837 12.92069064803589 10.171093221489123
Ti 7.3739618323886535 14.11391575303589 14.169743869672603
Ti 9.567622797749328 10.014320384114233 9.68159000059127
Ti 7.5308422093106255 10.89160086013749 11.302661570167238
Ti 7.118956086414755 11.380892370692592 14.085095584557804
Ti 6.79382078052929 13.129441440325069 11.94314417144656
