53
Energy = -356.64572299 eV
Ti 14.622442247699702 8.513830273936886 9.94865217772684
Ti 15.910603022250694 9.932642487018905 12.185672270092612
Ti 15.053088076769267 11.581489222044912 9.872308997860666
Ti 15.415907957505429 12.588253459363774 12.517712324826404
Ti 12.996377036171529 7.563794048269059 8.055055651937625
Ti 12.686924426923154 6.612542375354407 10.56860408387388
Ti 15.092723085904979 11.06350200564375 14.5859729549192
Ti 14.238278208672767 7.696831584223726 12.424884485343652
Ti 14.70305392098869 14.257979400999881 9.620387137653186
Ti 13.653950711455433 10.533659602975053 11.838903489264414
Ti 13.585640381912976 10.279790556282157 7.795071640352524
Ti 14.414432127536449 12.88153389698714 7.480708119140312
Ti 13.436953877089897 9.150504487950498 14.400111585125506
Ti 11.99915866978942 9.280881878444033 9.662886283651815
Ti 10.479850582267334 7.042305837013143 8.957522122602434
Ti 14.313577952673784 13.434848544142055 14.956249452522377
Ti 11.127621481300674 9.235916860099026 7.114396649197032
Ti 12.715705508681282 15.775185253538789 10.496515064493082
Ti 10.172003782678022 6.452730225260265 11.51905083188575
Ti 11.890660671932675 12.305477519082132 6.669524480776018
Ti 12.859430122859148 11.29792159684483 16.233978933748006
Ti 13.163256659565045 13.479961784745365 11.71392853096265
Ti 11.706341483643277 8.673677582189157 12.327457007471066
Ti 11.808414142052843 6.873702327057047 13.771952716154066
Ti 12.514174710615565 14.87880769917738 7.992121037072459
Ti 12.606110317043878 12.473437432352222 9.21154529572149
Ti 12.506354445437136 11.81105468421891 13.89797833397876
Ti 10.206748261972962 16.04776288761496 9.313899345267568
Ti 10.15527303049252 11.328190256998251 8.749346877044669
Ti 11.125360138760383 11.515094786689904 11.181644657854049
Ti 12.62591315355741 15.293838034717306 13.807144418733396
Ti 10.937315853742499 9.217571643562904 15.276089924551986
Ti 8.78508362062978 8.84978071313597 8.056856111368678
Ti 11.95003679261992 13.843465347593567 15.845818562825963
Ti 9.525181283605235 9.24247101588813 10.758802585151015
Ti 8.703077972962523 11.427289811615095 7.0212417784874415
Ti 10.535054407089012 13.977675600244647 10.262200434726994
Ti 10.710184958466952 16.099641977912746 12.144987718974289
Ti 10.047256534922951 13.867664226629014 7.502287519509614
Ti 7.964299280945193 7.585755190052518 10.385070967555984
Ti 10.64735157713798 13.49434171259309 13.041430880658659
Ti 9.054788726287622 8.071647376890862 13.213070860716158
Ti 10.11781738071821 10.564499312946861 13.385457700420233
Ti 8.578141112213519 12.011124221024309 11.616906793613893
Ti 8.168920379204879 13.246157542262694 9.171106635301674
Ti 10.023815725869037 12.219697347621555 15.466470990136722
Ti 9.951091019395921 15.16648624685455 14.645336720698687
Ti 7.421437881913368 10.532499943109572 9.486628108736747
Ti 7.015842807874461 9.640919995318626 11.985153149927534
Ti 8.478607768043531 14.796091446138796 12.028791631370856
Ti 7.5479907252097975 10.859160207400988 14.072939771891187
Ti 7.938098598600263 13.353656952581364 14.047378340415527
Ti 6.360474898019852 12.323453079062924 11.96298535738444
