53
Energy = -353.33235133 eV
Ti 12.233106083285076 11.17914534524866 7.797024274021475
Ti 12.908828235685464 9.091746959110758 9.239866907945023
Ti 15.037938040898146 10.5462456963598 8.369173782821289
Ti 10.192001277957932 9.348432923166477 8.389314973397665
Ti 10.75916401854295 7.577601092701488 10.537652460271905
Ti 17.38222898198974 12.032721962517446 9.046879363533632
Ti 13.108333948858903 7.932260356731936 11.452557240232442
Ti 9.825975187379015 12.010588659110478 7.933914457168605
Ti 15.005963377796087 12.94106774919761 8.058188777182435
Ti 15.172023998058334 9.410578466429314 10.83811309968457
Ti 13.307871688197888 12.060766464595018 9.956111432250829
Ti 8.555851448635915 9.014513456583542 11.04546278676416
Ti 8.494492633601693 12.14771644944911 10.311112989957216
Ti 15.758729631720504 11.858444192066521 10.770493827227774
Ti 11.693173889703846 6.626866824429389 13.041240836339334
Ti 9.210588358209776 14.351323225817497 8.557701820111964
Ti 13.371558173382365 8.582294902051517 13.853448579317716
Ti 10.837550066342976 10.470414426289262 10.41873292618891
Ti 15.720634195706777 10.965106295863611 13.226902737073372
Ti 11.758598823240717 13.892891152103433 7.698712865341162
Ti 16.090944092726854 14.342872678201214 9.966274904744331
Ti 9.279515828324783 6.823002150907027 12.700857269390118
Ti 13.062209913636412 10.67785209269546 12.287834325372994
Ti 10.675252102247333 9.176786505367803 12.897080469271538
Ti 14.27854432963882 13.26363261761992 12.445853192261952
Ti 10.919655544680877 13.262180907302268 10.124736628160775
Ti 10.346122720223864 7.803662325489737 15.053037123526575
Ti 16.76060217856867 13.717136518745361 12.595790213396425
Ti 14.045554133778907 10.959315109874959 15.000365720708052
Ti 13.628041650554593 14.902791164609017 9.470234292120692
Ti 15.006735147392916 15.925314330085016 11.778584679365602
Ti 9.13629034400311 15.167974886877294 11.030950360046429
Ti 11.13038411867712 16.077070967802456 9.411606154091702
Ti 10.737729767757411 12.207525369978423 12.621917450993175
Ti 8.245968466135356 10.973827354176214 12.777575208507502
Ti 11.652762393174102 10.687064127805126 15.004308333554235
Ti 12.246590550145614 14.883978925445469 11.736251419025493
Ti 15.41731436178331 13.120131738272418 15.162034305840514
Ti 8.290588259943725 13.491215928271037 12.688945327796226
Ti 8.068614678885242 8.516035312761808 13.705041495066345
Ti 12.483660573819222 13.443422633065964 14.516035901411714
Ti 15.196974417133749 15.340060912105955 14.131262834012384
Ti 13.013332922192363 17.246290369695835 10.959987669557236
Ti 13.431641934973957 12.65977921387208 16.973126181604307
Ti 9.09894731372875 10.15120321006422 15.23395987345528
Ti 10.70198779861861 17.021393197142977 11.97582918253709
Ti 10.30311006341984 15.013311373963857 13.640949030481288
Ti 9.725822552478197 12.74675769591807 14.948753505952416
Ti 13.647134058397306 15.10141184687206 16.27710862787949
Ti 10.862774133173934 12.05169121499006 17.251147386039545
Ti 12.814562528993207 16.373966168964266 13.719041687301885
Ti 11.017126816015459 14.539695191523696 16.489877158843857
Ti 12.064662741122271 14.010434363267006 18.598966436891356
