53
Energy = -356.8298625 eV
Ti 11.596263786933626 16.329905618881636 9.761990231268838
Ti 10.77164936477373 12.972341080877817 6.970302982643176
Ti 11.074362869068556 10.308766537635538 14.648123578831292
Ti 9.020403975187216 6.812345300345036 9.547665849407544
Ti 7.767644828352868 13.249440169019982 11.03824674925173
Ti 13.316506221516956 9.165613068332474 14.715068845221271
Ti 12.973321317967741 11.38689356058312 16.446494433348505
Ti 11.140846323902549 6.632703496733622 10.949621053794246
Ti 10.429506659977267 12.182536403412897 16.396291219838837
Ti 9.737494853135045 14.421779893095428 15.506712446218309
Ti 11.268347468353815 12.991027464697215 13.93723240876562
Ti 14.717986351623956 13.582558209499512 11.560453602614455
Ti 8.772774110242505 12.179476584525165 14.26340020179914
Ti 7.284593951901108 8.552751591803828 10.006025871785962
Ti 14.69302498327034 11.140788738315315 8.961170566724793
Ti 13.387448261778669 6.891859106641067 9.648893858794954
Ti 8.853210815616558 15.782055191318406 10.110793800146544
Ti 12.312073476730847 9.401760682562065 9.546753360158508
Ti 13.282393730220354 16.587329403223745 11.995436916169359
Ti 12.766601303598593 13.96686450597966 8.964316928699692
Ti 8.7695490093225 11.351663268078864 7.013602103283607
Ti 10.969468381621354 7.745087531946871 13.432689697639594
Ti 8.515857879670158 7.278758767706117 12.086784211923522
Ti 11.276556343965686 7.301661318070665 8.22958693028276
Ti 13.415844149105068 7.389451117569107 12.24475649607445
Ti 12.66896910099 11.97520619737503 10.761104412209166
Ti 9.01786366013202 9.379858105071134 13.727435036619648
Ti 9.782869225603136 9.10751799834464 10.898407334819144
Ti 10.481830339606631 11.430018487660782 9.069202888694
Ti 14.089454789464714 14.719916193357161 13.999832773702622
Ti 16.14617663314196 12.768772216573922 13.700846562860084
Ti 9.920663265149013 11.644140861653911 11.96965028911148
Ti 15.323417020958521 11.198257025120654 11.469408045170377
Ti 14.92235393183567 8.831337675019048 10.324177233818089
Ti 12.43155338262328 9.814920250001395 12.252714170633642
Ti 13.691185395322634 11.87473533540561 13.684393706510692
Ti 11.240246543388821 9.890405258735772 6.948845962968349
Ti 10.303368613137895 13.818472087866528 10.272389433495322
Ti 15.41721272966809 10.729493939751878 15.45193926160849
Ti 10.583663545204587 16.64653905854742 11.990102432631597
Ti 12.955215927504026 11.480083887467979 7.5981344933131
Ti 12.412592205077068 14.008954178493376 16.17404897250917
Ti 12.296191066303194 14.427105599387192 11.812146347762438
Ti 15.12634363735427 9.457533376570955 13.087101780976672
Ti 7.911227024151539 11.110136617478954 9.631066047670235
Ti 9.161379997316482 9.01017116359208 8.094609490134971
Ti 10.390583442167136 15.21679017652878 7.941013766315141
Ti 7.484133573383933 10.085142881633207 12.099699866028052
Ti 11.669912551918813 15.813388200994154 14.1843801035707
Ti 9.27859743667915 14.455185040096831 12.793341273675939
Ti 8.371650863708515 13.578693112540456 8.306750945446058
Ti 14.861307994949883 13.075818726217175 15.908930825836988
Ti 13.808616091916571 8.70829814415359 7.728222603715425
