54
Energy = -362.59857274 eV
Ti 16.150753196325905 12.235952893377037 8.27356159307177
Ti 14.775817952765285 14.448538489234103 8.330635844629484
Ti 14.112505934474743 15.77674381017187 11.632316638554865
Ti 15.797013640766327 13.526393173970428 10.52773035049885
Ti 16.064809584011453 11.734405737864439 13.156703645965303
Ti 15.902842554514168 9.105779894516235 12.990480035291313
Ti 15.07131218799946 14.978807321226343 13.622258207731523
Ti 14.888434903891069 9.951057903889971 7.926247088335831
Ti 15.5284468277998 10.828180471984213 10.723170461142248
Ti 15.351163845203786 10.28049385356502 15.19610920995266
Ti 13.977293148045856 12.412063372644331 6.635614542075696
Ti 13.738349632585543 15.098699337087591 15.799148071124112
Ti 12.656805991879368 14.354068611623799 10.17683932019597
Ti 12.874054225360961 16.840117760038517 13.969985061895159
Ti 11.256618248560777 15.584437771224607 15.770263204062719
Ti 14.304881777247084 12.695341017109973 14.939668834678956
Ti 13.932633530115682 12.942030095687267 12.005403761136654
Ti 13.282687529303866 9.387118896075918 9.911879378964443
Ti 13.633561678680577 12.033894537180329 9.139234913423532
Ti 13.58778207199045 10.441900980157888 12.903227004610526
Ti 13.872219016962877 8.291185279824921 14.60323537702117
Ti 13.65775631531304 7.8572939499150545 12.150648618137822
Ti 12.511224677227316 10.202921339571121 7.199209517869739
Ti 12.322998101916946 14.483476434383727 13.447116715878746
Ti 12.461010364223343 14.490820782888715 7.563839710358629
Ti 12.79123128843466 10.407542571021283 15.84359830741725
Ti 11.36416450109972 16.22962074030552 11.407494302993916
Ti 11.633748115741383 11.937239507261848 13.94708908754752
Ti 10.163447100101385 14.394575302552708 9.312201253832653
Ti 11.144603899709523 9.171801923089168 11.407816842182388
Ti 9.936040695303534 13.763010151558591 11.896614974383775
Ti 11.966727151076174 13.180203687817395 16.34639192535518
Ti 11.154126864430227 12.378917042440966 7.659138414060169
Ti 12.638325370003109 6.7003387514466075 10.250553157933165
Ti 11.251039463092926 9.067613514281328 14.142288087270133
Ti 11.424260619571323 11.830593724178 10.73398984860362
Ti 9.955724695827575 15.968563723289495 13.526831080283557
Ti 11.982351852313528 7.777867013138072 8.19499472311042
Ti 10.556297245082794 9.925383919710958 8.7904197713017
Ti 9.965623874950028 11.196821491337912 15.880500469275876
Ti 8.728209123729522 16.04006322815204 11.120421608908694
Ti 7.622623239270276 14.048325528716855 10.321895111187596
Ti 11.222349056424063 6.698664039588784 12.44606233372044
Ti 8.60259119906525 9.417326398642185 14.953509602976608
Ti 8.924033380701871 11.968678815634696 9.845220558360657
Ti 9.364727503603541 11.041150640830205 12.837782170261661
Ti 10.030244659733219 7.2770804823077935 10.063314807488638
Ti 9.639866199553989 13.664408588094744 14.88339995920801
Ti 8.393550864481995 9.638505233411532 10.657545811286312
Ti 7.531318002708964 11.940692194643114 14.561657541039967
Ti 7.577111819819845 14.43202347279058 12.993934184104198
Ti 9.000435149423888 8.195638937125526 12.637804320811618
Ti 6.972123149825508 12.071213805326433 11.85599123327953
Ti 6.945497929845045 9.858302079596623 13.10344837227171
