54
Energy = -363.47039513 eV
Ti 13.35982103257606 7.828948557571609 9.24058205311316
Ti 12.120181864309105 6.473588535313463 11.268428883681887
Ti 10.65376526388026 7.579488082400781 9.402439131029086
Ti 14.430702933488819 7.785999461885957 11.784053271497475
Ti 11.497195020293242 8.97252828759703 7.63604820134951
Ti 12.947798656026315 6.6784530312152155 13.756897419742105
Ti 13.538308825000005 10.70912744361065 8.003748167351462
Ti 15.021169999783634 10.131407439247191 10.056394176612635
Ti 10.36151629822643 6.942363150670332 13.456754284007832
Ti 16.550439215952405 10.10736433964692 12.923435274817095
Ti 17.275156006212775 11.562991371450288 10.995175517735875
Ti 11.999855055070373 9.858873096567777 10.07089435299694
Ti 9.428328022242873 8.758349124638146 11.46816020669074
Ti 14.21065484336803 8.914491779998064 14.43977361630199
Ti 11.935268455007028 8.764965124148192 12.543508850862802
Ti 10.960226869213912 11.608770820897803 7.815566899247709
Ti 9.387101292297835 10.16507698478756 9.252595450274686
Ti 11.641970704902821 8.567610180365396 15.281249359872051
Ti 15.558697801963532 12.635977716792878 9.278714480206538
Ti 12.889521729093264 13.481802079250441 7.9413874016261055
Ti 17.159736754631822 12.805363166949965 13.467857093528309
Ti 13.977463231475562 10.416167679502388 12.309857523624013
Ti 13.0435679704982 12.310938164141113 10.254393496731328
Ti 15.087890800267784 12.558115995876367 12.228390489186724
Ti 15.496063094511692 11.14471288150751 14.901276132947197
Ti 10.323422353971514 14.16913448936844 7.834762176475194
Ti 16.831049304411376 14.133848631692006 11.095489126552364
Ti 12.481827509258531 11.277027089953148 14.167690959872308
Ti 9.444225540449597 9.33810815207805 13.91804099706036
Ti 10.567202615839744 11.138084949708233 12.160815887185288
Ti 14.30390781566873 14.705807553555324 10.406488526270206
Ti 8.302433289612413 12.66398299710705 8.80820469326037
Ti 14.357135152765078 13.345542120154782 14.869790308245209
Ti 10.33237877489066 12.879912681243223 10.253861008090377
Ti 13.101611641723965 10.995578972682376 16.392617286006658
Ti 7.97641363897162 11.147127742600254 11.176575596177345
Ti 11.852243722418079 15.295087516916178 9.690030449393278
Ti 12.753025532312037 13.775623864657803 12.671960601298212
Ti 10.193573749237098 11.14048393050482 15.51383494739021
Ti 15.01898660211759 15.112811762648121 13.018531111580993
Ti 9.910807911942108 13.20558354654829 13.646409047048008
Ti 11.677162460333491 13.481271980085616 15.648857263134389
Ti 9.107477552689275 15.237756807072696 9.944609596080628
Ti 7.911915651855425 13.60565861560101 11.637698649064923
Ti 7.816965087967836 11.766105010044367 13.978262314721695
Ti 10.767032689502107 15.130630215306194 12.083994800576338
Ti 12.971669163085512 16.78584110888543 12.01485813538774
Ti 10.53943380803252 17.391085424511108 10.93981990798123
Ti 12.647376495850294 15.832068534058328 14.488736516821081
Ti 8.882694656922478 13.289606236338358 16.01947238928917
Ti 7.5600773183405465 14.403227719531538 14.15200729280418
Ti 9.81562800014523 15.615585076453392 14.999143267156564
Ti 8.566539480813454 16.331135475078025 12.642075287022099
Ti 10.861664660054526 17.451091221059443 13.456064044494612
