5
Energy = -26.32635663 eV
Ti 7.91931499430135 9.342346792501456 7.336767519425653
Ti 9.609468034005959 8.154584370539348 8.748214648837097
Ti 7.641781399561169 9.39875217820763 9.804598040606324
Ti 8.71729635672622 7.083500968848277 6.625445035071027
Ti 7.298815883985699 7.207492358483544 8.671651424640029
