5
Energy = -26.56966239 eV
Ti 7.248066023671222 10.055449445827191 8.264757635839514
Ti 10.177305117091738 7.338905943296491 8.988800332939512
Ti 8.539854226031716 8.23192251993202 7.4495875417937985
Ti 7.999072639636395 8.220158987279225 9.915715635465258
Ti 9.69473729371559 9.812598403811508 9.040174154108575
