51
Energy = -342.54393244 eV
Ti 9.377636343696858 10.99882034369543 7.593473345354313
Ti 10.71140746278035 12.85928286985574 6.372566085631483
Ti 11.94465197278929 10.53005737591417 7.077379217488525
Ti 8.7647370698337 13.339569480885622 8.189014173097691
Ti 9.222512787284368 11.50059054981514 10.295000737483061
Ti 10.565155207737886 9.419313832414142 9.08065642525479
Ti 10.96966002875036 15.021300595474864 7.914117488949823
Ti 11.203684282064545 12.58331494246794 8.932521649889225
Ti 7.3072441659875516 12.873260710950724 11.30870789255993
Ti 13.124017390484365 13.268138301222118 7.293763644337133
Ti 9.351414789078527 14.483216644975672 10.326651119949101
Ti 13.116790151174682 8.690811611796278 8.904493462650903
Ti 11.315890119690874 9.01152544716462 11.635277835638055
Ti 13.981582868528347 7.778127598163407 11.57212963486839
Ti 11.292124213788103 11.566642786741603 12.052453376579088
Ti 14.316255673756938 10.925301427034286 7.881537233185153
Ti 7.765636531262014 15.222121636399914 12.476253332360525
Ti 8.616651292269829 10.822655149943193 12.825106000706288
Ti 12.143782140447776 14.137757942236677 11.062417168995891
Ti 11.043245470292721 16.481114123297395 10.10457756436229
Ti 12.774948035730468 10.83392091913621 10.083095390094382
Ti 13.397171518250385 15.423019699382728 9.058343220976543
Ti 7.172726276256647 12.970453449269172 13.856732418587853
Ti 14.57828520530092 12.891318030195 9.66221331979264
Ti 9.494194862884912 13.374732775109516 12.777017959031758
Ti 15.27664018620494 9.973932441172883 10.170149426068374
Ti 10.57716555253767 15.801904135178395 12.69745903501961
Ti 13.950099408828358 12.440644783804588 12.36221206103999
Ti 8.88002162130621 14.755909918782514 15.001573382952238
Ti 12.996628501810754 16.62431109983862 11.55047990707061
Ti 14.834305314472873 14.725190888397186 11.381923785491738
Ti 9.016326186023083 11.980551769173 15.371074292654209
Ti 13.77589628696855 9.953651186052225 12.699834389107567
Ti 10.99351626987807 10.08085041214563 14.342538907695653
Ti 11.502155435867541 12.97988200848937 14.431349731638596
Ti 16.370917900314094 11.634339248085936 11.92582592445495
Ti 12.367579990691288 7.856621962408448 13.721251146822762
Ti 11.447772462703922 15.562408642781971 15.23139678586391
Ti 16.305040714094577 8.977384625154741 12.295642967525502
Ti 13.304962960989851 14.76538498325434 13.482985023667789
Ti 15.68998424072019 13.308795213180124 14.191317678576535
Ti 10.557881363355783 13.741692357106299 16.808209771776813
Ti 11.464273082150203 11.311714176354013 16.580862477517154
Ti 13.741106682350102 11.277572382643669 15.019635918250884
Ti 14.900812928400137 8.14760965537064 14.315696505175003
Ti 13.303140148911977 13.597728477175567 16.192073865130517
Ti 12.880963845079656 8.94193049322221 16.086834016848222
Ti 16.47246261142372 10.669553259944061 14.349312095081661
Ti 15.798412638173083 12.182332295200046 16.455011355472013
Ti 13.750442188921422 11.216900236266635 17.654193469322912
Ti 15.419392117791471 9.614141605368118 16.47496288204308
