53
Energy = -356.24709218 eV
Ti 10.737046224431102 7.749143270469663 8.982620506773385
Ti 13.034733914452696 9.425530446390145 8.93028329284421
Ti 14.765975750662449 12.042552918615181 9.409511245527044
Ti 12.751114130501698 13.000922737356465 8.395486998409712
Ti 14.863365751192891 9.383073077004994 10.838420659956615
Ti 13.054645558900537 7.448439047576514 10.489710829334715
Ti 10.885407341950591 10.576577332620163 8.34836749100092
Ti 10.194673661006371 13.724735691145018 9.040874124396524
Ti 8.580768262875328 9.445471625908343 8.778606444491473
Ti 16.677286694311558 14.020472719114613 9.604178507808333
Ti 14.366317502514608 7.3041698243588025 12.55042557829684
Ti 8.325473952337164 11.883497298151704 8.095644198089037
Ti 14.470871765451928 15.172719254883877 9.058930092323928
Ti 10.714465645603026 9.128333973063647 10.888464953869684
Ti 16.65568441978313 11.777749439894002 11.105458478079594
Ti 12.204723663228323 11.417933506596107 10.62179138111792
Ti 6.853416176932705 10.874197607851832 10.264484594360798
Ti 12.021338968416572 15.56476902079022 8.640316762151453
Ti 12.132399251691412 14.073683866157731 10.922524993221403
Ti 15.254026683928833 9.577456150191521 13.624522342858372
Ti 12.74825848064181 9.463502439967248 12.631178478457954
Ti 17.536444495252795 14.168038946991025 11.9507464560092
Ti 8.017131019547314 8.521779471401304 11.032566465037462
Ti 7.716493985160124 13.520707718836862 10.017997159258348
Ti 9.466629249302676 11.598551267929638 10.41969199359712
Ti 14.871672903907164 13.8904915812338 11.471140174520155
Ti 10.294982655417057 15.960401237945591 10.43671497674436
Ti 9.281699320432619 10.482998552328102 12.811599662016837
Ti 14.228210988045745 11.690814947881119 12.592214474123983
Ti 7.154983960472179 12.60979405687367 12.230360156060724
Ti 8.725245369101492 7.987779623215387 13.301985058459184
Ti 13.030033623543577 16.61809095372625 10.8863747968448
Ti 16.642867554447175 12.439339955266151 13.5792454334854
Ti 13.315842477819821 7.988953847972376 14.734605948561807
Ti 6.795206396291363 10.041985129819087 13.066099115882762
Ti 11.446601386053601 11.97801328964935 13.260078065185393
Ti 9.614478416039127 13.802840255347169 12.043483447190003
Ti 13.119510943170344 10.721176384693951 15.022113035550346
Ti 15.82648554272049 16.171111457267585 11.244571622461851
Ti 11.582070086088313 7.075057912295798 12.74760767234834
Ti 8.067029018855715 12.179238939797546 14.462574290965746
Ti 10.88351641596646 8.940842242125102 14.647768268088859
Ti 16.0041913800461 14.97353863636595 13.92416122307509
Ti 13.072624325690956 14.115279848853186 13.70152236801178
Ti 8.316342511169331 9.70820038299409 15.2007618841272
Ti 14.968657114818898 12.811788604783397 15.367595541315733
Ti 11.150390144658232 16.03855924079168 12.88898777291455
Ti 10.29256914750427 11.395066068764153 15.653014433179727
Ti 10.272876113230863 14.015092621954972 14.771630568633732
Ti 13.815773750931033 16.606140114151607 13.497144675102085
Ti 12.423123555769605 13.325631095614897 16.16634063413539
Ti 14.278981192922469 15.237628490469678 15.853528660657368
Ti 11.973737737085406 15.860064264305475 15.408991908389956
