50
Energy = -335.7119672 eV
Ti 8.23305394484307 16.108109349619745 12.262105788337983
Ti 6.876592541288742 13.858261745421114 12.518962323289339
Ti 10.710871126823733 17.28636916151118 11.915799544165276
Ti 8.520906150046589 14.392237618684206 14.512093546973974
Ti 10.40434294528462 16.105701552246025 14.045978632834643
Ti 9.526372210576145 16.372379839621537 9.837806420153989
Ti 8.053468710690131 14.182379237679626 10.085575626795825
Ti 7.29215337751071 11.904945911119217 14.195501834106302
Ti 7.2030510861018975 11.31730828695406 11.508311022679573
Ti 10.307661000537 14.676828840247893 11.693455273049603
Ti 12.668767870587146 15.557874892531672 12.743034814775074
Ti 9.213013914398456 12.541380344785784 12.73765023524749
Ti 10.579777536136566 14.069682760335972 8.930887601411415
Ti 11.463320725818328 13.74687799865221 14.309696187349266
Ti 12.20467732129064 15.754846629035047 10.174768425284311
Ti 9.992293339003213 11.80903276893204 15.123692932805827
Ti 9.552786058403736 11.963969469423251 10.20935427153534
Ti 13.849932414051768 13.287618263017336 8.779740914908146
Ti 9.05291928927225 9.879279773157226 13.508789276760115
Ti 14.229443632530018 13.014110204133422 13.365934293633936
Ti 12.384558681962847 13.21745684948606 11.194575403019897
Ti 14.899650944408238 14.00737973165922 10.99628818447436
Ti 9.17347850085203 11.971888855149542 7.774065473280625
Ti 11.49271775932403 11.183871359432613 12.901579221577325
Ti 7.571214307138066 10.01829212166964 9.215096994566482
Ti 9.575806213745512 9.508689765337802 11.031534469628115
Ti 7.124499387345145 8.690504711735214 11.568502314322723
Ti 11.6277316799192 8.273651523549619 12.467762503864002
Ti 13.26580497951768 11.530845637130698 15.136834068693416
Ti 11.767276818846097 11.308616975980275 6.632380762212945
Ti 11.78872139781903 11.527115545860154 8.916391033243208
Ti 14.279347813533292 11.411499061983722 10.844756681282101
Ti 11.805776027273508 9.395267557974856 14.952219409850683
Ti 16.354249219379522 11.730392243580509 9.572156682881838
Ti 16.523963507553088 12.323234021361907 12.159907942099041
Ti 12.340952153780163 9.537594492027894 10.438764077240343
Ti 13.850498887268177 9.838627888203169 13.068570506841722
Ti 10.034785137642523 9.441700594678235 8.222982089335423
Ti 9.143520412947506 7.194461907276145 12.110289192173383
Ti 8.443764377509517 7.611548990229463 9.57167572606852
Ti 14.342207968970913 11.016756998636824 7.888867806763154
Ti 15.993491517993753 10.858548563611985 14.186774900976214
Ti 14.438440941413461 9.196204061811141 15.591809051557414
Ti 12.716376220888131 9.02476629043797 7.94696221161696
Ti 13.49465550462971 7.317503942612568 14.041723341692634
Ti 10.97968220541021 7.3185131128088186 10.012397317020241
Ti 15.153496309397159 9.201757099616097 9.428586531189206
Ti 16.501573116879456 9.735466349401845 11.655202103586001
Ti 14.255105712016755 7.707588861836456 11.483289684584344
Ti 15.874812240574816 8.204625378944803 13.662480489394415
