54
Energy = -360.59439341 eV
Ti 12.92477704881247 9.50805880136976 16.002810208698282
Ti 10.772599887400226 11.339549902535737 16.196528480604798
Ti 14.732937167889459 7.908866024907105 14.765782682015695
Ti 12.325076975258678 7.511105880275809 14.33708576757601
Ti 15.589489408707163 10.324002626599837 15.314197039794744
Ti 10.486931179828554 8.637508837488127 15.903091373545232
Ti 13.562868956390984 11.975773354847975 15.07688171195271
Ti 11.293272602177378 12.75763232107117 13.827813182555952
Ti 15.535785739587503 13.417660291956624 15.401702240261114
Ti 14.080971714587578 7.4042428230998025 12.080390144787051
Ti 8.613915534250085 10.061223012034631 15.08686610994581
Ti 13.857626120106362 9.960333431026605 13.222468049697053
Ti 16.32359944403144 9.066120054957555 13.126946162442259
Ti 11.329498330004666 6.575383474880999 12.237277500254393
Ti 15.873905148577695 11.812997039606946 13.20318909346743
Ti 9.418662252262047 8.147575964372326 13.341488596327935
Ti 12.890818865188029 14.537079846259005 15.049714589258636
Ti 11.125541801406015 10.116796132854835 13.796410197103038
Ti 9.993295231159028 15.014723641237882 14.018174143719143
Ti 11.95262358799365 6.800580708705402 9.884993971701808
Ti 12.107021562768145 8.982726345047098 11.239435581931712
Ti 9.624167377474834 8.002345360564332 10.685322297461662
Ti 12.838734512129758 12.185934841011749 11.788753241113032
Ti 15.276853034820917 9.761499504278813 10.883619660000836
Ti 14.37920560570989 13.889289066000128 13.05921146504026
Ti 8.754111038016656 10.751425523618305 12.637570496137974
Ti 8.660823687020297 12.743353161783626 14.63373881182602
Ti 7.263306435110529 9.29715377810177 11.249811913452543
Ti 7.501715977745456 14.903149026803854 13.379556232945788
Ti 13.846766786636222 8.378915416234582 9.113822625573755
Ti 15.331177972249401 12.3520097172058 10.349974566976353
Ti 9.32913882530807 13.354642142155264 11.966364491277337
Ti 10.163716548054273 10.85744296984911 10.512291009679664
Ti 15.512035553649175 10.464603211179634 8.374488048772156
Ti 13.160638957672667 10.94867050482652 9.522940225009656
Ti 6.80431013468282 12.460901190360081 12.708688480042893
Ti 11.884342952811553 14.771137969109503 12.202302890590666
Ti 11.13838277770296 9.370486142050908 8.572197713137358
Ti 13.79561178973047 14.201968141917046 10.03802230138925
Ti 7.474664986831378 11.826759672605494 10.108511204465604
Ti 9.207494318161604 15.998831229758977 11.536965226546533
Ti 11.405303163246632 13.119810694155378 9.437628325978777
Ti 8.386970716035053 9.505644002886312 8.960815266714674
Ti 13.375330070385251 10.097603470639587 7.006775397203891
Ti 7.007004611308778 14.514049165981959 10.96829105341495
Ti 14.27471975427068 12.572122751189827 7.6444138708647085
Ti 8.835768982557003 14.203499436805071 9.366868779072487
Ti 9.27227669536791 11.683622720019603 8.054192570467182
Ti 11.736921068118518 11.985147825600164 6.991586922854517
Ti 11.143483640894422 15.752878089889583 9.627878391781026
Ti 8.995025963098891 16.74019104875223 8.534833443603931
Ti 10.132741305725048 14.638147223900482 7.323300256280415
Ti 12.606664213896094 14.635587649587238 7.581412970354659
Ti 11.154289888894585 17.038920284619355 7.396511554370155
