52
Energy = -348.14835775 eV
Ti 10.20023739056814 10.814028948061074 15.54786117520179
Ti 11.081112178039234 7.962636048988946 9.475971620704609
Ti 12.461786020815548 10.434203000356575 10.659054696832898
Ti 11.809454322562406 12.603299073079096 15.679265237465952
Ti 14.156535419114162 6.415270119900482 12.713768737095737
Ti 12.895627866092951 10.014520406549927 15.338283384798324
Ti 14.284784766977324 12.169547020744574 8.863037813455527
Ti 7.536766656818335 8.152026022246032 12.066811684987519
Ti 9.059927935535095 13.603196931547586 9.232166752291862
Ti 9.514227320719426 12.962022680756656 14.13726103105645
Ti 6.933692436410103 15.261012854914387 9.048919843511687
Ti 15.014281124258074 9.902390190156272 9.717934778782524
Ti 10.868584758234798 8.407594663232539 15.028122949316465
Ti 6.576687078372855 13.048480959591906 10.23703111352045
Ti 8.464146277672397 14.994870599704369 6.926576212940277
Ti 8.577414509878027 8.494028046391445 9.740574148520489
Ti 14.135335880422634 12.352457995037241 14.804733941435419
Ti 12.220590315966025 12.568046273021805 7.1505325885239
Ti 8.484419456658763 10.41974791389127 13.567398804676708
Ti 10.143840765104995 8.967165074059995 12.036461769647326
Ti 7.46180290951461 12.676409190649283 12.565883458280181
Ti 6.976375708079364 13.067004560204737 7.560593874933493
Ti 12.813200520485864 14.29549586301882 13.843622030845811
Ti 9.573255994857536 11.633386362107089 11.258253169233893
Ti 13.137721798089594 7.268604005958652 15.074660316141852
Ti 10.31879359563371 10.478959222482095 8.763130712460182
Ti 16.045662523121198 11.900573190730679 11.125367461608672
Ti 15.592644415164406 8.540706328267891 11.819610227492557
Ti 11.60878826074783 11.38683848628438 13.254281016542532
Ti 11.55462509317724 12.783297715413344 9.618738868629565
Ti 12.88136171328484 9.879678523891995 8.120881773969053
Ti 15.092853585047296 8.592924287245838 14.231211403242712
Ti 13.341985553330401 14.61887778124474 8.907306874086714
Ti 8.353403469231123 14.988908640867718 11.39376484804722
Ti 7.867164147444123 11.071184121430958 8.57417044226219
Ti 9.574163206857303 12.533210180140772 6.816812315574815
Ti 12.028130910995252 6.276434276873881 11.049431645405
Ti 10.919598067121974 14.920624282664289 7.5098176121058104
Ti 15.51858420988549 14.204530294102083 10.326680810123703
Ti 13.832517612909255 7.672355156147646 10.043944536346773
Ti 15.34654805168294 13.890951859196191 12.946787092763776
Ti 14.431266082631156 10.801949031658838 12.805654963815382
Ti 9.179291375505912 16.346330911015773 9.035743229212127
Ti 9.47640048782086 6.514927989075265 11.386516710845024
Ti 11.16683180741146 15.533054047478155 10.24349480776636
Ti 10.777657698798743 13.917492161791213 12.135403319754664
Ti 8.867121367212494 7.533064131157378 13.949044532712378
Ti 7.211235242801354 10.448307296438074 11.039792346210387
Ti 13.650250169659264 15.505726234291231 11.577447142263418
Ti 11.302334025724008 6.290464609983917 13.482051798185617
Ti 12.856582147171459 8.56125522033498 12.67738744453492
Ti 13.42957666058337 12.927110107822273 11.497925822038574
