54
Energy = -362.29329902 eV
Ti 14.973787108358025 10.35096151212362 12.401832577570572
Ti 13.336037692128464 11.813570267797122 10.876678248258864
Ti 13.840520853949895 12.16665251049324 16.665856623902602
Ti 7.242377134217816 12.710000641974226 10.381476559205097
Ti 14.992121637655178 13.676541211967123 14.803426466031647
Ti 15.299642761738834 10.660264566297034 15.30832365323072
Ti 12.172716389143812 13.774883751473064 12.469558780359476
Ti 12.511014931730944 9.931750014651344 15.439798738737563
Ti 10.47347907552666 15.332444865201513 13.783678026080665
Ti 16.951105063186773 12.417070888681316 11.039088903234545
Ti 8.131047487436604 10.737407661037977 14.823390874644966
Ti 9.273415881496511 8.637698873808015 13.154038533725497
Ti 9.077270816728674 13.74699471244766 12.055298007638067
Ti 12.247885757690485 13.120444940702766 8.838241286797485
Ti 16.372197131785388 14.953526965057254 10.68750655271932
Ti 8.974004933794367 10.679125783339979 9.033787789911974
Ti 12.105715256589612 9.960914687247833 9.286742367949206
Ti 9.436269850311753 13.231550613356422 8.765087990717653
Ti 13.262763594726653 11.83703086004639 13.958207514370454
Ti 15.135936780808173 13.189246051197426 9.202698535102972
Ti 10.964236806678771 11.271981656862991 7.210848506915822
Ti 10.69844673917283 11.912166414523174 10.76067290872394
Ti 8.768151105642744 13.344861513625016 15.195636053501588
Ti 6.927324765919471 12.723946679816702 13.215704992630744
Ti 13.88571828787078 8.341060183302625 10.79155418939687
Ti 14.862581190006882 13.429247694873098 12.221839131531516
Ti 16.832016631654174 11.783789409389628 13.623852896923243
Ti 13.072959404352456 15.493706458381077 14.445978348684184
Ti 8.442667471087747 10.768146171237968 11.85055198504351
Ti 14.95609113835168 16.056651345171883 12.57738460200634
Ti 7.70070219015108 15.23579441581527 13.874436427069254
Ti 13.736650151906957 15.240159385488463 10.222499298670643
Ti 17.152069614849548 14.2508971119269 13.148859501047111
Ti 11.695601213200971 13.448788325788405 15.399715721702506
Ti 8.229950420406276 15.155932544821535 9.776219781258803
Ti 13.71804531941363 11.19795049216865 7.489250875106164
Ti 10.323861357644034 11.462654663692422 16.39249471957194
Ti 12.366091239183115 16.468382098399193 12.147039370699968
Ti 13.782917944841795 8.254167748731492 13.494817163840269
Ti 9.978933451296818 8.800740199235785 10.51446623214109
Ti 15.273743439226875 10.477018545232598 9.600733398865602
Ti 10.883441512833352 14.97910914658756 10.434290641630897
Ti 8.885918881458542 16.417565033929066 11.888255023493143
Ti 10.354587644324104 11.63389149490755 13.771193009245124
Ti 11.845614950657758 9.824817259328336 12.508784184777438
Ti 14.260188136241004 8.637699411142114 8.163076610969345
Ti 10.027585469658613 9.186157027425049 15.511881214992243
Ti 10.118220199508524 8.757185793733711 7.8082840079062725
Ti 12.083083589730814 7.380867567923181 8.871602414240034
Ti 11.52100470986666 7.682419160315881 14.315464330149002
Ti 11.731902193554475 7.270792830274686 11.871116263672429
Ti 12.334057739525356 9.06487191375825 6.703018201650257
Ti 6.619964052046593 14.934732465535536 11.666659540904625
Ti 16.777456659732668 12.779048284827521 16.104356616450875
