54
Energy = -361.80737667 eV
Ti 15.969835420577414 15.701370732867218 12.425099394165073
Ti 14.133654707791878 15.433883053103283 15.006139625593326
Ti 15.39521134095743 13.534420421578297 13.726720966540121
Ti 13.835194806984356 17.204203108291704 13.33582929954479
Ti 15.189851100039558 11.63575418446092 15.55486037574344
Ti 16.74026294515796 11.126683826953139 13.228646861239623
Ti 13.713566626509142 13.403752934124055 17.207934818519092
Ti 13.044693592170612 10.883583100702172 16.788606853346344
Ti 14.916349682895682 14.747146645441264 9.640234381889645
Ti 13.970796788167736 9.341763792880137 14.732879333745988
Ti 15.512747136723839 8.779646592317183 12.745399249047383
Ti 14.5792987443425 17.08403560893172 10.945250671764981
Ti 11.625223053928215 15.820162615288595 13.96209210833993
Ti 16.13846173080081 12.937484931177826 11.17673459268493
Ti 13.496149947777056 14.75066458162182 12.074667656845712
Ti 11.734705690238004 14.903695752049058 16.384130695574218
Ti 12.878274212034007 13.118171695222003 14.802198493737182
Ti 14.213305647908193 11.40982165418361 12.862833049141162
Ti 13.381860408113175 6.983339698524463 13.619216407145474
Ti 11.522192787039534 8.088305701689492 15.228552710738791
Ti 12.02258670390338 17.17290054855996 11.471510782906275
Ti 15.83801794531182 10.504404078636998 10.793082851365424
Ti 12.917864631008086 16.488323369921 8.976193688399938
Ti 11.1753237721895 12.434138752443966 16.843620581964014
Ti 15.013546931457752 12.011528242298594 8.569664837511441
Ti 11.591203056031103 10.918489918652291 14.472749525646229
Ti 13.52317039454219 12.326280258683143 10.38663462502858
Ti 11.534451968285325 12.644477431408635 12.392526630012515
Ti 9.275586201615159 9.84568771535253 15.141128447550392
Ti 10.095205613545872 13.54489551583727 14.548154513667493
Ti 9.016237141741948 11.361430041123475 12.883516785020236
Ti 13.0560723445077 9.152741368113892 12.203087156588518
Ti 10.145053883753848 15.019158034843475 11.959038934854576
Ti 13.625137300112494 9.626907987889801 9.477400439936611
Ti 11.617941525358699 14.33610522053134 9.904492501182208
Ti 10.424991733468314 8.95895686367762 12.926946341206087
Ti 10.259650503280856 16.69836934018586 9.771224629340582
Ti 11.39733223885404 10.429495485882935 10.587998177265055
Ti 9.056836801217196 7.254938355286537 14.424065207811843
Ti 11.043863709663128 6.3191841669387685 13.161927480971185
Ti 7.726550204505317 9.040823271698185 13.02979077459035
Ti 13.126381756917985 14.012061677699826 7.675718317719876
Ti 12.198656523997991 11.322071729380838 8.044396205424192
Ti 8.02401528582175 13.6496002086358 12.100373883998335
Ti 7.322178087670345 11.560750814859432 10.761159218304146
Ti 9.738643466583738 12.382902500404327 10.401810660892084
Ti 11.524991832908492 7.678929316565287 10.705735631370615
Ti 8.893217181788454 14.527244739710108 9.353658270574725
Ti 10.819575626820454 8.814658949949433 8.505407011181664
Ti 8.915412430777518 9.399631912921038 10.52671306864826
Ti 9.013623893480498 7.050584139070572 11.714806663668007
Ti 10.852734765213134 15.521557624166048 7.627599210873808
Ti 10.492325725648355 13.103396449919614 7.6050155012342096
Ti 9.448097756496894 10.719241097554036 8.309422878475617
