53
Energy = -356.1843405 eV
Ti 14.377185739572138 10.32105230442031 7.475007948081741
Ti 10.009788290122149 13.43075492682774 7.046278477332851
Ti 9.990275026788131 10.475667528807751 7.751882141417085
Ti 14.769225440659584 12.784911615156098 8.626854594174423
Ti 12.303252821616507 11.905404082489097 7.70049401728416
Ti 7.838608522837437 12.090013100230836 7.833070268597496
Ti 12.57962766290441 8.795042804931013 8.169373495561743
Ti 16.611499893569672 10.579172405457363 8.561324271690577
Ti 12.649663691340631 14.672010911849233 7.90356967956764
Ti 8.096616478713736 14.479441254679516 8.695793276512747
Ti 10.25093368233023 15.326775071077824 9.438137062574727
Ti 15.103698495236852 8.37970937746112 9.272738602600999
Ti 10.256067806781545 8.805984772780837 9.814209431575668
Ti 16.818984311126112 12.273026188124902 10.553190680450573
Ti 14.664716908498079 15.03965559750909 9.79483397602158
Ti 14.699745671088287 10.719710678756247 10.312411367793695
Ti 10.047126153344196 12.481011673438395 9.282684499686102
Ti 7.86002020492131 10.258490572555173 9.701979366812676
Ti 12.206445156538116 10.64180301693526 10.074874203182063
Ti 12.478661347110389 16.338261099901853 9.957825374175853
Ti 12.466811182995723 13.52268480111457 10.199831769098036
Ti 14.61529110399642 8.757652776612172 12.22633429789209
Ti 6.906451200361721 12.798632855479552 10.288938330301633
Ti 16.926535842124153 9.606246781541584 10.991745388159847
Ti 8.012253407044716 15.527086686391403 11.330796697793684
Ti 12.759068762375447 7.917026164826553 10.568019430944776
Ti 9.29245967166543 13.490145251713951 11.451614415045805
Ti 10.883870005512824 16.022584054962444 12.0808817721626
Ti 13.555946117811585 15.55904855869585 12.175809079756094
Ti 11.17329181159596 8.784913081093439 12.491616678187668
Ti 7.169882968664713 13.58118121192616 12.994303463481362
Ti 7.2044912198846776 11.089915993497026 12.236158779715423
Ti 14.573670158650687 13.10335306038971 11.69009243509708
Ti 8.531032133197856 8.74181949636309 11.930758324488412
Ti 9.957466377137447 10.87212565614706 11.470165405107746
Ti 13.05553305257735 10.91009717778104 12.850623195336194
Ti 15.7932211305408 11.144337514775286 12.876593910434092
Ti 11.643244533392458 13.326608180824492 12.771377672993228
Ti 9.491113064783978 14.668705514540257 13.884118099745937
Ti 12.166840604349787 15.335390298940938 14.338354539619242
Ti 12.967213154102748 7.796225516729386 14.211372033869836
Ti 9.35218313095331 11.943604821397349 13.724169705173722
Ti 10.688780649759437 7.626662428320828 14.935760618119678
Ti 13.899963647184906 13.04671819789669 14.299664967669651
Ti 8.711581862293595 9.441020564229404 14.466356068873987
Ti 11.402871927784103 10.3076883957478 14.917133589900061
Ti 14.505158717814004 9.608624132929524 14.851354576105008
Ti 11.459751416219694 13.016123636728569 15.519922627398078
Ti 12.59339047496957 8.821194410544793 16.708174834998715
Ti 9.129933373218645 11.515140643107678 16.144395569413145
Ti 9.892915206190859 9.081756541946472 16.827454315557116
Ti 13.551171021318032 11.417596906699808 16.369181152801538
Ti 11.343176272769023 11.108898211055063 17.499102028005797
