52
Energy = -349.45989856 eV
Ti 9.42354719589507 11.044384000323673 15.997084497084272
Ti 12.566672849808814 11.366535619328182 16.01451883059271
Ti 10.792432208446467 13.388991185061332 16.522390951325335
Ti 7.175182146528767 11.38038770018032 14.829963512643015
Ti 13.82558633079817 9.002177923018099 15.91320556377682
Ti 11.221377218186403 9.211009360981084 14.711466825485337
Ti 8.544591611288915 13.640062127933614 15.229746993243367
Ti 8.663830956551001 9.576266378262613 13.647667467245258
Ti 12.90171909467 13.98918933234541 15.149450542719945
Ti 15.08481104093678 11.298068993383113 15.235663402513103
Ti 10.832557970362611 12.106872150608954 14.206755721374568
Ti 6.478350936085036 13.419603318248688 13.532458165398662
Ti 6.41065549634365 10.951942573939753 12.319455815556651
Ti 13.427497307537156 7.4020728301264205 14.012962648744306
Ti 10.720474798890457 15.24674213074462 14.570127101819484
Ti 13.296337285537872 10.014492901994258 13.616979939951726
Ti 15.720131691682576 8.826496854082526 13.957755561464326
Ti 11.959136814330424 8.058622042253312 11.915624698609436
Ti 8.597270618396129 12.118120187703838 12.591790841912813
Ti 10.940131787323118 10.420512677074985 12.123551247734152
Ti 8.63457104100361 14.932275585287261 12.802857447998948
Ti 8.703486848838994 9.721103102631318 10.947227764307184
Ti 15.7135064349824 14.084983805536226 13.506311140015404
Ti 13.51027086882489 12.560025891331668 13.293437083730975
Ti 6.843744919888958 13.53909694349496 11.001958333453956
Ti 14.756578519850562 7.5330800085762775 11.716992960073316
Ti 15.953927274954435 11.483111629061156 12.826857056079993
Ti 16.836930867628737 9.475345702833268 11.513195650445377
Ti 14.204764083892085 10.031782855137662 11.137688605795294
Ti 7.198104865197097 11.265093216833067 9.768075256104623
Ti 13.258055189406672 8.160341868284931 9.521147850356133
Ti 11.166224359524914 13.8340823746189 12.304497463056842
Ti 11.26300968498102 9.919495499642025 9.479114522341645
Ti 9.81946563205373 12.286129271859343 10.168384693927983
Ti 15.731138026658433 8.761463424856284 9.428676606772278
Ti 17.306367546176546 13.301494683642607 11.4379643671536
Ti 7.839853879449323 13.347536059859097 8.568099745480378
Ti 13.444541063463936 15.332317119163466 12.503088563057476
Ti 12.544009335610179 12.019877601470366 10.515224281229541
Ti 14.69018209350734 13.479779389277102 10.950315119911311
Ti 9.189299695075619 15.026821532992484 10.244784456950102
Ti 16.07106867914747 11.493961575383473 9.75525886272404
Ti 10.994587066911347 16.341137345985196 11.89118692366198
Ti 16.09236373407462 15.660004663225576 11.418146076418214
Ti 13.895738644756236 10.640858986924291 8.464873965613892
Ti 9.194365981308717 11.263945987911237 7.879569724276709
Ti 11.96705753206265 14.591874518844431 9.957116667662486
Ti 10.239284565129948 13.870340899531051 7.995850533053835
Ti 16.384914718333725 14.2884917317531 9.168753900934622
Ti 11.770547183569255 11.914834997084618 7.811129961733654
Ti 14.254334668538117 15.800752552884488 9.693514184931102
Ti 13.935613344667368 13.566212595556797 8.220283610620163
