54
Energy = -363.31343241 eV
Ti 17.05187949212328 12.653203211013265 15.052223679984497
Ti 17.70844358069869 13.1737435901559 12.69091666240465
Ti 16.718374089647796 10.64323019981034 13.17461640941922
Ti 16.23970843086917 14.97972071344376 14.127393580497797
Ti 15.340275947322551 10.757241389563232 15.630963364888146
Ti 14.643174256156854 13.391505402933143 16.038827162559112
Ti 16.452476218278566 9.052392465320647 10.97119521103246
Ti 15.243172020470698 8.62090617600373 13.537462729503078
Ti 16.541582473764095 11.874053074661843 10.74308329616022
Ti 15.133228488936592 12.88831275199765 13.207850258721438
Ti 16.051472448540157 14.531923180316424 11.255477669628194
Ti 13.991764892189643 15.735779554305841 15.206459386904331
Ti 13.34979503875697 8.913363359193257 15.553036276434804
Ti 14.259873404860166 10.440223524314638 11.40752565400986
Ti 13.46955087262151 10.737406671633735 13.81628598306001
Ti 12.644685889364018 11.570075495062794 16.118140534466452
Ti 14.089320645930288 15.786150930763878 12.480342430681462
Ti 15.324886267308209 10.042828923682256 8.96368389493585
Ti 12.578122337118693 13.770678588359278 13.908906499528824
Ti 14.91747480523381 12.738154224207047 9.047110260938284
Ti 12.8972817720161 8.141708050412213 13.05881790020474
Ti 11.872515864323574 14.470127596721584 16.171187405447018
Ti 13.546215142980849 13.290408638375798 11.099897524789142
Ti 13.768487020581903 8.238196671951892 10.257959574790604
Ti 11.873159925867038 16.314135109754808 14.04851408884975
Ti 11.553506978697026 11.768583639810359 12.35930095260277
Ti 11.041680887672403 9.540824137526595 14.384848018622904
Ti 11.480631498291459 9.25041301962425 11.317163861583147
Ti 11.636732521806545 15.127190079601748 11.589116786685887
Ti 12.71976943744374 10.500960298574883 9.11575992504882
Ti 9.898805225065757 14.617081455393455 14.073667757835944
Ti 8.634327353405089 8.138129544972857 13.086979216033908
Ti 10.38897547971955 12.121611686912713 14.83246198968282
Ti 9.13987302445636 10.525882860401083 12.52284220181771
Ti 12.945313919859228 12.556756754929806 7.508849274430141
Ti 8.524750578870412 9.956536308473671 15.059301193486235
Ti 12.864473460393995 14.932822774724062 9.03442696055154
Ti 10.843600021258498 8.839250548903417 8.616824951193967
Ti 11.308745289966199 12.883386452934657 9.65894151600075
Ti 9.555329832741881 10.775002334478092 10.046533858441492
Ti 9.230620929078057 8.026055153879994 10.33847512820442
Ti 9.43544291290153 13.393405260014811 11.72352229187359
Ti 9.259163268257257 16.074894297690683 11.82887625768699
Ti 10.473972754484524 11.309047379540832 7.479336006443014
Ti 7.318152115456414 14.56673204911054 12.680540708632376
Ti 6.701465998242629 10.06067946608052 13.28706067225021
Ti 7.1718980139954445 9.219744556114426 11.010972813371184
Ti 7.88652567471848 12.42379252572834 14.017945158317294
Ti 10.85542897151458 14.000990500505784 7.356667433699505
Ti 9.944148914480001 15.36977765528766 9.281255371723168
Ti 7.170263900578402 12.075730099007904 11.234092543719818
Ti 8.214933655275253 9.708820116058835 8.415490524331325
Ti 7.616267970310882 14.699470609111444 10.197241656505375
Ti 8.671400643280592 12.97408149883305 8.566750087567662
