5
Energy = -24.77950033 eV
Ti 7.237125953015739 10.34590894652517 8.982828493334978
Ti 9.272556997625273 6.836726298685575 6.5990575330154035
Ti 7.829861360769861 8.351195709075443 9.761520679367354
Ti 8.20004427613185 8.946780966486354 7.318898609340177
Ti 8.765069174812936 6.824045841583 8.642352447297514
