5
Energy = -26.57073984 eV
Ti 8.896157959035236 9.556696012637486 7.6317592690715905
Ti 7.303243299835122 7.813749942778307 8.502776725958576
Ti 9.400958927986707 8.307200025697345 9.759208749738658
Ti 7.591907101250134 10.051042210978045 9.62172809916032
Ti 9.567733129445399 7.262497578670488 7.418885917209323
