52
Energy = -349.4341763 eV
Ti 13.523439511964762 11.654947375782957 16.612570556896678
Ti 12.545176234057722 12.549677431233949 7.964056504149133
Ti 7.884533533100925 11.706285369215685 14.017126404354194
Ti 7.350701520750275 14.888367734051043 10.966671319598426
Ti 16.527124959087853 12.737106272966992 13.458264230381216
Ti 9.995196901874802 9.796788469464408 13.165624948767391
Ti 10.782908956353408 10.391032465417709 7.957856521759542
Ti 6.671509735203365 9.772175481380561 9.597632417630068
Ti 6.634187082409409 12.453223651673111 9.871021131127225
Ti 13.738022830939219 7.123474411359867 13.452065390581978
Ti 11.379259011629165 11.960318152662976 12.170075409591377
Ti 13.960561292803343 13.77625501823948 12.539845309352023
Ti 13.339487517109681 15.670029888356662 14.44198123063729
Ti 8.84894115303647 8.806064510760084 8.790565858392053
Ti 16.60856216834831 13.705258587560492 11.305564287579035
Ti 10.992099407883291 14.811647853372634 8.24455715392159
Ti 15.12172879285449 12.847707855981751 9.45532700350647
Ti 12.238870743041224 13.71668006269387 15.504258467666189
Ti 10.090551721892302 12.772271013249785 6.882839633436336
Ti 11.585381553849835 8.112527136543964 14.80277445963129
Ti 15.608682697229343 9.302807569359643 13.33796430962629
Ti 13.127988422166489 16.21560378010549 11.940714012680665
Ti 11.234706310323174 14.581479285740055 13.051115961643264
Ti 12.367248934094482 14.016808908023014 10.426867636964053
Ti 14.874679081611555 15.345230225518366 10.450873959770433
Ti 8.363392802020964 14.144782232974647 8.59184479196355
Ti 11.365059326439573 10.488643142041958 15.544455377596535
Ti 8.125332696238765 11.326673276638095 7.897210668205662
Ti 15.644121480303754 15.532186461441436 13.1443949472823
Ti 15.645716646091435 11.125105765205264 15.225560407342735
Ti 10.312553081967028 12.558058846799144 9.444199681874299
Ti 8.216913073857786 14.493153693670868 13.722700504171328
Ti 9.97777353928046 15.404899963159254 10.56834173223938
Ti 11.068497426310495 7.21220481107081 12.648385789570952
Ti 12.635712762961663 11.142881189804084 10.173458938823593
Ti 6.50493622302144 10.54012488315389 12.011656394164623
Ti 10.81871649139527 8.995883650680375 10.595474206228182
Ti 13.882107727485668 9.15657368636513 15.392290552824036
Ti 14.994434728827073 8.61656938571143 10.901046721303244
Ti 12.790968740554485 9.292211373081736 12.54117744582928
Ti 8.79743587221794 10.802961436772621 10.684230162954831
Ti 14.793613595961117 11.320516932563375 11.743333374452655
Ti 9.062569375296253 13.132496873851114 11.90155496820524
Ti 16.868418473715213 10.998471594529237 10.767964336932806
Ti 12.815471844006554 6.990481404648023 10.949564103470964
Ti 14.891586560756872 10.477561365211091 8.870294605690349
Ti 8.245460446980076 8.42438016931246 11.371665638622906
Ti 10.117214693819431 12.581521436292732 14.420575657183736
Ti 6.387006621417579 13.067627665860245 12.448570750461228
Ti 14.929881195078496 13.735559693837601 15.352837886415813
Ti 13.27622041196591 11.59900008835054 14.073484129472904
Ti 13.030332880098857 8.718699257942513 9.198510898756377
