53
Energy = -355.3079023 eV
Ti 14.953011357597795 9.300969429290811 10.3663029785384
Ti 13.802427575479545 10.893475447376042 8.45265752252976
Ti 11.96609966124152 11.66304947249087 6.40411513391567
Ti 16.511044045009225 9.19617070164999 12.477126200048845
Ti 16.032151422691264 11.556996795035495 10.903249079675273
Ti 10.863770726623429 10.114478836797394 8.242990276905006
Ti 13.833369004312974 13.339244253598197 7.110527561256831
Ti 13.924476100891214 8.052506808362532 12.300627305033975
Ti 12.409768346794204 8.728779062317301 10.086630417797593
Ti 16.36789838896994 14.314820417745144 11.700962778751173
Ti 12.566438203011618 8.59964272457306 14.746970665195942
Ti 15.204362344580284 8.106735992529336 14.535464074858538
Ti 14.413017678428753 13.396811384190043 9.730470851048256
Ti 9.840483347234173 7.959690529256926 9.451184731417628
Ti 12.93565785567634 11.234305936883857 10.947109718661695
Ti 10.854717083748447 7.567291004100883 11.931332116300252
Ti 16.89654358564026 11.90415611749287 13.138327915261288
Ti 16.705094008899696 10.177164220211253 14.999351963659027
Ti 9.523045136825765 12.4098072298376 7.458509998060974
Ti 11.382818553612456 14.182427119856763 6.629827274709575
Ti 11.873776822197508 12.64517467532765 8.787048159959799
Ti 14.505456085047788 10.586011535643824 13.512045684110126
Ti 14.388476625660997 13.244845775702453 12.477530572149824
Ti 10.1983437565453 10.074951720444199 11.042336180428716
Ti 13.794352329888461 15.576340549894189 11.163724874472932
Ti 12.761938178619587 15.369701501946253 8.542904288624724
Ti 15.145757905478968 12.530434710107256 15.228382160469527
Ti 8.363053392943566 10.095848874626755 8.948653365744978
Ti 11.81061532784834 10.0139449993076 13.029561917212208
Ti 14.334497831450017 15.13986384526606 14.524699557277234
Ti 8.08862116596613 8.513818362537902 11.328242170442401
Ti 9.967403906688638 14.879566882733478 8.738542697104723
Ti 11.714967466597805 13.886576385295163 11.20482645108145
Ti 11.29144111473276 16.39586254820944 10.454402163519587
Ti 9.484918773870294 12.475707942318591 10.273544342157525
Ti 14.62239050218253 9.96268494121488 16.298009339320338
Ti 9.649849892603235 8.401462002512108 13.705483035891843
Ti 12.545413715242956 13.309214578606223 14.259847929353734
Ti 7.576531487701959 13.59046588466866 9.556458510528147
Ti 10.335965961807466 12.424777119668413 13.129900145741813
Ti 12.606529330364284 11.191333536448688 15.675661245208522
Ti 13.306211310342428 13.695600329335093 16.72240078550943
Ti 7.107483130586997 11.069094066758355 10.854111741215224
Ti 9.226688218665249 15.136066508658795 11.37341978972386
Ti 11.9892275561018 15.796209461568873 13.023890720975157
Ti 9.763864596108002 14.8716138658368 14.226894780083738
Ti 8.434290817300294 10.615450122140988 13.164067663440063
Ti 11.889592045718953 15.53801943989386 15.608583451882229
Ti 10.082506389088818 10.636690838601952 15.323611068742553
Ti 7.750945989482057 13.191877749931441 12.395909924780751
Ti 10.643909016432685 13.26166144695809 16.208976366880528
Ti 8.358979601986897 12.648751584268588 14.89407367620593
Ti 6.056841466126316 11.188386180595703 13.367794095983708
