50
Energy = -335.54397654 eV
Ti 11.30471156139137 8.522720719830215 8.972887750355644
Ti 9.705587695247663 9.820957100699687 7.2712204604012785
Ti 12.659111630432873 10.374568282132557 6.892696577892489
Ti 10.155321374375657 7.620301331449102 11.398293990665593
Ti 7.177602095646304 10.178689530524522 8.287201346154161
Ti 12.74711546747704 7.458962671499553 11.28682598553009
Ti 8.72458485276069 8.703913006329325 9.623714728869226
Ti 8.180987899953148 11.952945434875023 6.87342228258501
Ti 13.908314675419629 9.429817431502233 9.652182861913143
Ti 15.38757527569 7.967751359541132 11.514357659900078
Ti 10.624677633978811 12.492244681972025 6.711311288859685
Ti 12.083352129575784 11.405470769093977 8.981455625313085
Ti 11.272161008596319 10.070985213108651 11.181917970847774
Ti 14.680503313429952 11.688131655075003 8.359278203985285
Ti 9.214823524144848 11.36374821288551 9.459152953352122
Ti 11.443965480115052 8.471267726286179 13.544075915466916
Ti 6.888647700478569 12.702985904625423 8.969348581279696
Ti 13.030396629716712 13.06382312726757 7.031227094443342
Ti 14.008734582065488 7.441391572637976 13.639962965532623
Ti 8.905933402840638 9.834245244306755 12.298857202501983
Ti 16.03658915520415 10.327894568276374 11.17369163614012
Ti 6.992993370288668 10.764452389638278 10.868571196416077
Ti 13.66451658303705 9.778610050313299 12.366889202313654
Ti 8.70910892693498 14.397820505679453 7.7276809162170155
Ti 15.884195246275445 9.45048336705385 13.788003764133144
Ti 14.279453527814685 12.022784976804317 10.903303012038617
Ti 13.580310044336152 14.046216660926842 9.360470857172672
Ti 10.498920843493785 13.629818469853559 9.544773611635122
Ti 13.664441508241858 9.22712008992963 15.428397080608162
Ti 11.448229265605816 15.094330926550276 7.748167186757712
Ti 8.87308730792193 12.560355564041105 11.995677425093822
Ti 10.780611886359882 11.137388707340646 14.0679221595256
Ti 7.8908912172026415 14.540672879739578 10.35853591812021
Ti 9.097875966352264 9.299387741952831 14.96528591222281
Ti 8.062900002440838 11.512996743304509 14.286743392390965
Ti 11.716164165737071 12.878242506936068 11.70122473865823
Ti 15.239880697611529 11.167320174732456 15.735724326920684
Ti 9.672096710804308 16.137086386807113 9.514631853241173
Ti 11.257481974231798 9.312636467297205 16.153256681370888
Ti 15.854506974590276 12.156057263384294 13.327425149947853
Ti 13.231056452384317 11.867997802994148 14.001006664534547
Ti 12.020678843543509 15.541858639835008 10.646467606499533
Ti 14.115907127884551 13.986726217361811 12.501156844059526
Ti 9.897068659832703 15.03980731814893 11.908698705174661
Ti 9.590335003983961 13.569236594738003 14.505412884963084
Ti 12.777483761754215 11.499122879947683 16.7016309437432
Ti 9.787899901541964 11.555498571550455 16.4236156341999
Ti 12.072476727493118 14.562533212963139 13.7770606221618
Ti 14.32064362845294 13.600296863668126 15.321591182796872
Ti 11.636077957394416 13.52831585467712 16.005582817180823
