54
Energy = -363.60784966 eV
Ti 14.183691524528339 9.078950329936509 13.867766527801695
Ti 15.185781945389051 12.309703068665447 12.173055960005868
Ti 12.784531154165988 9.310743034260891 16.137019081334095
Ti 16.18532545919981 12.161514727839718 9.26907927268718
Ti 13.913140226892066 11.298336503224675 14.86451308888358
Ti 15.090025714277994 9.73151547887587 10.891351635737935
Ti 15.68727204471695 14.411231839137466 10.53422355225941
Ti 14.566707140730108 14.962611408796342 12.800461452413355
Ti 12.001706988566056 7.458836518117458 14.499959562310801
Ti 14.405289568810336 7.300693935173598 9.680575253923305
Ti 13.153976087205708 7.886736591075974 11.969489874187326
Ti 15.03930954360987 9.520487411067212 8.218810275988936
Ti 11.372645245309927 11.671721885341299 15.98425144848567
Ti 13.820658253758449 11.758154602485304 9.480276722553075
Ti 11.815148949014043 14.445761899073007 15.562584460139098
Ti 10.147115384752986 8.945143499059263 15.939092366583708
Ti 14.429430232883657 14.206439680440452 8.271425428215556
Ti 12.92344650258272 10.903940737615331 11.96992929934671
Ti 11.742283862724333 15.42263516872926 12.881196832934375
Ti 11.591072972518774 9.936391585348662 13.880260306255039
Ti 14.86172065181666 11.891124515527379 6.983309623661449
Ti 13.575202564337344 16.145754036767016 10.359525578598689
Ti 12.92779884579754 13.087439066286745 13.623923438909923
Ti 13.120389809391403 13.850712074118038 10.971295596500257
Ti 12.73820862810276 9.278006969855397 9.723466178754427
Ti 11.732254755098696 6.843760330128792 9.735105250253214
Ti 12.853439531804044 7.776662931355652 7.603985437553552
Ti 10.536198089363115 9.281879657985966 8.457336471554306
Ti 12.87264905574051 10.276042326329655 6.770369611100113
Ti 9.492007672617039 13.626508349101544 16.331841310921252
Ti 9.454485856628935 7.544839361447306 13.864436777158138
Ti 10.25876998866402 13.031210158713227 13.819891151933165
Ti 10.566224315917005 8.190759365511672 11.654243277228263
Ti 10.739091153998443 13.27460008059536 11.194683342041902
Ti 9.581759498617544 15.517103326117333 14.673416688766126
Ti 9.052896033964057 10.452439342151422 13.139833352676401
Ti 7.66602456639478 8.96787177548488 14.911582009601204
Ti 12.465945550132236 12.942122322842769 6.473850441069271
Ti 11.324879054086214 12.000081834184114 8.679627303009491
Ti 10.095750801709599 10.691885416549518 10.803888510563459
Ti 10.823825585945805 15.966026449820186 10.461119286886337
Ti 8.500552458491308 11.336774497495153 15.700477619799678
Ti 11.746740183531493 14.763167668881344 8.46593620980235
Ti 7.406535734945505 8.514710978084914 12.345973626258917
Ti 8.46172994216035 8.747827711725156 9.896162018282801
Ti 7.691896057413661 13.510182608112606 14.328684104798047
Ti 10.41439346337618 11.054599362702488 6.385242599219038
Ti 9.011602229757623 14.982880103356287 12.195327802447299
Ti 8.073716848700602 12.695040806006645 11.667862580476593
Ti 9.201029068428225 14.165956100160415 9.321185695852474
Ti 6.618644343210055 10.950878573628488 13.56123846964795
Ti 9.876726830900157 13.438502175137954 6.971123476297969
Ti 8.7258183961849 11.423162305629699 8.689366477472554
Ti 7.060570742153237 10.625974624959028 10.927403389874359
