51
Energy = -342.98365173 eV
Ti 7.191568380204825 8.835854215187888 14.46718785285404
Ti 5.870494480318923 10.296326974110295 12.956004710687935
Ti 6.938227603591972 11.497425665039087 15.193968148385071
Ti 7.794577566755421 8.616071930820535 11.926982154441387
Ti 8.974091688289347 9.748096916468214 15.82631217859246
Ti 7.045325677004464 10.970481200964786 10.790212706365143
Ti 9.701467196803097 8.135222486710074 13.822966317048008
Ti 6.6596257995778645 12.813756142358322 12.585286070446701
Ti 9.380943542948152 10.046313905629367 10.424781733876047
Ti 8.449936144559674 10.982919627647584 13.245141733063576
Ti 11.146232741571215 8.145487245097836 11.163956597575961
Ti 9.359899337824272 15.394624619998417 9.709286082013847
Ti 8.569796838428106 13.679844490144712 14.044284398147072
Ti 9.0962386661727 12.807323350446664 11.21734905765574
Ti 9.750989044498558 12.0359408465578 15.69624976450319
Ti 11.640196737459489 9.932340441005602 15.326232223766468
Ti 11.471637841168011 11.58221968548935 10.574000419461111
Ti 10.915050819109346 10.285169946885565 12.862269430490947
Ti 9.661830665568539 11.916861166827049 8.64361947879993
Ti 12.672381705596349 8.201437107467768 13.624103292605598
Ti 8.56682430635169 15.461658816253118 12.168028790383651
Ti 12.969889189995964 7.490551322334506 9.202308826095253
Ti 13.600379783727867 6.895084386927554 11.477912435165255
Ti 11.461696831305956 9.506742377357375 8.6324080518497
Ti 11.025709602873338 12.86052026829884 13.65208334364006
Ti 10.401715780227768 17.121163668050823 11.572708507817897
Ti 14.585147874938881 9.895429945070958 15.018846968956444
Ti 15.206556207637625 8.307690171321008 12.739760413076633
Ti 11.082356350461335 14.632428332554113 11.507227629475889
Ti 12.309805315553833 11.572939631844815 7.320103167020209
Ti 10.679590936172366 15.769827319275354 13.892039978190752
Ti 14.150410382027001 9.511370231924685 7.9362078757009
Ti 11.449826208701156 13.760970931797253 8.902261348640655
Ti 15.501870939627803 8.194261506520165 9.992540579826372
Ti 13.007183310372042 12.220343998929259 15.251260876143396
Ti 13.492993893135022 9.536340078993494 10.790265233115134
Ti 13.525444961277026 10.708484767418863 13.098665846438465
Ti 13.935934624419506 11.998563778183774 9.448830574355654
Ti 11.874257694428845 16.32156157619159 9.593460898465892
Ti 13.262473163227655 13.118972513661559 12.222307022494622
Ti 12.925240312216465 16.399746141013928 12.260979790351065
Ti 16.012384194386854 10.38953525463221 11.955360742351614
Ti 14.994254200766976 11.758446639969808 7.036118807885987
Ti 13.90377663816918 14.714325454693185 10.124634734830543
Ti 13.663282492665877 13.931585677783225 7.533707428990785
Ti 13.278272829458157 14.767703136640858 14.360531212222622
Ti 16.303634903733453 10.83062092099202 9.209350663850415
Ti 15.243123018556146 12.754392783638021 14.0798366256778
Ti 15.794614298074954 12.76786015567893 11.282643074973464
Ti 15.964149133578905 13.530924492833833 8.69296918577976
Ti 15.153948253324698 14.963495863203978 12.561705124297404
