52
Energy = -349.8569199 eV
Ti 15.783421823982597 11.038560971516107 9.537547601445802
Ti 14.047900668596562 9.850569545218995 7.638110352047422
Ti 14.648187665874165 8.639882962647794 10.118693180320403
Ti 14.545637600998248 12.604480683922807 8.009098327793241
Ti 12.306477045412572 11.712002638477873 6.679690205790166
Ti 15.5063844235481 13.310134404033695 13.116449633277965
Ti 14.963774822943602 10.714943280063668 12.185875708799355
Ti 12.88775872695676 7.66416527404556 8.610956989794602
Ti 14.802575466881766 7.850167702691088 12.657078661328518
Ti 14.476334970825691 13.235335077958553 10.711056115132182
Ti 15.043455522594796 11.794723137765315 14.878286690737744
Ti 13.194909921066156 11.119311465054684 9.778489102908773
Ti 11.29801174565618 9.159525096427812 7.155240254187372
Ti 12.49192773320722 6.8529878145623835 11.046834382767951
Ti 13.560978194795757 14.079311288673846 15.032407315717583
Ti 9.759318041669916 11.090419404596474 6.304159973175932
Ti 12.341965188863199 13.759837437480039 8.704752069407942
Ti 10.273141583669538 13.579398367366101 6.987968804964669
Ti 13.891566749032858 15.439676019273906 12.824758024804694
Ti 10.443497341182459 11.67262673682421 8.786759326835096
Ti 12.995733745750305 12.343870448420361 13.23012292919716
Ti 12.815051597484063 9.19022168707792 12.076709542754136
Ti 14.057656429681247 9.375978383174722 14.77922594609456
Ti 13.6887171900248 15.725786633726392 10.070752930350546
Ti 11.151692914190438 9.287128377981494 9.96484715312412
Ti 12.393007479119488 7.384790053841285 14.052123706437953
Ti 11.945635150263959 8.824353048777228 16.282752360657565
Ti 10.150575002763224 7.322591766528245 9.177523805598032
Ti 10.298236296757084 7.764040488762789 12.127137343823934
Ti 11.191610043942822 16.088255920138014 9.471929433064766
Ti 11.563785337211653 10.17705922938207 14.156381287780054
Ti 11.870108741720447 14.22164063656369 11.288348015220796
Ti 11.173744340345355 11.446383523415948 11.391085885269895
Ti 11.996251710736797 16.81428754030869 11.854073210744582
Ti 8.691687123910395 9.569931529625755 8.165700032549937
Ti 8.085511861362914 12.359670955728777 7.883602167883162
Ti 9.8738118817702 8.104111832459555 14.759615925300624
Ti 12.722652428086981 11.577296217351929 16.082566524505406
Ti 11.27330095815248 15.339090114853398 13.828615139719005
Ti 9.498022352280435 14.005219736760338 9.595677112091165
Ti 10.79627465622681 12.843518203509657 14.868976754229978
Ti 9.211203314774677 10.331064439406319 13.021048786847974
Ti 9.600032211104603 10.301708132204963 15.943204647331727
Ti 8.496531417539009 8.991931883449775 10.72646992583244
Ti 9.555047532518287 12.994115990306902 12.3757193683531
Ti 9.53500022745512 15.818644207652728 11.69700788077618
Ti 8.197887858209011 11.549234975855454 10.40849507624042
Ti 7.3925329940942754 9.629652324603429 14.363980552164639
Ti 7.432597683257989 14.113511459770459 11.26099602071815
Ti 8.157641891624914 12.102458680228006 15.025776110423873
Ti 8.344721537464302 14.487178904660547 13.864656239799912
Ti 6.992900649604975 12.163603162058607 12.85705526106319
