52
Energy = -348.21288572 eV
Ti 9.457116005088796 14.039734031173987 8.656424128836607
Ti 11.804935355073018 13.440096540492885 7.750802236766318
Ti 13.844960079505341 12.438814529658304 6.605585412541645
Ti 9.74093344436331 11.550649229560092 8.146445436251243
Ti 8.202945414565592 12.353580117735003 10.306817162154525
Ti 12.043405820038329 10.655382562766654 7.38767523724849
Ti 14.26029360145236 14.272094410275749 8.623028214323124
Ti 7.340073658907964 14.078285927069421 12.231304173714095
Ti 9.023295560044948 15.134805095598626 10.866338118357513
Ti 16.045286525369818 12.288606932889822 7.910044753854606
Ti 10.6950756924694 9.202439224155865 9.32270503967234
Ti 11.059276050326792 12.552187564072778 10.210593036259416
Ti 11.659877947594312 15.369293083644065 9.795799632314669
Ti 13.77036969009242 11.650664661130705 9.22706354245899
Ti 14.82350330714884 10.173219758460435 7.203287325414109
Ti 9.812118169252141 12.857152604679893 12.77975209175593
Ti 9.130222703053509 15.56527068469256 13.669539420883481
Ti 9.692742898901685 10.46463775266326 11.528506356619282
Ti 7.439322770750125 11.456954311067259 12.768185192083482
Ti 15.877507056049902 13.028550950020708 10.39288560863153
Ti 13.655063859699998 8.760453298096627 8.967995731320958
Ti 10.478450555376153 16.999336725029416 11.781013040827274
Ti 15.083080838800871 15.588741001696238 11.10278154342662
Ti 7.886111382718012 9.367114430015036 10.497230831722256
Ti 12.288896999748205 7.2419236010024495 10.518431536676399
Ti 13.420589456599501 13.59861017471908 11.195058967036557
Ti 8.418232168380602 8.747453734958864 13.499651493757817
Ti 15.912991707794632 10.153678319041463 9.616882388917704
Ti 12.484364819214322 9.86904638163895 11.12880191373214
Ti 11.648347861220303 14.78918182204113 12.570183029710028
Ti 9.990287475968152 7.674250518705025 11.612706024426068
Ti 7.985062585485653 13.413131615085721 14.608562135045421
Ti 14.227284289113397 15.905753472222495 13.506880316947106
Ti 14.551617990278277 8.303641272478535 11.501907348847414
Ti 11.103096969026742 9.308964568292891 13.538971474827058
Ti 11.707684995261063 16.498736432648197 14.290955206481081
Ti 15.44088536605902 13.734404411221998 12.997108594468411
Ti 9.139200654859378 11.061863589875253 14.674474719429128
Ti 12.60694639397959 7.10276488893198 13.096109528165409
Ti 14.901372677813347 11.14760993462771 12.032903837514674
Ti 12.888260368249249 17.05886838134424 11.763502327946513
Ti 12.422264655060971 11.759259369847964 13.019268116051254
Ti 9.847514766837296 8.89290200167808 15.860421874258154
Ti 13.901430578175505 9.449504285893662 14.111076831107342
Ti 10.24113271679999 6.881540205236991 14.204536031879272
Ti 10.585787270254311 13.894362627221 15.260042817340153
Ti 11.832801707069779 11.066959639424027 15.54661436643585
Ti 13.126690419951043 13.769954206904991 14.625443978322515
Ti 12.231639791237383 8.094361891975582 15.605884199351534
Ti 14.540354072514795 11.723468087231067 15.055866964117069
Ti 13.199109863527644 12.643862161844664 17.113077991646907
Ti 13.770415195822455 10.153535533629908 16.929146017043525
