5
Energy = -26.56895798 eV
Ti 7.0088475289637815 6.980056091827361 4.880858255799034
Ti 6.66569332942362 7.280681846792582 7.357099264772987
Ti 4.722872694360522 7.3998955532165915 6.0022694954676
Ti 8.382851331216683 5.745131310664652 6.595689951070984
Ti 5.961352220839568 5.1519812224977874 6.207899570110466
