51
Energy = -342.36497406 eV
Ti 16.300244498121593 8.23781792190697 10.942846057910945
Ti 9.899151967443949 11.981978147145854 7.653726741544838
Ti 14.253057277669123 15.154837700566354 9.950605132835774
Ti 13.787200884237626 14.250524597774744 12.589110939675482
Ti 16.111875194637577 12.517146875967832 12.12265102248016
Ti 14.097703432349952 11.158191318070092 13.395515492200333
Ti 8.056914160739508 10.631910019009233 9.245506211836341
Ti 10.517307385909099 12.172350627699155 9.778440995035478
Ti 11.768351471298596 9.78572103097083 13.46058003004875
Ti 10.501341546522552 16.940732999099442 10.78617440167585
Ti 14.002490560149534 8.32723623323488 12.431799562836584
Ti 16.57630631729933 12.343097844436569 9.49803678807585
Ti 9.88934439676253 14.875666123314518 8.947990280761879
Ti 7.7481028243729 13.195494375669988 9.88953077893494
Ti 11.073641109049817 8.85772215349692 15.794402385890278
Ti 6.883309987721191 13.57286807779274 12.418023442307769
Ti 10.627834974401097 7.757136733754463 11.486025961189215
Ti 14.430032565453429 13.217955871971098 15.014293866533327
Ti 12.515820994282059 10.86335963534357 8.528592032850337
Ti 8.898571593704864 13.8010789618131 14.488173107746428
Ti 9.359496656990594 12.789782760743831 12.216130096231824
Ti 9.557071289823199 10.280964596852268 11.71214400568674
Ti 16.732777566648053 9.69967519399471 8.842113314816647
Ti 10.315085165190734 12.667266951216963 16.62949082728751
Ti 14.986019027386645 10.469239134817782 10.735657744527792
Ti 8.716466028382007 15.224032306658167 11.393773810874725
Ti 10.713885067920888 15.193921271235576 15.91693762174957
Ti 17.66602731119742 10.534954262989569 11.077645735711217
Ti 12.194233360040158 16.378025860485472 9.043887966474218
Ti 9.409040642418566 8.452860074586228 13.735694636669988
Ti 11.675959185595417 14.533951448951912 10.916653009704932
Ti 12.667949318894177 13.724949294971923 16.83949074211013
Ti 12.295560099986304 9.630624069939378 10.771451154981845
Ti 13.103831619538978 15.494814206084287 14.929041896126252
Ti 12.949460600831033 16.720046204334217 11.63842098704645
Ti 16.258938993389307 9.845764644209325 13.104532565660204
Ti 9.833770956788175 11.12037709364465 14.618753629944408
Ti 14.231324030940506 8.67579874694839 8.936726349898077
Ti 6.85708380402843 11.19860117186582 11.362879189855663
Ti 8.056643957378364 8.542013847034086 10.963138218675951
Ti 11.833801840417715 7.212146602076148 13.864269726897756
Ti 10.914167993697987 15.665881440508528 13.24280467938221
Ti 14.880084903083787 11.245926094298024 7.963061929064735
Ti 7.599802166340499 11.204722092840885 13.661610938852006
Ti 11.683888317637578 13.221307950876698 14.36577911333339
Ti 12.318221741430026 13.7503034104246 8.298378387273152
Ti 13.683079425830902 8.809767894440391 14.978850049572861
Ti 12.119159665172319 12.041048849612078 11.91355109090845
Ti 13.913835391915125 12.708675667449858 10.127236235763364
Ti 10.16077261450108 9.318035731190557 9.098540478012666
Ti 12.522661095999618 11.150396857201248 15.828031616056473
