5
Energy = -26.57085136 eV
Ti 7.387427471156843 8.818578640359162 8.112429434362143
Ti 10.81034734841785 9.237588098210962 10.258593901389103
Ti 8.651901570286856 10.461423123748153 9.539837259140379
Ti 9.882331484698632 9.12068331561055 7.8487495610094395
Ti 8.85350743106325 7.963241424011069 9.839867828429055
