51
Energy = -342.78041177 eV
Ti 8.999073300153754 14.721352229463497 14.686298665966731
Ti 11.010188721289799 13.215906486064021 15.061551148652145
Ti 13.571324516869442 14.43363392817412 14.120071821135092
Ti 13.68952247119218 11.515688212594025 15.120344993151537
Ti 13.381050779318768 16.408109107791002 12.2785771933839
Ti 11.04569885085461 15.066490990591216 12.918960436925529
Ti 8.372863172579091 11.97925197299608 15.039671592680582
Ti 15.31270407018003 14.744152630683262 12.25807850919773
Ti 6.926911436510559 13.729446318379 13.615280896910745
Ti 13.03653246968567 9.023590917089894 15.459575562260726
Ti 10.91840848455683 10.634599756584377 14.881647048943044
Ti 8.448234370621728 15.405074719592198 12.20602497953263
Ti 15.344125332876494 9.456399222829443 13.989245248129036
Ti 15.05564372599863 12.220055234337563 12.976620749706722
Ti 12.294471232427151 12.418282522508402 12.986986642516534
Ti 9.340763181821492 12.922018831714354 12.791001328912406
Ti 11.524162925271208 16.22557360639653 10.465327519423237
Ti 14.27404045410978 15.681754127720206 9.797381508016628
Ti 12.948082280796976 14.06119691447616 11.087212631747247
Ti 13.679713436504574 7.389965289251044 13.79772279029849
Ti 6.82321136305771 11.292364940637503 12.750544187207764
Ti 6.874893783067128 13.433282913854844 11.067873804359856
Ti 8.508195400971879 9.54024815372676 13.905312895459897
Ti 13.118517191559745 9.913607747580235 12.94782633173591
Ti 15.804116220435656 13.273428687778155 10.264538751247285
Ti 7.616453598127365 13.114383529470564 8.723771774892445
Ti 13.796494393219913 11.37062859697777 10.616283670511732
Ti 9.79216949471384 13.976406705597302 10.304582233879243
Ti 10.343866430318881 10.456951377748034 12.234317790762695
Ti 13.969939632458672 13.334604371002218 8.364689688338087
Ti 11.8301778866274 14.53110636979766 8.636027354591784
Ti 16.01631982715203 10.28165242912537 11.115190223775638
Ti 8.657124147757116 11.206041466504312 10.308153859808112
Ti 11.006710990534867 8.22987892959729 13.687567106453324
Ti 11.519819046376156 11.946070255980269 9.994393232731875
Ti 12.22282643213607 8.979795402642019 10.382311258760327
Ti 7.224349140469322 9.05991572532489 11.646247193081154
Ti 9.664905428239754 8.096436330333141 11.208653540045958
Ti 15.44079939187614 11.311529475079961 8.553458744154035
Ti 14.771580182232542 7.925803277772543 11.562361066970398
Ti 6.159113842850857 10.932034680507122 9.933844580051044
Ti 10.022721795388714 12.250116447739408 8.034036758700665
Ti 12.874410183728449 10.697791062300285 7.9517142405519285
Ti 7.870197010233558 10.725520245203409 7.790135974667954
Ti 12.112156758913258 6.64870976886001 11.749428233966585
Ti 10.265783426718004 9.589667810897316 8.656418076034477
Ti 10.876854885962079 6.963912051435733 9.272972831725983
Ti 14.802940846589692 8.893295128472474 9.057146891005765
Ti 7.740791820814878 8.7585073159935 9.291107867661491
Ti 12.520000647463407 8.208598076513884 7.7476637991508435
Ti 13.461164682107283 6.687288802031254 9.585965865946504
