51
Energy = -342.36484849 eV
Ti 14.226983403265814 12.255641002295093 16.380354606442836
Ti 11.697441434595728 7.901992433043813 15.861228149586326
Ti 13.08453828763769 10.03057515898216 16.267490517368746
Ti 10.09700576038668 10.076425099614925 16.052040950448614
Ti 13.02499701102068 14.241363990621515 15.323699830422404
Ti 9.508663458020681 7.857172099849084 14.347863201316002
Ti 15.488860642539075 10.640589920828043 14.745765899472994
Ti 11.503762970619102 12.333811756074907 16.21741311301492
Ti 13.937233667223598 8.434957942349023 14.310707710200392
Ti 15.549000532950737 13.32290844832194 14.335800522577145
Ti 12.02856054497911 16.55369696108782 14.401085597820266
Ti 8.446338148795572 12.483970199965004 15.350392391154873
Ti 10.148803008730551 14.769399015300714 15.166640531593309
Ti 11.418333058885503 9.4361762124818 13.694146849889014
Ti 11.86581016154635 6.7251899844272085 13.745094900853672
Ti 8.122836138628754 10.114865552665457 14.367231407489415
Ti 13.172873833385609 11.691741693442411 13.99349758632013
Ti 16.404468512618102 11.79081925552015 12.203891321132083
Ti 11.555127657491447 14.359016649748174 13.021649667213431
Ti 14.546461455244676 9.95519940670861 12.097023335154661
Ti 10.533327090721464 7.578585951277712 11.738607576157206
Ti 10.204019227678213 12.026555689413431 13.807641953207321
Ti 14.070365906224298 15.301894706917029 13.106449449296171
Ti 13.15542397356334 7.7678904594221505 11.846377908551174
Ti 8.795271687458516 14.168237409324874 12.774703545549698
Ti 9.01212171699343 9.610319710125816 12.055339906380695
Ti 15.257879500823663 10.591819076576511 9.44904831415932
Ti 16.214191724146815 14.280897377471264 11.968681877932978
Ti 14.008681088196223 12.788350329285413 11.640797594104697
Ti 9.82602490287906 16.504300553358767 13.166983594937102
Ti 7.694347302315582 11.944526962588943 12.454960344043549
Ti 8.083138252431542 10.934778991258389 9.887641111183802
Ti 11.80862270595247 14.020742159621332 10.438008460617658
Ti 12.002602023456374 16.85955557399214 11.753314527366912
Ti 12.758028927796024 11.628709510371332 9.050145258933822
Ti 12.149782620002078 10.40207498830448 11.418239452387512
Ti 8.373338074600237 13.587937123317717 9.888871204079834
Ti 13.06441399424756 8.886328724814422 9.278856167710574
Ti 14.199390662376462 15.434682961283425 10.505425626032698
Ti 14.827230106046198 12.288826192577964 7.305453743481919
Ti 15.617653891221376 13.188374893556636 9.639822706144
Ti 10.085346882670944 12.089749437799492 11.160601817941554
Ti 9.776370761918932 15.823788936531372 10.61053006815513
Ti 10.011888072677102 11.898120618313126 8.375002400776372
Ti 10.557134108208414 14.360838877006998 8.165395459244731
Ti 13.39982446429702 14.293645561356431 8.192947187443222
Ti 10.447172076796912 9.557531069576527 9.700816126763675
Ti 11.916129551518281 16.288650879093847 9.167197008368264
Ti 12.270985675040343 12.25941199921626 6.561130319633803
Ti 11.441089381263348 9.881746930265212 7.304772168271291
Ti 13.917473962284214 10.114330283127988 7.107476476476656
