55
Energy = -370.16840186 eV
Ti 11.466678152134447 15.61294230742046 15.039083478321851
Ti 13.259061415643098 16.562762256085723 13.534102968311432
Ti 14.084372135016622 15.319374280879575 15.97667339824439
Ti 13.959620404086392 12.827469300887577 16.961978167226885
Ti 11.51400407564126 13.862867523286353 16.53148032823109
Ti 15.833625524317272 15.626886392979976 13.652216731761023
Ti 15.918915900258114 13.416831964544066 15.293450110368033
Ti 9.002851391569234 14.836668698371206 15.542985990464722
Ti 10.539365671557194 16.65842663713931 13.013394255236378
Ti 12.20862453638924 16.977481113915744 10.949201154055581
Ti 11.99033616992811 14.590337672316863 11.934203934075546
Ti 14.678834202661113 16.451039128319433 11.497471406452046
Ti 12.005930541930075 11.326051567281423 15.786087981424634
Ti 17.40474485153538 13.661770008249345 13.168729567466514
Ti 13.302777372579257 13.42386381021639 14.437938893825752
Ti 8.792155062887407 14.56909286456653 12.629928864333392
Ti 7.498555096987667 13.182185704989179 14.555759161945515
Ti 14.521810480797086 10.935974324610417 15.282935947730898
Ti 9.182977105430464 12.14016156846607 16.388859502283566
Ti 16.641517408910335 14.87480327176683 10.939584152475122
Ti 14.828198764555339 13.518897566396053 12.088598822776492
Ti 9.764232184804252 15.913706198632237 10.694911427526865
Ti 16.171933944461927 11.369856822547026 13.473507924134768
Ti 13.911686756481949 14.839352433651632 9.67600093829037
Ti 10.251445370368469 12.885435516677651 14.184410797475689
Ti 10.073499399321262 13.009977501935085 10.551904187803025
Ti 11.288033763950875 15.003015059317596 9.133305309575452
Ti 7.980532785740238 14.026702126772769 9.867146238698828
Ti 10.185444818334616 9.90433009999081 15.008294528639437
Ti 8.214425411785948 10.781526263950683 14.122813754955397
Ti 7.748953418571952 12.152658199951336 11.986725002447505
Ti 12.977076044779144 11.083745969393151 13.096171632637125
Ti 12.934548006769148 12.304988522528976 10.725164257476608
Ti 10.31151604518178 10.970035144133425 12.392854661421223
Ti 17.097921827235172 12.241106393412805 11.15461359554416
Ti 15.282614054408631 12.782776305880901 9.332110407009269
Ti 15.101452614812143 10.621823432711658 10.911000290258546
Ti 9.706718197192155 8.417914387303803 12.75477673350821
Ti 14.61992620141605 9.033564030966033 12.75216006865969
Ti 12.32040741626586 8.565251627391316 14.002967138525662
Ti 8.144436098008864 11.385864819516067 9.42033757874782
Ti 12.356974641021582 12.694944589723479 8.393354485564496
Ti 9.775388572987946 12.25893613755278 7.831000997570098
Ti 10.991103676223865 10.558015247519418 9.565499516508599
Ti 8.549298886836803 9.491957404175917 10.834314535245865
Ti 12.246672513200263 8.854891759130787 11.301284294381436
Ti 13.726271095728771 10.277675353328952 8.550070685413058
Ti 13.682088042526118 6.803026032701128 12.281130071813926
Ti 11.198653766679282 6.539871030490024 12.391717498046724
Ti 14.375496137693313 8.063188415613672 9.911632152710139
Ti 11.604611728549466 10.509479200160259 7.0203608086259335
Ti 9.387397097298038 9.32366141814781 8.065843423922795
Ti 10.045549720557684 7.446106815869981 10.065982081793392
Ti 12.018491452199237 8.214176337755003 8.302185297881906
Ti 12.392392909252639 6.366702303938644 10.111933725635737
