50
Energy = -333.93779864 eV
Ti 16.105974789113652 15.299226852104084 10.343182998830509
Ti 11.000683968527301 16.03459320080041 10.474938264719441
Ti 13.598614943269157 15.785764183036246 10.13584815679556
Ti 12.275296612513776 15.585431256152908 12.69335979898769
Ti 11.853119144522601 14.59918176701306 8.422923128227476
Ti 14.80120825156422 15.687179136995352 12.669785675818414
Ti 14.603903042633203 13.614233124109123 8.78746748717764
Ti 9.130197752502498 15.887028936691834 12.30887005188489
Ti 17.05407342063091 14.29031160565371 12.457108905028731
Ti 9.356352403014089 14.240705427122297 9.96166490852913
Ti 17.01134780089806 12.922384133301126 10.075940827006852
Ti 12.165917058212909 13.493368310182294 10.754908571776038
Ti 12.800086678285137 12.679622052143824 7.012285769009199
Ti 14.857251425128347 11.201461678916166 7.467930990670199
Ti 15.262332651661993 13.482884154971432 14.245342045021568
Ti 10.16704797903841 13.522979965821182 12.569138710492886
Ti 10.58142725341351 15.726328873788827 14.512683343930348
Ti 12.670539595542166 13.105181439764253 13.826403111779374
Ti 16.84350558537223 11.659756535081264 12.505688697954048
Ti 14.799346858278595 13.20760592361194 11.552875017470894
Ti 10.533077933755798 11.949879155032772 8.735817698035302
Ti 15.406437980109832 10.831307704951062 10.193542232335748
Ti 13.1579720875076 15.215660773290308 15.365409779831
Ti 12.32261094853096 10.312821270345031 6.959055365638698
Ti 12.99065097736732 11.276329848654134 9.349279447864197
Ti 13.578334479655135 13.091111971282597 16.415183557504466
Ti 11.510841758990018 8.85515805159988 8.886424873308886
Ti 13.495134051021969 10.906600894277798 12.517027388420619
Ti 7.527863599724452 13.985550813164831 12.023292842462327
Ti 14.116836631776929 8.99307999411054 8.547300713803576
Ti 10.884728385781084 10.86546893296923 11.273963636525888
Ti 10.867117420137465 13.511585461892471 15.699370905708603
Ti 15.349737465870813 10.790530654325485 14.505444718006808
Ti 8.442939745065985 14.235520656728275 14.443065863682165
Ti 8.312297147603182 11.864448721948246 10.704659700925504
Ti 15.677500333856235 9.290703905112034 12.29228970348409
Ti 13.145565222905965 8.83303882308513 11.137790821865005
Ti 12.842797388820504 10.812950927213382 15.393872279878368
Ti 10.386476060542076 11.251840407663204 14.18555027876166
Ti 9.162737577423474 9.689998991251082 9.54313669921921
Ti 7.838083452989682 11.70728223338828 13.411475204774993
Ti 11.130614608562265 11.43584425485763 17.392277816976556
Ti 10.523721076460523 8.092444067058658 11.148524937062133
Ti 13.890400282180236 8.67277223128059 13.941309357089528
Ti 8.708387028733478 11.666970867845638 16.201039172344835
Ti 8.607908514171019 9.603351938724108 12.125608565203239
Ti 10.921099491602124 9.260897073303495 16.084293924902102
Ti 11.309566139294901 9.06750497250491 13.408411998570529
Ti 8.648169943754715 9.291840860174117 14.912028155081034
Ti 8.97860529563661 9.811247232349407 17.654306272561055
