5
Energy = -26.5708105 eV
Ti 9.622298023285238 11.251095252299448 11.334190061874422
Ti 11.76087729597905 10.934227444753171 10.051471340171664
Ti 11.196659881430477 9.607110958147564 12.168846043979167
Ti 9.587997995318284 11.423053683639415 8.896731297322166
Ti 9.981167842766366 9.180124460560341 9.95534722057644
