52
Energy = -349.57056186 eV
Ti 15.828382780992698 14.219973143264331 12.938321801941077
Ti 14.369106453712023 15.55985249279818 14.650521799796405
Ti 15.983494604269415 11.332601413042319 13.128156682498494
Ti 14.796864892057645 12.967058552904616 15.117706198914314
Ti 14.66818996165948 16.622889757555416 12.219615648145853
Ti 15.889742492207937 14.852066417898104 10.459825743624412
Ti 15.080296884500275 10.493326662100383 15.576633363390895
Ti 12.205707758065174 16.353280126886066 13.530436078904412
Ti 13.030150243094997 13.701451744594221 13.300576756693571
Ti 14.175129285931863 12.42150457594916 11.174969179138847
Ti 12.201609829320642 14.241603172467553 15.69799261428907
Ti 14.283752823596238 16.59113267526365 9.439268585004324
Ti 16.107806563781754 12.150372523582861 9.997944189483274
Ti 12.293069886430846 17.328338514317128 11.006597037557038
Ti 15.106517471952564 8.781313055237952 13.754270837424983
Ti 14.184397580103237 13.946229525953804 8.609853393223917
Ti 12.773433582682948 11.578416971723636 16.335764870815083
Ti 13.14662545120675 14.882973778831447 10.949296614855427
Ti 10.221745285809105 14.742503294113478 14.175495002119307
Ti 12.882577120873375 9.048811551411223 15.436091121436759
Ti 11.639329556919796 13.170713225177188 9.491651582802678
Ti 14.745121500947318 9.760652309923195 11.236014847500341
Ti 13.387338884557549 10.719411598932966 13.443181538851977
Ti 11.765073165521585 15.6874983786922 8.922462961478464
Ti 13.519098564552792 11.172466028932643 8.836917436108624
Ti 10.960296421071636 12.699854412747333 11.910667153414995
Ti 12.143740354378906 10.271987986979573 11.08325953456687
Ti 11.717014838920191 12.21183226772034 6.97744150648056
Ti 10.959815445888646 11.918248161240076 14.292531891819653
Ti 11.191424343341195 7.246043622823721 14.96133394419216
Ti 12.78178848550155 8.07987390661129 12.52539299413105
Ti 9.581301283658059 12.741935398793627 15.94931843527874
Ti 10.549953006265266 15.306990486534298 11.524992658042873
Ti 12.618425666933668 8.449228553245474 9.28382063986719
Ti 12.05641758541487 9.719442893383059 7.066259004899646
Ti 10.608012998688563 9.247238484491959 13.29386398854116
Ti 10.38622924363698 9.779319884403286 15.950489551510916
Ti 9.538058541191798 13.111567423955332 7.671208249712609
Ti 8.591183379027546 13.199357714248672 13.10835435527454
Ti 10.475286503243217 10.798888583075309 9.017905668247856
Ti 8.852943341162877 13.382915954542524 10.2713823621736
Ti 9.1583419282816 10.847665539278829 11.336742122211955
Ti 8.724493487459833 8.047068339061811 14.719880926077552
Ti 8.4250097244262 10.710299829694808 14.031694681024296
Ti 10.199692723494575 8.151708524037964 10.635047985424464
Ti 10.050391782467909 6.697508066196808 12.858644947342835
Ti 9.425523853884275 10.493105820681524 6.777310183574953
Ti 10.244330535001593 8.230201615900683 8.052116344256069
Ti 7.7664457766615 11.610244928522203 8.786969465154877
Ti 8.121528301054346 8.57128747680224 12.232661929735526
Ti 6.92516492994339 11.334947384879495 11.509392635805346
Ti 8.132358079818445 9.284530434161525 9.211486140804114
