52
Energy = -349.62903619 eV
Ti 15.55184150256686 14.410165736741625 10.417776294983344
Ti 15.663476385287879 15.004087790065249 13.179763418394002
Ti 14.621447452489965 13.060835586760446 7.935612210742519
Ti 16.223392254727294 12.47173525156779 12.663096756299263
Ti 13.875887585093336 16.36944788756081 11.682469456296927
Ti 13.281869856122347 15.438675378743133 9.154641659680935
Ti 15.802517510203053 11.70036978513941 10.313309171964894
Ti 11.586185829990674 17.158289556558792 10.494075900364937
Ti 11.944318148492927 14.011292076833538 7.414624859059742
Ti 13.276982085265239 15.341922412683777 14.21259692776781
Ti 13.269772456187447 12.54473737402754 9.536380618280061
Ti 13.810902370284213 13.60573685871419 12.114505498316289
Ti 14.143999404984415 9.79398492986605 9.63068254013819
Ti 15.265857594045958 10.396923974124126 14.867765943264775
Ti 14.44562138196321 12.982689406330195 14.702504341275812
Ti 11.442875593908271 16.517963670992128 12.981134192807843
Ti 15.983791298005793 9.500645835176403 11.966751165466704
Ti 10.342384243604334 15.672232826011605 8.777003312343417
Ti 11.519905557989869 14.616639941963651 11.063104149023196
Ti 11.663688026071144 11.610669793816573 7.355522710013309
Ti 14.025886422840733 10.90305949548903 12.298835106764194
Ti 9.246290236233207 15.967386453120207 11.514179982170523
Ti 10.281566763962008 12.837435454137273 9.367360235383662
Ti 11.657350930215229 13.207013199585646 13.499798434585202
Ti 13.550659898104312 11.431707164365783 16.77346410117504
Ti 9.230694762418613 13.224902534936334 7.328756458591633
Ti 7.404729176222335 14.02227055426475 12.340068964331868
Ti 9.60156066790492 14.793509160756418 13.899717486788537
Ti 9.245983190494995 10.679742394851495 7.956178481668717
Ti 14.51556343183001 7.546024244812702 11.26452239841038
Ti 11.699851785669276 13.072265426532514 15.92496917787653
Ti 12.606957490543838 10.803806344746537 14.40798316139102
Ti 14.140680533138251 8.271957650925334 13.818467695534812
Ti 8.117686276387515 14.556704477008298 9.680230030148033
Ti 12.276127977445663 8.857362663284402 11.774144265832165
Ti 13.323878795661825 9.02793420664589 16.26128259201244
Ti 11.669519205464669 11.628237403345908 11.257889776865648
Ti 11.409396634095934 9.720614530873378 9.280485613400861
Ti 12.657668821822172 7.380986116419856 9.648068192939537
Ti 9.29997635628505 12.764720040957318 11.84117804291888
Ti 10.98717765413787 10.396608480003323 16.35736980417532
Ti 7.602264330432686 12.158736479508192 9.662994518602726
Ti 9.426994179178628 12.020165449802063 14.539166387854632
Ti 11.431392137629437 8.116225221280837 14.786950648832379
Ti 12.224680847458226 6.435009849522309 12.223300267796361
Ti 10.243898714411165 9.987273580683704 12.926097559513142
Ti 10.1448321937442 7.520871123545338 10.626803377300986
Ti 7.695811694039362 10.84345658971464 12.76168749309438
Ti 9.079364143151986 10.152678661771967 10.48718772298866
Ti 8.764488078295425 9.130129362109074 14.750401772090799
Ti 9.850415142424175 7.129385919194008 13.23642082470784
Ti 8.045581083496629 8.378419784552056 12.216364390194878
