6
Energy = -32.40110044 eV
Ti 11.957674700615348 12.49990696927101 9.93021364833383
Ti 10.715122981525129 11.60860556033301 11.824221779221073
Ti 11.660922700930778 9.987756219326526 10.121531229422281
Ti 9.111978498365128 9.92096406285474 10.607931956924794
Ti 10.553519466222602 9.076235396411434 12.230283421918465
Ti 9.832581727013418 11.493834310989717 8.99031716417399
