6
Energy = -32.74850642 eV
Ti 9.493247188471559 11.25388373706557 8.798570814163092
Ti 11.290458318024323 9.945696980067849 8.007979358470562
Ti 9.420094244850729 8.649169579356625 9.168762848955616
Ti 10.991390316240969 10.002069299805754 10.554833581138197
Ti 8.42664963367505 10.554592537672583 10.691724537531167
Ti 9.286023679885998 8.502451247180142 11.685992240889666
