6
Energy = -32.40233665 eV
Ti 10.100967574746702 9.201892680758656 12.016791098714872
Ti 10.647986810197079 10.24808629398287 9.888236056518643
Ti 10.216718668952696 11.733377094290901 11.902484445223573
Ti 12.36583872925158 10.310195160651494 12.304633088006838
Ti 10.51693367003574 12.799945151940708 9.60274732919797
Ti 12.464972907333213 11.993519040709888 10.634449247284607
