6
Energy = -32.44357352 eV
Ti 6.4272230226666025 7.820955080370992 9.60962896832214
Ti 8.809079481347977 7.161098653463593 8.852406160638166
Ti 7.50009363398075 8.690038627855442 7.394089913819487
Ti 9.778246395414318 7.825593878884668 6.538077960452488
Ti 9.892955635171596 9.462270734483893 8.181736335497744
Ti 8.020239251426974 9.46788044494939 9.851898081278073
