6
Energy = -32.76817897 eV
Ti 6.6520340271790115 8.100620872618684 9.388161600539911
Ti 9.895876867379327 8.447304108922266 7.160847280612077
Ti 7.454462668803748 9.467135163463666 7.264543260054254
Ti 8.863617804858498 9.560840435349974 9.332484569896309
Ti 9.094642300686246 7.08131180282025 9.282853675085521
Ti 7.683720331093397 6.987141537141502 7.2154636934956935
