6
Energy = -32.74249374 eV
Ti 12.388231115445038 10.736291220126391 13.895434668917366
Ti 11.84239684756784 10.173471201103817 11.454941452574314
Ti 13.3380789389443 12.150917924719637 12.071991096258792
Ti 10.776329767170298 12.171776084330716 12.633103421453885
Ti 11.591207898587037 12.35662644750768 10.223969527826055
Ti 11.928050095748814 14.250861671813228 11.71061793993107
