7
Energy = -38.71394045 eV
Ti 10.999071475165383 10.653177116142265 9.422762829851468
Ti 11.235721456277657 11.712045542048848 13.401657562159786
Ti 11.685761451277672 9.910061761350534 11.637527445702075
Ti 11.882676870010322 12.508948305604873 11.072005897692888
Ti 13.579457152582075 11.321544146389641 12.659368973779786
Ti 9.585809337386342 11.408665337989563 11.418334483922374
Ti 9.876870319135534 12.639466441634355 9.160364098666076
