7
Energy = -38.98327014 eV
Ti 10.463674014670758 7.145025044284919 7.5738341413010986
Ti 8.948267839353191 7.726296579437401 9.553996391208878
Ti 8.416636201097749 9.977018726510888 10.179155739841235
Ti 6.473643684364473 8.158159408571898 9.397180476451814
Ti 7.442801243592733 9.803212626845204 7.986567692622261
Ti 9.767777068251156 9.31824870332779 7.537112863281895
Ti 7.9523061047420756 7.337145067093795 7.237258851364832
