7
Energy = -38.88439234 eV
Ti 10.85937393043166 9.384305585275364 8.251418191961868
Ti 8.29471084935283 8.758103466926592 7.031064208363921
Ti 10.092805572941865 8.55220996569402 10.59905403286223
Ti 8.657445849850905 10.068052949847452 9.232086524848116
Ti 6.3323902564086865 9.606722920481316 8.378649230708849
Ti 9.68161635609063 7.244692268930154 8.573316118017855
Ti 7.391730229193397 7.69598588711496 9.244484737507154
