7
Energy = -39.94266023 eV
Ti 6.051779154244974 7.870183896822052 8.548496932022799
Ti 7.90467190613756 8.670072264814674 6.8860467724130565
Ti 7.742404533427058 6.198337543966186 7.446916624993533
Ti 10.027446490338534 7.2863315953650485 7.362259914962676
Ti 7.16097694680866 9.85951595470435 9.090769078003982
Ti 9.732515343739975 9.601516200318276 8.380973087684607
Ti 8.50196612530324 7.635803096153263 9.406298089919241
