7
Energy = -38.25590066 eV
Ti 11.428742428148224 8.421757858136479 8.632788474499138
Ti 10.553102216812437 10.512761777684378 8.5739479799364
Ti 9.286169771827762 7.750724231883337 8.378219533539758
Ti 7.63858505798049 10.067271385648105 9.443616435002973
Ti 9.171769196706997 11.663188931956903 9.957783482320588
Ti 9.75081248559912 9.112733927631384 10.586175350700561
Ti 7.535666516058372 7.831499518606116 9.787461745618664
