7
Energy = -38.31259856 eV
Ti 8.798696648122178 11.157214718761027 12.050467725766822
Ti 12.114496472264376 9.8145199395971 9.970993428387999
Ti 11.085833749762482 11.383654911783225 12.200431170026315
Ti 9.264028360146563 9.434648056460636 10.824278066671353
Ti 12.676096272872526 12.01763759317228 10.58629508548195
Ti 10.228958394495164 8.98067473166915 8.942585255533643
Ti 10.297797323127053 11.646464226880301 9.7480511956585
