7
Energy = -36.20497862 eV
Ti 9.924518169816912 7.98656943093397 10.845797244752202
Ti 8.6945013 10.115399277651637 10.846190218179942
Ti 7.464484430183088 7.98656943093397 10.845797244752202
Ti 7.464484430183088 9.402433169066034 6.543205355247804
Ti 8.6945013 8.6945013 8.6945013
Ti 9.924518169816912 9.402433169066034 6.543205355247804
Ti 8.6945013 7.273603322348365 6.542812381820062
