7
Energy = -39.79046912 eV
Ti 9.602367205089163 7.53563027262613 10.57356526629577
Ti 8.94409518632073 8.69940050820214 8.402234780420432
Ti 11.482870664374976 8.751228786536 8.992918674614058
Ti 9.838705536478301 10.073390658241742 10.53175203556963
Ti 10.49732340287674 10.750638803763087 8.123559679163817
Ti 7.470108862333241 9.10513820569156 10.44657833346658
Ti 8.142857176474811 11.098948575835324 8.885431620214158
