7
Energy = -38.82447359 eV
Ti 10.157096160809608 8.809208707925228 10.322648310958884
Ti 7.776453475516366 9.735400342650323 10.956264572783956
Ti 9.846063512290062 7.114083554226052 8.033312959070615
Ti 10.331184569108867 9.378227789387706 7.781712550335484
Ti 7.986249342328568 7.929283469615367 9.404028631252354
Ti 8.933356151021387 10.768620560832318 9.111076265555454
Ti 7.827855543222393 9.123434329659982 7.249215464340247
