7
Energy = -37.01432618 eV
Ti 11.539762854732421 12.47056093706768 13.374365236657946
Ti 12.417759101413443 13.075197791438034 11.417243231129463
Ti 11.058038111019682 9.824327706603237 9.170321293931702
Ti 10.840769771010915 10.591243537259501 11.77044229569054
Ti 10.81778121519337 12.171127078575633 9.729187127325838
Ti 12.921009174134202 10.90554103689454 10.277699058853875
Ti 10.393762433389123 10.984138901056932 14.41608759914866
