7
Energy = -38.79970671 eV
Ti 11.56525085902594 9.668449789910072 8.487807078822756
Ti 10.558460655380541 10.083868699905686 10.802794444017369
Ti 9.12784767478997 10.418098353766526 8.720753333946101
Ti 8.289791621476017 7.929127763902116 8.175345157731323
Ti 10.231651552433902 7.972917098499686 9.483059243731267
Ti 6.711644449439381 9.463904906778946 8.357374014169697
Ti 8.122156246567545 9.065060546806953 10.578333424192335
