8
Energy = -45.77843327 eV
Ti 9.2329277062673 9.775378207725925 8.02764611138858
Ti 7.866785319656091 11.036152484079107 9.818633420126856
Ti 7.08874332517013 8.747170097462737 8.775804245165695
Ti 8.96272743941279 8.95573730476259 10.724359422340273
Ti 8.916792294425015 7.516065947955185 6.9898560995763
Ti 10.36262673814629 10.971086941167245 10.024797243693454
Ti 9.087869735372692 7.098980666187974 9.211560732780733
Ti 11.18395820756304 8.715925162511017 9.262058068370473
