8
Energy = -44.90196796 eV
Ti 9.407197884119547 11.27410052325177 11.873808190241382
Ti 11.891287577358284 10.885361619496905 11.52348345118139
Ti 11.013021887287334 13.179039569018205 11.925153054551927
Ti 10.229613849723096 8.818172276571076 11.367418955913577
Ti 11.60810143112751 9.741265671009801 9.141929327170763
Ti 9.12151871079059 10.130255453984303 9.492043442087
Ti 10.785029610599251 12.194679951613395 9.647715537649605
Ti 10.00502004045368 7.83791592651371 9.089239032663649
