8
Energy = -45.83935031 eV
Ti 10.37012237775741 8.011118989142762 7.209983724766882
Ti 11.052099675788508 9.367737913651482 8.83579663997506
Ti 7.979070916659026 7.3265940743265 7.069976044491734
Ti 9.014504644858107 7.749274095781812 9.519945748354576
Ti 9.41467535079077 10.214392563402786 10.521051323007642
Ti 6.516558891544089 8.073155890131622 8.575156044306475
Ti 8.52010504566224 9.786895372770644 8.017681492681444
Ti 7.275026233917813 9.612994237770604 10.392572119394645
