8
Energy = -44.93986967 eV
Ti 10.612670878070853 8.102062971187927 8.126703819039445
Ti 11.477696128082828 10.31673282394176 7.470395817535137
Ti 6.55171853442861 7.739041027256598 10.53742055495921
Ti 9.845159355981137 10.040819948616672 9.58668204957893
Ti 8.09374403802918 8.159571680281966 8.408657799408653
Ti 9.011162954455058 7.945832517897809 10.765989678626982
Ti 7.455147933654658 9.933202152189763 10.222488896946203
Ti 9.140726715052752 9.950763416382719 7.069687921660134
