8
Energy = -44.74962664 eV
Ti 9.54314603795869 8.121924754807727 7.360760888663737
Ti 10.20760034166508 7.09119922092913 9.44539506147937
Ti 9.888950185141294 10.726878352376437 7.201297567874921
Ti 7.595429739780272 6.923071403617522 8.243733408029875
Ti 5.96947898685954 8.03619988919496 9.424539206415659
Ti 8.425163495598477 8.465966013813011 10.189719905366053
Ti 7.47360634161537 9.58845056226114 7.946764008085488
Ti 9.90796658223607 10.057651513855115 9.199131664940063
