8
Energy = -41.62215307 eV
Ti 6.470724109307119 6.470350748199104 6.470717596945719
Ti 8.924485187034529 6.470585825326841 6.470239303397894
Ti 6.4707892470750235 8.924307314732136 6.470785928394484
Ti 8.924741555367348 8.92434370937361 6.470727177987862
Ti 6.470236234717259 6.4705815670859135 8.924479739233416
Ti 8.92408395119889 6.470951930674546 8.924085955319457
Ti 6.470720915626478 8.92434051569275 8.924739301246877
Ti 8.924478799673246 8.924798582595999 8.92448506203463
