9
Energy = -52.49185584 eV
Ti 10.888869790793565 9.227079346480194 8.112918625984307
Ti 10.55207385339057 6.7455710312444275 9.19345737476735
Ti 8.897133940731296 10.379043401362955 6.632720966149657
Ti 9.942600893992408 8.82756532841749 10.523903432685659
Ti 9.082133290980087 10.789384841053945 9.15808992555655
Ti 7.357104246513439 9.225909518294959 10.341612865566631
Ti 6.888540147540701 10.38487781039672 7.8921879429735355
Ti 8.492125601965515 8.261005344586032 8.223116331333774
Ti 8.48723400473019 6.73978425175791 10.49525008910135
