9
Energy = -52.32521524 eV
Ti 11.140467120905955 10.60879315745153 10.171682881621047
Ti 11.210549925796533 8.192960942151071 8.829070574210643
Ti 9.549058565711093 8.649990682934739 10.707219370637223
Ti 10.193026143916201 10.501283241444247 8.09035331004348
Ti 9.09158550287785 6.6354148906563015 9.392642980795493
Ti 7.373923899319417 10.587203072125655 8.009296658243098
Ti 8.327318029774139 10.732374462291952 10.091355361474243
Ti 8.801113449655212 8.456425479333502 7.788321421509215
Ti 7.117557609520549 8.428742949500759 9.711260556149748
