9
Energy = -52.60784593 eV
Ti 10.24484970801105 7.33260619346121 9.545666576939134
Ti 11.364018277646508 9.705989326605192 9.66418882920145
Ti 9.083351653160674 9.469399797988363 10.661306044236515
Ti 9.663431530521642 11.464589640279723 9.265660543790867
Ti 9.420017952990419 9.167905471825557 7.904576954828752
Ti 7.341021592754443 10.386919114637736 8.853618320754252
Ti 7.618300513120518 7.828942313326985 9.573565028437862
Ti 8.651618336022189 6.611430366944957 7.645133564632689
Ti 6.952607165779698 8.371434504937673 7.225500867185624
