9
Energy = -52.2556473 eV
Ti 10.44227259412341 10.810363122658725 8.366583467523272
Ti 8.776183253627098 11.90400266166376 10.12971550476808
Ti 9.660589656316152 7.751008946935599 10.637750773347294
Ti 11.524157245991818 11.921462610492828 10.11636649564786
Ti 8.283865332078575 9.50186698512764 9.088431833092024
Ti 10.405592420325029 8.230308723418293 8.359331709251645
Ti 10.205828364087344 10.16347556887139 11.27634105917927
Ti 12.086048583511204 9.223373212649957 9.823805092826762
Ti 7.77393278144481 9.651820413107698 11.36488027920645
