9
Energy = -51.71832992 eV
Ti 10.644205395729958 8.820650250937865 6.834808719808753
Ti 9.073843071261253 6.964053119526897 7.317419738515609
Ti 10.572662294867467 10.606233402997479 8.146036053579746
Ti 9.998062968972405 8.324768460894003 9.400842851579721
Ti 8.205570489717731 9.424874949455416 7.797129697185181
Ti 8.940395934715253 10.702253285079523 10.032854916680655
Ti 7.585752847982345 7.051384003171826 9.041103851698407
Ti 8.131963536285454 8.437341470178023 11.26448772115647
Ti 6.582474486804158 9.387847285796328 9.882065486477936
