9
Energy = -51.30457536 eV
Ti 8.144136904977398 10.197310901563611 7.480071841867385
Ti 10.337235914873832 8.981964667670114 8.20153479886834
Ti 8.017482183838245 7.629008803323349 8.247025703671161
Ti 10.112628632019563 6.823132778516095 9.551567152066175
Ti 8.855376250108389 12.280518213650087 7.911118180258715
Ti 8.38335084952082 7.123758518633959 11.053851664948864
Ti 8.259288470150937 9.46907038741426 9.958697402534831
Ti 10.08448214278314 11.242601371221502 9.470793026888261
Ti 10.560951781674124 9.007567487953327 10.88027335884245
