44
Energy = -94.35986853 eV
Ag 8.712907423439832 15.535676986764061 10.788984274989692
Ag 11.183536022599862 15.42978851183716 12.193041010107201
Ag 11.200433435010105 16.20204031693332 9.526660776671562
Ag 10.72098339683456 15.2098383916055 14.958388233769716
Ag 13.672243640522188 15.865545597999672 11.002472246178648
Ag 9.026649686137052 13.968621487598877 13.05743513696219
Ag 10.301587996032616 14.460162986941954 17.572258245329312
Ag 13.3979387767692 15.247877406237517 13.877677217714961
Ag 8.906954269650853 13.013113573225823 15.638519431507273
Ag 11.414576393712794 15.221908661048529 6.955024463129733
Ag 9.342564240804041 14.09538207998071 8.582771259732233
Ag 12.903519138904196 14.008078408213121 16.425424942318163
Ag 15.696421706318704 14.483302938461707 12.391481008965393
Ag 8.324218857857097 12.65172777878077 10.732413125188412
Ag 11.667216350535158 12.599249445940803 14.336429816895729
Ag 16.22842106953218 15.803133660792879 9.789180637375825
Ag 13.062499333237923 13.221770267927603 11.913364960176443
Ag 14.676958521429714 12.788345891410428 14.396681711782666
Ag 11.050706188534177 11.823242816195803 17.04539935528737
Ag 13.838121023465986 15.742291083226336 8.229888150782788
Ag 8.271996642093166 11.323885112740891 13.340123921973527
Ag 17.468838859748093 13.355050287684403 10.663997302338737
Ag 17.319538175272477 12.36011550964146 13.360702915472102
Ag 9.087128167632532 10.194809640982202 15.75896442851717
Ag 13.763958306630839 11.297200764730574 16.640271722997756
Ag 12.063311357026556 13.510587263346165 9.179806491655125
Ag 10.723543506370772 11.660762623455625 11.876426890848908
Ag 13.11703288016935 10.555477693386282 13.014740204449229
Ag 14.81912438039965 13.460156845672307 9.568828564442649
Ag 11.77687347731178 9.58262198098536 15.510482274871066
Ag 9.614238110131522 8.342085562043543 8.945738264245778
Ag 8.65404935655881 9.790592137055588 11.044448437303048
Ag 15.455588197517642 11.517394567231882 11.428634237648172
Ag 16.392182012645627 11.014189644051152 15.686442115532508
Ag 10.029346598347164 9.093806994980612 13.399329535000327
Ag 16.269952134567728 9.684390982890598 13.224654623285915
Ag 10.334822157431946 11.072031945874526 9.15634011337572
Ag 13.114984744242198 11.078296201979514 10.005314164861433
Ag 14.437021653575297 9.048530560604732 15.175160839023079
Ag 11.480459206262363 8.96226010865683 10.90058620827368
Ag 14.35405751389183 8.77798891801093 11.2834861291597
Ag 12.547379217776369 7.809045183216904 13.42647989113013
Ag 12.700488412860828 6.501094520981333 11.02561645273901
Ag 10.763736714954508 12.524635913421143 6.858037520736358
