14
Energy = -25.87359283 eV
Ag 13.01689321155462 8.116498918300753 11.120990908206434
Ag 10.241444480066177 6.89964347216845 11.188088867044279
Ag 12.930930401063975 10.752534302052256 10.539563969956856
Ag 11.024096195235366 8.810788726370335 9.351203484515473
Ag 12.655531389664102 13.295805881470216 9.549208562926605
Ag 10.807441590523592 9.589121079451267 12.062072553340847
Ag 8.256192439935427 8.383082175986345 10.121580614965962
Ag 11.235624412385837 11.325544565976527 8.239959567900105
Ag 10.61336223706634 12.139966262093614 11.049832092642914
Ag 9.369024092161832 9.32311133858918 7.220413526069634
Ag 6.739721260753851 9.054391174232281 7.905828486693343
Ag 8.56499943403335 10.995828807969936 9.206048154203831
Ag 6.131294559491139 10.293329800755442 10.37457392043877
Ag 8.33546559195473 10.809154125682316 11.934343338916506
