24
Energy = -48.00225581 eV
Ag 8.963530044869316 10.353961061042904 12.670495487766978
Ag 8.057125878135432 8.058311680841744 11.371784735434968
Ag 8.514257097239168 8.34854651959342 8.613826310202782
Ag 12.845142136438572 13.007388399026496 12.745080418392915
Ag 7.702286156036149 12.694214536056084 11.805753820153296
Ag 11.64073969475271 10.519348071494182 13.13013112135752
Ag 9.713258027747079 6.31728485691768 10.033185933569177
Ag 11.651967909804796 15.038471124840594 11.315655973235152
Ag 10.555502169464004 12.092391145708946 10.819564313652204
Ag 8.140306368905554 12.987717135922072 9.046415827246836
Ag 10.485268296553253 7.779850935384126 12.809303616616118
Ag 11.29880229945935 8.306430866675178 8.046667145501733
Ag 9.72456947303127 10.835881589517001 8.240399808110556
Ag 13.684794076384355 8.677692234476414 9.549235752191004
Ag 10.873773123660472 13.61869606043886 8.599606879280758
Ag 7.648966185251995 10.494198084927197 10.136902533018938
Ag 12.39336191195982 11.00613950998725 8.735643733589614
Ag 9.049972255052559 14.886326247794964 10.815178770335281
Ag 12.31316431983137 6.490008675292436 10.516271019205128
Ag 13.738397745908 10.86359102358119 11.244243003707892
Ag 10.792889609199126 9.255889373984617 10.546824194610114
Ag 10.070698070696382 13.088739441382621 13.29737533699565
Ag 13.217538140462823 8.366557023306495 12.302559200185756
Ag 13.326082282943382 13.299393008347836 9.99870903404494
