10
Energy = -68.74634572 eV
V 10.4842507300277 11.4922125223816 8.825763872811521
V 9.480441899504772 9.968150086070821 10.620662621153333
V 8.835898055921353 11.977258198436822 10.828145009274591
V 12.608920541040995 11.190360332664477 12.880405079781136
V 10.079645417383228 10.847541975079789 12.81391613992312
V 13.223478120717967 12.102038097535631 11.465942217861242
V 10.77567425085786 12.436743507563225 11.111485823559878
V 12.22310135674629 11.805811091011918 9.095297289271663
V 11.133209140815417 9.058471057613435 12.412397044934034
V 11.895450533493436 10.017565817189986 10.804250415408896
