10
Energy = -67.45863983 eV
V 8.607203599895731 11.394038679309752 12.950630068660901
V 8.117386950455781 11.828853239676821 11.23245428965525
V 9.517364517615334 11.433870451914975 9.51213793626476
V 10.691729866504753 11.925478630790536 11.636023099034112
V 11.380086782376525 10.753177227450475 8.031404518025184
V 12.030057769176215 11.597475398884255 9.769383985263499
V 9.907735773643942 9.968351981287402 11.207079542707666
V 11.322065478288073 9.232561457502076 9.087720907281136
V 12.52361300700845 9.820671359279807 11.320738567270636
V 11.742446402663647 8.194774007311873 11.346341499976441
