10
Energy = -68.0855987 eV
V 8.691486986073732 13.583560880303924 10.880932963197774
V 12.097446518293735 12.611835371804956 11.298380077332222
V 10.731830025877068 13.129512190523535 9.702434327983223
V 11.762559736727274 10.734170603120536 10.116668334839652
V 12.800199104718125 8.427323343537942 10.944168286365752
V 11.103951913272402 8.644885677850796 11.538376067258081
V 9.708799961350419 11.248521300623706 10.625496250969702
V 12.698921839703212 10.362912502884672 12.497092987116508
V 9.965187818592419 13.372007215856193 12.15818559799779
V 10.824012960097523 10.826980705290778 12.668909906768471
