10
Energy = -68.85780965 eV
V 10.490423209584135 10.110174548472353 10.192200037998827
V 7.606830692912648 7.993243378311598 7.907489298636092
V 7.910984950593804 10.342507042623799 7.581795136602896
V 10.099609643174485 8.221462535005534 8.432673743247053
V 9.468004583443584 9.112220791143852 6.675558717965272
V 8.635966013715134 8.986124257085537 11.423396396303952
V 8.00078003613214 9.878335107128285 9.66969631188432
V 7.989551827178808 7.323727934674366 9.680528042929474
V 10.110046305257239 10.777513442908676 8.42167394493878
V 10.189662633925465 7.756550858563593 10.516848265410932
