10
Energy = -68.17739747 eV
V 10.092208059082784 8.434311515526039 8.527623412336373
V 8.595141629491195 8.978585849456788 6.3097577064734285
V 11.409179456397615 8.04881537411776 10.885868221067888
V 9.830827847877282 9.459725762215461 12.137469163438357
V 9.191101888280999 7.913199305390602 10.660680182680698
V 10.705631028018662 10.039979022234343 10.156611389074325
V 7.03247204059777 10.398309026108246 7.562585277405553
V 7.735680051497049 8.39880417296513 8.288460952196795
V 9.252453543226286 10.521935527405022 7.783014182839459
V 8.350865820526645 10.004153113015544 9.915283182007412
