10
Energy = -65.34705723 eV
V 16.209946881173604 13.164447401662603 14.128978999082337
V 14.259829605761553 12.717394595680366 14.402054151578668
V 15.235007305168297 11.48166765062979 12.529141093085737
V 16.489313598945614 15.069093539419976 12.878024917823911
V 5.1144551325420275 12.990778085920388 13.719477771537187
V 16.984093069892186 12.426761649816982 12.084544035782715
V 14.569788381424802 14.98973559877282 13.57552690081057
V 15.200394848312618 13.761719178860195 11.47139475676599
V 13.47601960977785 13.18582341980611 12.316822606081322
V 4.2912858163207215 11.477606575915203 13.821672939343859
