10
Energy = -67.86718078 eV
V 8.497398393675558 13.378149702667665 11.83063763842967
V 12.229316375084702 9.884923741462158 11.424275486720635
V 12.940833973028742 9.492058757086358 9.087730225884982
V 9.928001042983071 13.387663404271656 10.682030157103926
V 10.455193292844292 9.485685938207968 9.267996194905356
V 10.052081564107434 11.374052926526419 12.369452615046905
V 8.791079997030806 11.018763891368216 10.848223336842555
V 12.265767365055272 7.905119500564032 9.894330696838038
V 11.194364792180751 11.391270034581488 10.133503714271251
V 10.276526960494085 8.988183913228438 11.376785047378393
