11
Energy = -76.67929818 eV
V 9.656973538330176 8.122445195361175 6.658880219556825
V 7.566090214974455 8.627526415215296 5.771442451095589
V 7.588305582380955 6.696575232517854 6.928333741687127
V 8.256249474199949 10.125797849149368 7.279901485973639
V 6.229004150765018 8.691883657075355 7.663910077210786
V 9.231109313222255 6.914231204321043 8.531057135210535
V 10.036535082029351 9.372543246376184 8.38868483135149
V 7.609494082679117 9.313714900741255 9.330485600879618
V 6.667983813391618 6.925864641819909 8.908826887899448
V 9.620228233342296 8.456587981117485 10.416771096954081
V 8.065080883511307 7.279884045131575 10.648760841007656
