11
Energy = -75.44348339 eV
V 7.771630720255285 8.384143509445305 5.469938237924559
V 5.969520467156772 8.93645667914006 6.081145220893489
V 7.9456457553705775 9.655175542657089 7.635173932013148
V 9.284356856858988 7.803863209570678 7.271901219084769
V 7.120035209420235 7.0714188782392995 7.515646553244157
V 10.675716997193696 7.294317293812441 9.081225660754239
V 8.718406595439351 6.052609062403398 9.126821291175155
V 5.560067925562828 8.971908827108342 8.038359812309649
V 9.790228187400837 9.429426840180879 9.252196268249365
V 7.435031004839202 8.30847670552125 9.431714376849751
V 9.310289892761583 7.6731330641799005 10.67680703976095
