11
Energy = -75.43467502 eV
V 7.550464600465571 8.039984785929862 7.902240411134683
V 8.398842628395569 10.346151092629107 9.79869368098214
V 9.599824511476667 7.4948394859533165 6.871421117248747
V 8.28541487924528 7.767457285241001 10.417895150849057
V 9.159398097138206 10.029522158454883 7.286215219477817
V 10.158416647178159 9.308382617872814 10.87613314058598
V 9.168363646506343 6.407753754853643 8.366974284163462
V 7.20347892593001 10.253390179952202 7.826943496017723
V 10.477645839502255 8.320826662446624 8.920948726610808
V 6.657565641354685 8.799535177321681 9.825093940775425
V 10.625640582807506 10.517212682850573 9.192496832154312
