11
Energy = -76.38086934 eV
V 11.243168787863441 10.482911084044893 9.072487697489226
V 10.85528535624567 8.632140341066616 7.265704753448092
V 10.587217111652656 8.20614670635329 9.740270773392885
V 9.292809301771408 9.624011219453129 10.621239564914823
V 9.30563469733854 8.968968324925072 6.360005832208151
V 9.452417591443766 10.530585080257378 8.215126253621778
V 7.813793203677646 7.555146050603998 10.99547739520607
V 8.751090661270796 7.864606100642279 8.620280351539275
V 7.345048489595997 9.839632213255825 9.721183111415664
V 7.077168096309824 9.086869202673517 7.827153487264117
V 6.483812346955683 7.414561455937207 9.795740087962464
