11
Energy = -75.70754456 eV
V 12.043688318235297 13.622853443686802 10.901807740914064
V 10.211259297657955 9.587535219568949 8.046894660010572
V 11.594071579757271 9.324347415979382 10.012447392719666
V 10.300930964232244 12.29064554724599 11.978981667835884
V 12.737308861216142 12.087898572362826 11.53184252771279
V 10.162593249103129 8.324165975069093 11.399829238268204
V 11.359743736709492 11.424222587892613 9.55111293812985
V 8.48099825048468 9.660714463846846 11.439955827289634
V 9.256560065707097 8.480630284387116 9.189712261708932
V 9.22950112091594 10.90863616937829 10.008017324104449
V 10.857728539544492 10.522734304146153 12.173782404870233
