12
Energy = -83.60189933 eV
V 8.177573928406897 10.527377627152006 5.695315272389316
V 7.647097988296638 8.75940528842464 5.542806692299526
V 9.814276974246866 9.158342346887453 6.815711934313836
V 7.141849157718232 9.694617442800409 7.813978215900354
V 6.511758743920448 7.812970815214073 7.824739031009346
V 8.883363949202987 7.576572931714671 7.410441201474161
V 10.266751532418576 7.991741438458257 9.514273122770646
V 8.585611256668882 6.498558002168083 9.73386122404364
V 9.26333852219945 9.92568467941137 9.125330993084164
V 7.813008995244056 8.443266495392765 10.005150024038016
V 9.3615654546825 7.503319265029431 11.939357449583401
V 9.66703826647468 9.241378436826913 11.712269608573536
