12
Energy = -81.74465437 eV
V 11.887287630262009 11.021468008795392 11.950706425579211
V 10.183700567724905 9.195297839353534 10.311260574990941
V 10.095240178836685 12.536978591825942 11.450491799142325
V 12.66543368784781 8.896006431862345 10.754659827610807
V 9.309386819353024 10.609686705509999 12.287085461138082
V 13.233240714286252 11.084372057209103 10.157690527554863
V 11.008289409381717 8.868674066395801 12.347113623504615
V 9.963370507831119 10.208854774498109 8.35254852884529
V 11.200198522376901 11.869991099250187 9.478502111400754
V 12.150863806537402 9.589960692522629 8.762306133780088
V 7.482502787991015 12.406873016697904 12.052350417337786
V 8.72141526615449 11.318903505215603 10.12246347178593
