12
Energy = -84.04072172 eV
V 8.417015719371369 7.0928216045465025 7.032687362941651
V 6.068999354956211 7.325437365222158 7.349180246978423
V 9.058416873385722 9.435860351047817 7.424263190340179
V 10.91833415738874 7.698245433821253 6.6961414352369735
V 6.969748500829766 9.214730010816933 6.875369562459801
V 11.52493384412555 8.761060564514358 8.024102233212727
V 7.17562607237124 6.563089377743876 9.2446843465331
V 5.817975779348999 8.69765450258632 9.048844826637158
V 9.525834147738804 7.323288001042813 8.896724063445811
V 7.24900200106572 10.181107664903598 9.078376561314503
V 9.40667974437239 9.430834910713019 9.649024357573397
V 7.673462372803121 8.081898780799428 10.486630381084057
