12
Energy = -83.36891805 eV
V 9.263629906921675 10.32170066974492 11.243628524614941
V 11.30702639432248 9.462075548310791 10.095741923454808
V 10.154739633313037 8.23960445925817 11.830599463274519
V 9.561040450727585 10.515568550433512 8.774877744471041
V 7.748357780251936 8.889344031927786 11.62892532048348
V 7.390471720851356 9.927045137315144 9.39475298644587
V 8.996071130349481 8.002228690988654 9.778240315066261
V 7.793306585224304 11.009019867650146 7.035738468158287
V 11.340642680901816 7.382590429136063 9.782151598304795
V 10.436340835150308 8.607996808168474 7.786787415321905
V 8.071797195690973 8.55431268353493 7.690330491371988
V 9.243578017732485 10.305303910379154 6.232932235732797
