12
Energy = -83.1041711 eV
V 13.189697026008286 11.0121925839512 10.768419482465468
V 11.29788565408656 12.429776533881792 13.808142504606765
V 10.119804333398347 13.42640006761101 10.366767211804284
V 11.591591870198993 10.64740545046342 12.594896231132804
V 11.860417617200067 13.567309810348776 11.645766469329537
V 12.677996273820467 10.491032343818084 14.837514149134421
V 11.968598911007549 12.599192378188674 9.228839971370004
V 9.679438445443253 12.214159983711612 11.984588248939874
V 13.911443785145664 12.888438897275604 10.490028075317467
V 10.8172275344559 11.094548493907874 10.198338143372458
V 13.475342391214935 12.08533432208182 12.900208724672854
V 13.28080534426105 12.049448172994468 15.533708946284218
