13
Energy = -90.82760281 eV
V 11.176174220337732 9.488850279791 8.05803122446276
V 9.423527405662735 8.616607803499173 7.315872232431676
V 9.061600898925747 10.845349295053488 7.8073507569068985
V 10.630721444245607 11.421741395066638 9.387422710216088
V 10.226133205068459 7.6210028089166295 9.468113226218195
V 8.426487016143854 8.830234382780018 9.330221166549348
V 12.142902716781125 11.555845218530852 11.361992460537051
V 8.503201529321903 11.01716743813745 10.225769380574237
V 11.893071996743199 9.204595739471657 10.267205065584855
V 10.080418152278227 9.577509202001261 11.162489574127154
V 10.068847228496612 12.34810548734615 11.831319509214339
V 11.404986815785502 10.642629918583744 12.987494377000385
V 9.134405504853783 11.002839165466542 12.969196450821357
