13
Energy = -89.98474607 eV
V 10.947816733258808 11.187530249611152 8.927468981455679
V 11.040337536982529 8.97128356762589 7.914545044041965
V 9.241398368609277 12.905439511057354 9.067671162442954
V 8.33723537697234 11.076884908962006 10.217474796686774
V 8.998011788676546 10.291484064384363 8.15532679197968
V 12.692756678044358 10.010145834551704 10.372763301729657
V 10.543642867650062 11.608255961706503 11.250897011391622
V 10.276837547181742 9.187211006231513 10.233008054210053
V 12.816921352529544 11.670990146595539 12.231327158813611
V 7.946638730669456 8.85757609419971 9.903824256487887
V 12.063870506710003 9.310989096774907 12.049502635904798
V 9.529371981635794 9.968130187035396 12.214850064933922
V 11.644129265265883 11.09723259366294 13.573815326902823
