13
Energy = -91.48318871 eV
V 13.087718987769007 9.945877176968775 10.474143442349865
V 13.119217905613814 8.86714825493027 9.055713798595074
V 11.414745105833555 10.803795459435097 8.660143007522432
V 10.71866769632244 11.127878209784726 10.640031357541451
V 10.799763941234017 8.767568492852217 10.221031403505254
V 10.71228952191676 8.90469491165876 7.87943306814602
V 8.969300204037022 10.282973842720924 9.052925250081751
V 8.80468076776339 7.74097131165698 9.297869462212308
V 8.834755210136237 9.484679918435207 11.484810650022562
V 7.69711506031764 11.075565374650084 10.866557183195583
V 7.657108256699674 8.700651675906927 7.905303284601337
V 6.31509489471402 10.307501487752393 9.07702853201709
V 6.837495011472139 8.813965042937399 10.2610577213945
