13
Energy = -91.76234182 eV
V 14.590905250460247 11.38400267032902 13.99123031822928
V 10.758507261101766 13.320609315387834 9.97944713762717
V 12.768481939849265 12.724179436369258 13.07180385281285
V 10.730844318240553 11.3008182270326 13.05874433342515
V 10.54816855224562 9.756841307296355 11.016146025476859
V 13.438004323965718 13.298867373277186 11.097202039016096
V 15.368882968383584 12.502775740017757 12.775780196692525
V 9.79254127703941 10.935891436759219 9.635807984049276
V 14.204050164356659 10.733852210123434 11.609307917458123
V 12.740468156531746 10.03747529441121 12.787317821250927
V 12.047746813064101 11.568915730436627 10.819541979028337
V 10.971311295611276 13.72503749947493 11.917333101184493
V 9.330885339433095 11.859954682243368 11.55400376140608
