13
Energy = -90.954273 eV
V 8.37437922435857 11.557918703755972 9.809365514295886
V 8.3743725436769 6.2262159365263745 9.809366627742872
V 8.115332597822349 8.89207010375858 9.584240887967367
V 10.023567490244051 7.5551158780082135 8.499604789319411
V 10.023570830584887 10.229009854698617 8.49959810863774
V 7.264974972722537 7.468445057342208 7.9980447769677445
V 7.264980539957222 10.315690696387007 7.998051457649418
V 9.352722298233559 7.322392032604598 10.966183151975367
V 9.352726752021256 10.461711431163485 10.96617758474068
V 8.724370938002192 8.892071217205443 6.9070526165597474
V 8.905659348425003 11.639149543828575 7.231657981102579
V 8.905656008084167 6.144988436794606 7.231651300420907
V 10.914511842420133 8.892046721372727 10.095830929513866
