13
Energy = -90.2304406 eV
V 12.820322554036629 9.313852573962745 7.969727522190353
V 10.55235193571329 10.789915243215855 11.403536883313098
V 12.858964275823755 12.013067010476677 10.898198687757706
V 10.995123153128835 13.01684528833579 12.057190515737927
V 12.379363753595433 10.986518270139568 13.027883941133457
V 10.439987655261213 11.850600630406584 14.085734584373817
V 10.634867475579266 10.063728767229113 8.734931781947862
V 10.778826741086156 13.976674879829767 14.575551972915607
V 12.934602929138121 11.104700933180878 8.249396583113457
V 10.956042059106487 11.976289261210171 9.417158748046509
V 12.707046054112805 13.181522637210014 13.590611409715839
V 12.139717779155765 12.123389092007457 15.488066721855704
V 12.325934856161558 9.834423142458029 10.441143242007712
