13
Energy = -91.01220411 eV
V 8.447070711723475 6.766232594328072 10.696023511657907
V 10.055712848380317 7.023556087573037 9.367481059069275
V 9.79632505389752 8.915663211603997 10.309545318370652
V 7.86996071577591 6.629887123597613 8.063267978743548
V 7.648576205125604 8.54281778694834 9.499357127057944
V 9.799055190976574 6.496663178682149 6.654676272669452
V 8.577728506567762 10.764354145360622 8.49658680477439
V 9.612215031426409 8.734768134346025 7.65142467798846
V 8.537929202990375 7.431926696541529 5.66148065823509
V 5.659394528516446 8.035609932625086 8.09913157594134
V 6.748783403583283 10.654908458225888 8.435205587010646
V 7.531057280908696 9.186108905177345 6.764519610319277
V 6.029231525699199 7.131555528382631 6.58393509065644
