14
Energy = -98.83544832 eV
V 5.972667890160055 5.460750789372689 10.15069299228777
V 6.831844604537664 7.802432118663696 10.036560566721441
V 10.01011611749116 9.436286102797132 7.248919569503419
V 7.971786132447807 8.038076453830895 6.209839040725227
V 7.747297264261396 5.334516159933299 9.837024676883612
V 8.5790148524848 5.763828224055996 7.368829591974677
V 8.129344811669492 10.575679261198065 5.787821675715188
V 4.985997417077916 7.485513713043975 9.541659794684474
V 6.3862548068267095 8.697252289587011 7.720596918067127
V 8.169924924851221 9.850513382190922 8.23323029060889
V 8.795751191249579 7.53561153319723 8.656147878960223
V 6.606006886906121 6.282214937588737 7.736978881754509
V 10.057078801085412 7.572031010362521 6.276956464093849
V 9.317864967680842 9.726244692908283 4.75569232675004
