14
Energy = -97.14486041 eV
V 12.757307395963583 9.750881678816869 8.908777633357154
V 11.045726072750206 11.85168641260449 10.082067019313863
V 9.752819551652722 12.556311511604342 8.740275485311713
V 10.155108956140879 9.92875533304049 8.818146359795637
V 11.96670549798388 8.651060059303202 7.719526944187074
V 11.86332618646106 9.735447462514843 11.1527469058766
V 9.173930139803277 12.716240567609878 11.171562788203405
V 11.092181163397651 8.039955276097595 10.114412680371831
V 9.50943830213789 10.004550654107526 11.394480001748805
V 7.591224133992476 9.395659383085288 8.253682744393208
V 8.233909461748787 11.106228711691005 9.740480769055472
V 10.28553022051501 7.929282623482945 12.280330087283398
V 8.56769897852857 8.177899229631507 10.01775396631094
V 7.074523570246972 9.297727580182219 10.75219590507404
