14
Energy = -99.28191023 eV
V 8.823830426199798 11.778681980241936 10.3332345581069
V 8.132841009111315 9.254236852791674 6.732982222392994
V 9.809423589818104 7.77219189975092 7.7282659806174685
V 8.719764372064253 11.523240161802368 7.865376009718896
V 10.29573487767545 10.337482625512813 7.44231449581807
V 7.953498059074941 7.4121268011969015 8.540908251770679
V 8.294687028884958 7.829536277944825 11.203378210287136
V 9.919831105792627 7.149006839685562 10.160161882694302
V 10.916127969939378 7.711397054304214 12.267114858679358
V 6.735966682048416 9.713988269851491 8.02970972349989
V 8.681148502049485 9.521525174242988 9.423096777736838
V 10.071071358398255 9.665194130128816 11.328349900240417
V 11.302907124813153 9.110859400131524 9.643184190547013
V 10.62484378825744 11.502208532413702 9.58359888495391
