14
Energy = -97.80212793 eV
V 8.08215216384941 10.829014381965937 9.768731689017756
V 11.926665567905875 10.451833399804704 12.534877503267962
V 10.237488566206245 9.378584168760227 10.510836398522432
V 11.58220930172211 12.71563782233513 11.106597492945257
V 15.095670030286563 12.557573698960756 13.637247125165102
V 8.118738901908952 9.100093654931335 9.268767379403691
V 9.80212121139264 10.256323989670905 8.087027988236281
V 10.095354754821646 11.923015756871578 8.93604309714019
V 9.947879822056061 11.623709531247266 11.55835803751935
V 11.813652182311301 10.403197384169088 10.063418647923031
V 13.076288452116119 13.819372323677163 13.245167086195698
V 11.601575092508106 12.722348588770252 13.614343890495096
V 13.544983993517402 11.459221612251751 11.944073403636937
V 13.730050726134897 11.689254032203293 14.433979972768814
