14
Energy = -98.64708647 eV
V 15.078355117755452 11.822923426644593 12.588204199310157
V 11.315181555978274 12.4289254001929 11.688143411195252
V 10.397271364363858 13.40316932731915 13.819607333790367
V 12.815646044138086 10.84822827425887 12.60990674299356
V 12.868939879173908 12.769089073315554 13.694583679932371
V 11.698288251910949 12.324988800517573 9.252448320674468
V 9.08641175295539 11.753669798805344 12.383284872558422
V 11.569771056642479 10.052551989086249 10.241299089129633
V 9.816077837741354 11.03156040539393 10.08710670643252
V 10.265609148696756 10.071790462065545 12.390319330427557
V 15.315479730633413 13.559450940846707 12.964868748457551
V 13.464247275111301 11.37123614277984 10.243443308158549
V 13.426896697321295 13.322613455725957 11.272060713501636
V 10.737248468267655 11.536829374212429 14.25943218457739
