14
Energy = -97.83038764 eV
V 10.833854890356273 7.276485529740497 8.518459012473045
V 9.586373514430846 8.650640178151868 6.808685520447527
V 7.880482253318615 8.879275321230377 7.0319079991163385
V 11.046574033506579 7.618389183689209 10.204904622422509
V 10.895735890513478 12.263452537619582 9.220118075664576
V 9.013202085205023 11.031948165372713 7.923981583617134
V 8.882611498258672 8.756380448771981 9.360440332006071
V 11.034396698977256 9.93330115802043 8.64588130525946
V 6.746122802645491 10.233410612467594 8.937745953940041
V 9.057583366085728 11.043759475100302 10.134171042214062
V 11.154532065901401 10.076119701191573 10.820307201000002
V 9.102920747031023 8.957145931976479 12.035869438559661
V 10.680673049140408 8.633000229885658 12.643768069614186
V 6.917465843806971 9.526020438693207 10.536923444881902
