14
Energy = -100.07010084 eV
V 11.156003768789743 7.736127232360091 8.258002055750843
V 10.416387059753697 7.75821337629423 10.714583375916687
V 10.907248916219661 10.218679834756742 7.690050941038914
V 9.428045089312391 8.68797158691673 7.006016182191272
V 12.065281580628941 9.141984694766302 9.490346783717884
V 9.202831357623158 9.390165319653008 9.256510116796282
V 10.67471732514385 10.614162906111806 10.535697578585099
V 8.035087464535343 11.56364550983776 10.488035885574893
V 9.65778430385393 12.04290443915151 8.865060755283034
V 9.224316869950513 6.85844762980708 9.216865246794649
V 8.209217845979165 11.009309136654153 7.941857267148303
V 8.762871513864575 9.47574077405504 11.847163342994607
V 7.857027824331952 7.95956120928036 10.99136890251031
V 6.905122080013185 10.045029292107786 10.20038450744983
