14
Energy = -97.76020164 eV
V 11.246871539841559 7.275084450889612 8.469674743577428
V 9.950788165855952 9.277604150311335 8.220806580256895
V 10.498306652953291 11.293240130186723 9.289154189445457
V 11.88273223515874 9.320436567881261 10.03171358517319
V 10.463813181467668 7.516995204342975 10.372076320024435
V 8.551719502472608 12.133159745446308 8.133961081240443
V 12.594990422533648 10.127002503214763 12.353098482430287
V 11.390654083392329 8.86158669935256 12.481316050747452
V 8.626953357308322 7.881090450974147 8.987827692876383
V 9.494237487845488 13.332267808815867 10.185020469802723
V 10.417188897125298 11.16989211453003 11.551539246556011
V 9.198557811817963 9.586872961980353 10.79822463543129
V 8.138009535892165 11.996196671362744 10.626545168626695
V 7.78619539493061 10.520098372759996 8.792761925215073
