15
Energy = -105.24282105 eV
V 13.93724202367511 11.200821698232964 10.706855760123743
V 15.770255283020447 11.688104301037798 12.154741355739512
V 9.960636223780856 10.196578927846803 11.087214971558785
V 11.754886138153132 11.838922449514213 9.831710068475005
V 11.835009209766778 10.478725421565574 12.078856330520873
V 14.874989978242242 13.258698355012125 12.001221125311108
V 13.467821421799917 13.237268106537288 9.893297734717896
V 11.372199132185305 14.25492371646726 10.536120559781192
V 9.789609384979025 10.494948688085215 13.641625372590532
V 8.327387341057065 11.430308813602393 12.918358416796579
V 10.026564561674892 12.35930413121706 11.364781519030679
V 12.387867762880717 12.969364871903501 12.24524234133866
V 13.616073607279388 11.335418338050507 13.352870266192289
V 11.709508977616625 11.973922816266068 14.493703978349147
V 10.271743980232634 12.992741927026032 13.77554166295324
