15
Energy = -106.96945898 eV
V 9.346715710454376 10.188929040516543 12.01317214915036
V 8.657588982944858 7.877459752042096 11.853754513837877
V 11.0146258959097 8.256555936026395 10.932659257905831
V 9.257892323481531 9.360536058218774 9.852127289196925
V 8.491153965022162 11.638138356605566 9.92434305800401
V 11.00866202767113 10.773603201500553 9.299524879455163
V 7.235140566783449 9.9226038677164 11.33554901300333
V 9.307106467383644 10.731412596981185 7.68182684104684
V 11.6222440149509 10.557768993460439 6.791544141364742
V 9.762212318119117 6.92509493897265 9.768486868556193
V 7.134034304817516 10.066011050143073 8.888680166421945
V 11.03807873633437 8.604492778824579 8.237475023512703
V 7.351736853430114 7.807562336338851 10.105451057573239
V 10.384288619124925 9.348492616850105 5.952273573520697
V 8.782920479134388 8.287655901634308 7.731455309137585
