15
Energy = -108.44844169 eV
V 7.791124169585994 7.9549103862471995 5.7759852735198995
V 8.075560018474253 9.95547943604752 6.368542858312595
V 10.229321845202652 8.095538885350852 7.107358338096626
V 5.880607501160895 8.952044230414105 7.087780493753158
V 8.154056513000546 8.246962015727183 8.249698572453816
V 9.997839994552185 10.139616839481238 7.864012091105066
V 6.298481086505384 6.66929892491594 7.1678806356931215
V 8.629567034210487 5.972111238445743 7.284316405154843
V 7.483356357131084 10.379094890794791 8.662167585724578
V 7.003140310382602 6.051078340236866 9.182871285183754
V 9.455175227882748 6.256080998994397 9.245626122857086
V 10.603342534505412 8.315740463261154 9.418248580485248
V 5.9798550544304705 8.237684630793646 9.209023826660058
V 9.339820259483185 9.989937886503053 10.045272470583336
V 8.270423455929187 7.97609219522325 10.522886822853758
