15
Energy = -106.04189444 eV
V 13.201189972033275 14.976897681943738 13.125233045657607
V 13.210969634892969 12.522771218387218 12.770958604876675
V 11.651529434157478 10.35974854484994 8.82130851112524
V 12.227749095157138 12.147483047024645 10.55837445750108
V 11.375392636990812 8.344741338434947 10.027061290519411
V 11.960020048509483 11.3313446120338 13.4063460247465
V 12.822211133699986 9.871700739524261 11.49555629097796
V 11.423783251304657 14.474735062645799 11.564656282054635
V 11.856868961927193 14.190455249537834 14.044368017012276
V 11.477306208534195 8.874896839711019 12.512337490005804
V 9.557606715482352 8.280839814967916 10.721853618081797
V 10.328076805353207 10.610831187338492 11.348105872059596
V 10.337702358649144 12.231204179542903 9.72980073506174
V 10.379389788974008 13.056463465258103 12.319459475081342
V 9.736384542116296 9.832077434305967 8.923133867160187
