15
Energy = -106.43760577 eV
V 9.438687907914375 7.83802320007621 9.309957972405863
V 10.468147470404494 10.35503224554921 6.555914576035109
V 7.242209333345335 8.671563900986525 8.503268439226131
V 9.84052505671381 8.039243674556777 11.819792433067668
V 11.987428612899338 10.839992028220353 8.54716294857479
V 10.905451768776972 12.352791308032174 8.061104029249163
V 9.980896970739597 9.893750766888706 12.498153012047325
V 7.637332961172151 8.956136485749896 12.541103799669495
V 7.40982858091939 7.797549782780433 11.09234499604217
V 8.320970701235415 8.445029240278695 7.0942932717768645
V 11.049823825399782 9.400831189740158 10.177610564048559
V 8.390256773823314 10.017512992082809 10.497769659475695
V 10.857948038289315 8.664117322616848 7.536108160311543
V 9.229619921359554 10.396095133036564 8.491633255177332
V 10.410673290551957 11.553184372291817 10.39773281362671
