15
Energy = -107.10508147 eV
V 7.03925986592559 8.035958327496052 6.259993707404386
V 5.972055855538989 8.87398160554175 7.735388887165316
V 10.616634896941752 8.2450842257473 8.81409274391183
V 7.110295264215032 6.627044234191366 8.743065848396059
V 9.07015743039498 7.757312038153272 10.324307584305279
V 6.970739959076139 8.921807687647414 10.001207540319283
V 9.099815497483503 10.179784173630836 9.97449720173309
V 9.305751953147057 9.356421345822842 6.033149764224093
V 10.599223652195795 5.8243748888807865 9.595723649165508
V 8.509432981098085 8.6394606489005 8.017028610788229
V 9.593342046330086 10.853043583780297 7.837304448439512
V 8.877755592654076 6.288305674753622 7.822707543039484
V 7.244571605067422 10.897128180090247 8.650685852319137
V 7.511403689986903 10.57009758642215 6.463192833338668
V 8.904158411955798 5.354794500952768 10.15225248746117
