15
Energy = -107.16891861 eV
V 12.71841964729244 10.49601097123023 11.50431256047491
V 12.13494159206017 9.249522724290289 9.744067961522196
V 12.217548909521122 12.089100751248434 9.516079828905331
V 12.176097475528756 12.976124265380335 12.083538801755948
V 11.122707552952765 8.962035568639122 12.143826471832982
V 12.164876736504668 10.972814334926191 13.745610278425604
V 10.93017461948726 10.098642913842083 8.135962988760184
V 10.44386747104208 12.536721485393002 8.850720548811063
V 10.7974322826483 13.559462243221972 11.0983879066682
V 9.930925844621221 8.5463847857936 9.785368205398386
V 10.465626618222807 11.335988075175267 12.993340921931784
V 8.917832059579718 10.367546051931074 8.448668468183852
V 10.253703931696371 10.944817858482649 10.621566230270728
V 8.954724771261946 9.153031167191836 12.001510898337859
V 8.060586498390126 10.212010808787156 10.529653691191696
