15
Energy = -105.5365148 eV
V 12.171711604088634 12.01646923903584 14.76044902576594
V 13.021647892763298 11.386915314342565 12.31157823813144
V 10.078440162221836 14.256917622710292 12.653008259753337
V 13.737226841349866 9.789510624553207 8.999639486551711
V 14.98087938444739 10.076001831225792 10.939680271464239
V 8.863586561464208 12.11754667807961 12.657863051475564
V 11.900258418104526 13.223651909136958 11.174345966839276
V 9.975357333632916 13.1800614737207 14.410000449973705
V 13.98555885430658 11.821088598641623 10.17378728609648
V 12.860859089293104 9.411372239286756 10.996772935516164
V 10.926632125077733 10.97223350671605 13.570848455090013
V 10.579544789768953 10.632206647926226 11.351744194858785
V 9.45314559861547 12.878373316872468 10.886572290204445
V 12.264582389442989 13.60679024524642 13.364991638047961
V 11.64498569030003 11.336857583510392 9.779985765246852
