15
Energy = -106.72683135 eV
V 11.72312847968683 8.203524800062468 8.644419677738641
V 10.879414806646542 8.639090927909315 10.86946860628837
V 10.849733606877447 12.340357355297146 12.989234779032584
V 12.781215022469777 9.497075615615659 9.099091477192893
V 9.643492858626589 10.385450294315337 12.641028367597322
V 11.737667543912147 10.852941256135322 11.039544402786882
V 13.049610584422387 13.012783696269251 12.161123983161312
V 10.250875729771362 10.315317429375266 8.922776754104378
V 13.096381939875217 11.064805974861669 13.093879582348574
V 11.52620664007542 9.916246041808705 13.445556960027089
V 13.396617820919403 12.072117506404949 9.836002710594254
V 11.733509915269138 12.133734164091669 8.773874698363041
V 9.054549726237545 9.907309985205853 10.524113098820722
V 11.570654319567128 13.551590569245205 10.829175590697083
V 9.725006989170103 12.25916740681701 10.711492598280996
