5
Energy = -25.58445613 eV
V 14.725417270973766 11.452602670315514 10.466594336162478
V 13.891393750680963 12.26681735238413 12.671704680969908
V 12.959938909274229 17.153256702213163 17.348887778767217
V 10.889747127854465 16.774517939983927 17.284697540384254
V 11.760581240767515 15.873697410543148 0.28746394714089807
