5
Energy = -30.08466682 eV
V 10.332558638258277 7.82530699187099 8.942316587828865
V 10.489671165516882 9.744977253968134 8.682319113325066
V 8.045948946765005 9.105971188031818 8.27846254160425
V 12.374152731592385 8.5694768078643 8.092787206926616
V 8.230480071866415 8.834432358501909 9.997390817413738
