5
Energy = -30.33259686 eV
V 9.037695455898497 8.112117020627505 9.549544128936388
V 8.361668998145902 6.9408466868001515 7.677367096076327
V 9.672421451107551 8.427930450381401 7.318124886600995
V 7.596023371968244 9.46510526334959 9.762313765335275
V 7.544064597468711 9.126776067397223 7.8027405715817855
