5
Energy = -29.72905491 eV
V 7.636258362149543 8.325704383421332 9.510124323115894
V 9.586636841930996 7.895181793810807 6.396785465462109
V 8.462161926899821 7.06293953962591 7.426442816259305
V 8.928331858395007 9.227514021041765 8.327758783135256
V 7.781089376359342 9.82690716444931 10.668532767979228
