5
Energy = -30.00373749 eV
V 5.307037134618151 6.048269472484725 5.036527078413455
V 7.501504366134028 5.194566189155276 4.9221635091996765
V 4.940464370779894 6.8865448104842955 6.557928385296181
V 7.2218462101293674 5.988886469812792 6.498593585635929
V 6.436160028149284 7.290647585768393 8.390081949928042
