5
Energy = -27.40306793 eV
V 11.510750977336652 11.377642562215767 16.301420772130793
V 13.179441718855259 11.068458395683633 7.090255014401404
V 11.570979365559737 13.137772181331735 15.09771722471957
V 11.822998782382948 11.35927577102415 6.06282168897962
V 10.68809515403469 11.798708138840308 14.393709176631683
