55
Energy = -415.79280485 eV
V 11.33317500662887 11.33317500662887 11.33317500662887
V 11.33317500662887 12.639866550459727 13.459927742227954
V 11.33317500662887 12.639866550459727 9.20642227102979
V 11.33317500662887 10.026483462797692 13.459927742227954
V 11.33317500662887 10.026483462797692 9.20642227102979
V 12.639866550459727 13.459927742227954 11.33317500662887
V 10.026483462797692 13.459927742227954 11.33317500662887
V 12.639866550459727 9.20642227102979 11.33317500662887
V 10.026483462797692 9.20642227102979 11.33317500662887
V 13.459927742227954 11.33317500662887 12.639866550459727
V 13.459927742227954 11.33317500662887 10.026483462797692
V 9.20642227102979 11.33317500662887 12.639866550459727
V 9.20642227102979 11.33317500662887 10.026483462797692
V 7.140099462477874 11.33317500662887 8.734927735744659
V 11.33317500662887 13.931422277513086 15.526250550779862
V 11.33317500662887 13.931422277513086 7.140099462477874
V 11.33317500662887 8.734927735744659 15.526250550779862
V 11.33317500662887 8.734927735744659 7.140099462477874
V 13.931422277513086 15.526250550779862 11.33317500662887
V 8.734927735744659 15.526250550779862 11.33317500662887
V 13.931422277513086 7.140099462477874 11.33317500662887
V 8.734927735744659 7.140099462477874 11.33317500662887
V 15.526250550779862 11.33317500662887 13.931422277513086
V 15.526250550779862 11.33317500662887 8.734927735744659
V 7.140099462477874 11.33317500662887 13.931422277513086
V 11.33317500662887 15.706856161070977 11.33317500662887
V 11.33317500662887 6.959493852186602 11.33317500662887
V 6.959493852186602 11.33317500662887 11.33317500662887
V 15.706856161070977 11.33317500662887 11.33317500662887
V 11.33317500662887 11.33317500662887 6.959493852186602
V 11.33317500662887 11.33317500662887 15.706856161070977
V 12.68441540039489 7.7962200641201544 13.515575875996463
V 9.98193461286285 7.7962200641201544 13.515575875996463
V 12.68441540039489 7.7962200641201544 9.150774137261276
V 9.98193461286285 7.7962200641201544 9.150774137261276
V 14.870129949137588 9.150774137261276 9.98193461286285
V 14.870129949137588 9.150774137261276 12.68441540039489
V 7.7962200641201544 9.150774137261276 9.98193461286285
V 7.7962200641201544 9.150774137261276 12.68441540039489
V 12.68441540039489 14.870129949137588 9.150774137261276
V 12.68441540039489 14.870129949137588 13.515575875996463
V 9.98193461286285 14.870129949137588 9.150774137261276
V 9.98193461286285 14.870129949137588 13.515575875996463
V 9.150774137261276 12.68441540039489 7.7962200641201544
V 13.515575875996463 12.68441540039489 7.7962200641201544
V 9.150774137261276 9.98193461286285 7.7962200641201544
V 13.515575875996463 9.98193461286285 7.7962200641201544
V 7.7962200641201544 13.515575875996463 12.68441540039489
V 7.7962200641201544 13.515575875996463 9.98193461286285
V 9.150774137261276 9.98193461286285 14.870129949137588
V 13.515575875996463 9.98193461286285 14.870129949137588
V 13.515575875996463 12.68441540039489 14.870129949137588
V 9.150774137261276 12.68441540039489 14.870129949137588
V 14.870129949137588 13.515575875996463 9.98193461286285
V 14.870129949137588 13.515575875996463 12.68441540039489
