55
Energy = -427.32171185 eV
V 9.163941438186631 12.024083917927419 11.145069806748465
V 17.575573690427493 14.436817681094151 12.910575524588305
V 14.6242861040613 10.957031369963447 15.312101545273231
V 11.407382186106434 8.821869209779903 12.849740458184108
V 15.54401578881737 13.783440636763167 14.338389214777887
V 12.08115775298027 11.291399133448438 16.82097294462526
V 13.708232401223865 12.781501537645825 10.65923663237438
V 12.67760186905084 15.221659310641265 16.463570346948313
V 14.890661652341304 10.655770993914613 12.512415341900525
V 11.283771253195262 12.804193750264258 12.307804176266535
V 11.473587732867541 12.658215776282105 9.747966367737309
V 12.404133126207578 10.940935780655744 14.278998379378333
V 8.90626874399576 13.987339082669209 15.270112260643733
V 8.836794107001396 12.994594352454293 13.716965078104822
V 9.988177711620795 11.411519461398997 15.775517986895641
V 13.297884930080432 16.875672153561723 10.666158351383311
V 10.576636696277452 16.350776204843353 10.640968495889972
V 16.940970028460278 15.484883099869958 10.681167818950994
V 11.53907649904186 16.98363630891287 12.91479907009296
V 13.294887896739976 8.818405882385354 13.699989919785025
V 14.885729588446036 14.959239634958013 12.214580378349408
V 13.103795347773827 9.201837133316308 16.24759661758747
V 11.228001466622725 9.131890891095306 15.558221398641788
V 12.752271905373938 14.883070057443017 13.895534907905537
V 16.48481092411649 11.742793843493919 13.642626156935124
V 16.04622235045692 12.961652749069039 11.359682597165557
V 10.69906146756336 15.795603190645219 15.239901720095549
V 13.589612371086561 13.139224815147807 15.7963099397442
V 13.831581560111932 12.67765287629348 13.162099614508646
V 14.324589803899594 11.803180418777018 17.924196182221948
V 10.985320316136338 13.615498363010989 17.053841044695556
V 11.292800718410954 13.134810462442484 14.797118656443136
V 18.055357003826195 13.154935159848065 14.921949854849764
V 16.70137775558946 16.28007674886222 13.268913922160163
V 15.79585118036911 17.00463196007662 10.848699862423386
V 15.268656162720031 14.263041302230276 17.237237993047184
V 14.727932831690978 15.894027603584078 15.121434350060065
V 13.938764908246794 16.99607817848408 12.974673376983825
V 12.406408302107675 14.814396263888732 9.09166697354346
V 12.52207404298398 10.768894261797623 11.722618998115822
V 12.683034922159964 17.303694277028793 15.104144119406707
V 12.703581366740018 10.660873581628799 9.227644306999167
V 10.146293500457766 10.784229619240634 13.430758852847312
V 16.281005070064293 12.61198480419655 16.502341321668272
V 14.685268764170443 10.781118345404474 9.826623845644054
V 14.680695129536883 14.94749804804937 9.627097408431553
V 13.083265398570589 13.180990088525586 18.368450125543927
V 13.881278652821168 12.891420715073425 8.164560989707535
V 12.497560687529498 14.83558775056745 11.456710835936747
V 17.3361860807317 14.898776433543755 15.551501370705314
V 15.752803402858902 12.934643491574594 8.880244510503626
V 10.2308359668346 15.044300227518475 13.067415291471052
V 10.220509481815064 10.605555860925248 10.810852079178224
V 13.414627308235378 8.831168157895888 11.06349249396003
V 9.977416763566902 14.611501152197015 10.556362294280252
