55
Energy = -428.42642343 eV
V 8.7395573867228 11.393884279599074 14.178656454567028
V 14.75043045637657 13.178296315947227 11.155531716162278
V 13.033459285194049 9.191358360023992 15.559335758764593
V 10.669681278695654 11.02320070821166 9.885363174642968
V 14.784019630351658 13.359520982806183 14.048285274398879
V 12.580758171479792 12.801550772446737 7.102316401330485
V 10.764854543905802 11.314346323700946 12.772517015677636
V 8.709187615724986 11.22081695319487 11.414538170702084
V 12.713342208751792 13.074670263765718 9.780580881632625
V 12.759110410067574 11.4824174123078 17.039634288838162
V 10.732884908259996 11.389037210793832 15.674555975662962
V 12.801188549354407 13.402147983879326 12.617438400984645
V 10.726108246524742 15.066343750232686 9.542343168991701
V 8.777381074514409 15.053663004142726 11.01402242153617
V 12.77687944482243 13.434855248685375 15.472942441302374
V 10.70290949331427 15.338591050018966 12.52005444197869
V 12.666080909445158 10.939804318569047 8.472166420943648
V 16.795890983824396 12.85429721799886 9.921332741666737
V 14.705103676121444 10.983982107814771 9.749310295817898
V 12.701512026531319 11.124311471549637 11.293760453427446
V 16.87039440680837 13.325965444320817 12.571737357535397
V 14.829431639000978 11.181600463511018 12.733711663484321
V 12.733379289145606 11.308828300565912 14.217835195684904
V 8.608465150780239 13.341496166498516 9.946959202328454
V 14.770677432755102 11.360643197700986 15.722008258185737
V 12.616410274864803 14.86017058162796 8.15668277530732
V 8.665084974687547 13.68639038572668 15.369821486864199
V 14.704722979959469 15.046640361458024 9.622398105080181
V 12.78820249465096 15.322524941967202 10.960681122527275
V 10.798356350195895 13.526253854009815 16.96349378358965
V 14.877158494656205 15.38424123911454 12.466622574556979
V 12.824101011658723 15.514468535081914 14.020053758418959
V 12.701173892164304 13.503521734854507 18.16614536248816
V 10.64409546174353 9.180341012427455 11.516755031647554
V 16.742469930284955 11.274065876688494 11.131739094307397
V 16.858731838573096 13.185694871370561 15.263754329336201
V 10.673853794170055 9.354520791888353 14.289304553638637
V 16.779174496631413 11.47006806205342 14.266137899521818
V 14.666968789348449 13.501548043103448 16.918102985134556
V 10.705466334091053 12.978652888716645 8.337799972917184
V 16.700595897851986 15.11710568371111 11.038965581327885
V 8.807769274135222 15.246746963536504 14.096284674657838
V 10.747420177970298 13.21739840648247 11.178937601995973
V 8.806586865422167 9.50609022060059 12.909243230662844
V 10.790969150093142 15.442621429725628 15.508231163111887
V 10.77858297460549 13.40341578009192 14.115435772469132
V 8.650062858605523 13.331282701331851 12.669847405442798
V 12.711040617259773 15.410308190642063 16.862670444520344
V 14.552503544310174 9.072276228841917 11.265052453183491
V 12.976315483464065 8.852895445045805 10.224497421413238
V 14.769522674626701 15.406593380116895 15.33312703804714
V 14.587289002272684 9.275755212055845 14.46393317320719
V 12.64207287650732 9.108882370451166 12.890591124321181
V 16.734530449081547 15.293513215191414 13.869342677461804
V 14.570748817640846 12.955052283798755 8.292079826593747
