55
Energy = -419.8411237 eV
V 9.499773994882421 11.297089539839316 11.651559236834256
V 13.47886177224923 15.878768381986752 15.598064828773635
V 14.679139982900306 15.367449338633259 12.045123857285178
V 11.105506444179056 14.698418812629972 15.082195644405799
V 11.935889490092677 16.932866380175756 10.830273522847614
V 8.721135388631943 14.29861379716557 13.903644301773475
V 14.542413666082757 11.565762028253776 8.946380892985427
V 13.341932837356286 11.635107152618861 13.215152292327765
V 12.03202887483422 12.11991746591927 15.343498117487865
V 15.511034022366676 9.927669835565593 9.200693360971622
V 13.037486412518943 9.159700900676858 12.369855878958527
V 11.086629513135206 10.380214772869964 16.454605338558583
V 9.92963354218413 12.948865025833243 10.600488247433434
V 17.07458731015242 9.673724990519355 11.360625384654288
V 13.131927794460726 9.428911639082438 15.082678881128606
V 12.215418317292885 11.569516503708998 11.196904205189659
V 14.488039718523503 11.939530512450961 15.328299312040363
V 10.687099507859276 12.844837186356827 13.226128861676463
V 10.973204241905686 9.247418121073189 11.253843852997578
V 9.387653395808417 11.216757141879102 14.826537286694116
V 14.616729368076104 9.62661785696512 16.135398105523397
V 14.2641514157164 13.144855344686102 10.762622929811927
V 10.632804293388634 8.466539970216317 14.522452695786924
V 9.523364162881075 16.27319106604555 10.189946921144653
V 10.735557909196752 15.12689794175885 9.438834546167731
V 13.39528271392701 14.177335744456816 16.328728288173817
V 13.127100473358208 13.991395042498237 13.66074633038801
V 14.56461554671716 8.36556181887336 10.725772235930817
V 17.441224596050283 10.878598567215743 12.674602847445172
V 10.561055275691452 8.408102922802035 16.333781309443335
V 15.28613532006715 9.925711043526755 13.639733863537417
V 11.221257935256322 10.402046958025945 13.495116098859068
V 9.770097153043107 12.992674464707145 15.862557085125502
V 16.557059117441476 11.78951030222833 15.020295370378683
V 15.571950872075067 12.776223056341834 12.933803367336514
V 16.83751557239639 12.277037112563244 10.502084901330981
V 16.63185570419698 14.135089123299247 10.695835793855624
V 14.871953008502853 16.540762837586897 13.564248475192603
V 12.32110522171181 14.287102983564433 11.234757415563278
V 16.938124452523162 16.37511686997481 15.293069793838683
V 17.148969521229933 15.288463066274588 12.899616582075048
V 15.525709568626588 14.286275871142436 14.777146726483627
V 11.92647805701716 12.487362050624252 9.180573326322135
V 14.875638844091586 10.848455672463219 11.424720637771669
V 10.57903897292167 10.715848446193831 9.430507667399088
V 17.938376188542737 14.9725407359747 15.33238331043678
V 10.285329974089393 16.682849528734472 14.439336037208564
V 8.448790125653383 15.653909878902038 15.308185229983561
V 8.245037098558287 16.48731940698586 12.751166726904414
V 8.620072049949474 18.069567005462268 13.568179927718674
V 13.064851235982065 9.518072712952018 9.787312348787347
V 12.372776261198107 16.27054893175746 13.201411904371904
V 10.481288777933568 15.080858114248997 12.252831247923961
V 17.87744744143462 13.546106973808966 12.997710483942452
V 10.663681358546915 17.782132865308526 11.899797978221576
