55
Energy = -424.4568048 eV
V 15.082559781423882 15.327316359663063 14.884026015207596
V 10.69702658616321 11.069131711713275 13.857948103278014
V 15.013375516933234 11.216254596715542 17.26629184425494
V 10.894230904909332 15.297905177054599 15.427665174171645
V 14.742528468872738 13.774722404302011 12.758357363809967
V 15.36732846728895 13.960449972654093 16.981568322801476
V 15.229779214609882 18.09471279120576 14.821029221006382
V 14.824387561089864 16.763055531808156 12.858823059967479
V 16.836256803675038 17.504042001434783 15.998397854996073
V 15.013779972487848 12.287588605534378 14.94906457317054
V 15.21646038391656 10.973524134450797 12.650472453028094
V 13.067356047061399 15.404564517778907 17.120560364040365
V 10.977278659755054 12.593121129019378 15.790354375931553
V 16.874541887359097 15.24696104806898 12.609947353301743
V 11.33824161332176 14.104736256940244 17.44541729120017
V 15.107459634263929 9.5883043843496 14.961985683719108
V 16.81557942661015 12.465972055143036 12.512054705870206
V 17.402521923499688 12.581639312381238 16.47376029300509
V 12.98240743389897 13.939578898918747 15.194062492024758
V 10.49468890600341 15.31130409874025 11.505694268134123
V 16.871819067881173 10.220033007690104 15.99563340863673
V 12.966442111851292 16.90698124838724 15.086566575523316
V 10.716594680211022 12.93757018691505 11.863700307209614
V 14.975030569532365 16.717663865192986 17.025192435224533
V 12.880028270214872 11.035461789896233 15.762098644637142
V 12.741956461024103 14.046795826077757 10.723934385825844
V 17.31380297747923 15.301968700675634 16.531831527654006
V 17.130046039350418 13.803158415816643 14.662606437434546
V 16.492586375484297 13.918699584892991 10.468742505998783
V 10.53982885779147 13.679380598570356 9.243636704211523
V 17.294957707187322 16.49536641738018 13.931397368892387
V 12.865379319691453 16.77330477600039 10.934688179363746
V 11.109263624599468 16.076393514556376 9.299731091058293
V 17.362622792285922 11.008210394488383 14.251237353808662
V 10.926787340892671 17.556727872483766 11.995866894389318
V 11.108638377336698 11.969192039577685 9.58571830483779
V 12.657864961829793 15.315077183478325 12.978174808126404
V 13.094157875599567 11.56276603543424 11.13217486892903
V 12.74631838930881 15.603778061458776 8.564676204065547
V 12.823598891950903 18.062512961390436 13.440975650248658
V 11.324554278179676 10.479855686756867 12.1819180101573
V 13.20338509550495 12.742229887026795 8.522652524842831
V 12.729820501653366 12.460366916354245 13.386814203004626
V 14.692213249196357 15.397470146350884 10.69939944984895
V 14.566535805336573 13.988467409622976 8.462689988167066
V 13.457291882914419 10.085940059704651 13.718609123123262
V 15.08300680891101 12.527781118677828 10.405472104861207
V 16.86371078609266 14.162210688609532 19.16931216146258
V 10.404151534141581 13.97627026098406 13.767287572098551
V 13.22674002702366 12.759870746379086 17.46965863400969
V 16.40909605063006 15.94498796484231 18.727200029185216
V 10.510416723400116 16.88157607103257 13.766500660277854
V 14.273131853073657 14.568418968550755 19.253503360461366
V 16.813248362289457 11.825993750072065 18.438015178691785
V 14.844257929793764 12.699707629582877 19.481977303599777
