55
Energy = -424.63671554 eV
V 13.504112241960154 13.820274942349704 13.248428498461427
V 9.126790354710481 9.168924483500023 11.662394303005968
V 13.656819745448523 9.365069271091404 15.00464325135548
V 9.346937258824743 13.567465756664179 13.770859778386013
V 13.212825503995678 12.324611089493294 11.200267381516461
V 13.652604884177633 12.321587781970088 15.296555843073676
V 13.58798111938176 16.484256237262763 12.87556532246636
V 13.19986288734751 15.281104264268084 11.210715615030539
V 15.217837837675646 15.785086461692412 14.487971566128733
V 13.510799024097794 10.88484122131917 13.161203619644377
V 13.32919013173181 9.413204273706045 11.181623945008344
V 11.48922068321322 13.564173864284989 15.538805502723383
V 9.438747790967376 10.85037735941918 13.64996156585739
V 15.263906345064843 13.782546479786284 10.943902133322098
V 9.783576456335513 12.150731465219321 15.617016629155799
V 13.828379653541653 8.131855364799282 13.074216653178695
V 15.252221281600606 10.963112921900697 10.756953631995957
V 15.644501144321971 10.949040799209246 15.194769551408811
V 11.40625927144465 12.256322579867772 13.394557930477246
V 8.759576519666847 13.575240217880394 9.916906350498994
V 15.76068247614582 8.476365709866533 15.181000467034172
V 11.326562935228347 15.217785144900255 13.448259229814836
V 8.650760841988827 10.815515448808808 9.78431023183554
V 13.407851555627223 15.147255208853068 15.351350562983427
V 11.457947234006971 9.266182992025469 13.308312430884971
V 10.855731982902102 12.214128245181213 9.291713526617713
V 15.778729786471889 13.52161346718751 14.880880582548217
V 15.589293494795763 12.335314989230783 12.941291245532506
V 14.936133459314208 12.19922033600944 9.124849079215306
V 9.037400792689242 12.479223286387244 7.261121122319835
V 15.708545494305996 15.077267130395226 12.317139062920461
V 11.145668078008677 15.050796387093193 9.319532797844738
V 9.329990175301596 14.268215530675915 7.741105203331745
V 15.602869335189842 9.627077164548881 13.045031807356816
V 9.243548478046014 15.786400056832802 10.357879363460302
V 9.132624471111319 10.201094130745773 7.991344913101994
V 11.057721028131652 13.754205059603272 11.369632793976708
V 10.97774999944421 9.380061086713626 9.445952844070588
V 11.420385390898764 13.532388209119532 6.959657931105226
V 10.996446609548505 16.435201477178335 11.77756469324627
V 9.086811984465994 8.181397759491919 10.022997908090936
V 11.131160754409857 10.920331944269419 6.984314511484628
V 11.153665569494313 10.799620428430696 11.383331722353919
V 13.004746407965694 13.615351609337441 9.158964269786022
V 12.827278154864308 12.041574931579676 7.150958556177379
V 11.318961087488715 8.049442933822002 11.596510677353292
V 12.997021112630389 10.736804313080194 9.157993125782756
V 14.79648283879531 11.884561245193977 17.63752067663567
V 9.011743670909706 12.206273651541029 11.725725305510759
V 11.58843760172639 10.777493241195202 15.446167362505173
V 15.16291759784463 14.219365749889276 16.801753871820218
V 8.835817972917734 15.001572205169593 12.279041885981526
V 13.037710362160334 13.714297751591841 17.650364079086785
V 14.021420041774114 10.241219222483016 17.137364458302002
V 12.187587373403824 11.976111401401054 17.572298912748774
