55
Energy = -424.59851202 eV
V 13.61834768223723 14.234593102649654 13.531436237439948
V 9.201392682011404 9.643983680203593 12.456427482930337
V 13.570614209062226 9.750760270819503 15.733872215951118
V 9.605018376621059 13.809023999848176 14.066427226995135
V 13.476586891956956 12.611520068322417 11.515548216948762
V 13.974699533091137 12.6033901508758 15.640283227280673
V 13.675547903524281 16.950485266254177 13.538896018244937
V 13.854069044675024 15.555795925151653 11.212247873874354
V 15.42049587554993 16.346264388182437 14.607455117107628
V 13.751384986704286 11.135358876264771 13.602006016926202
V 13.519042390073343 9.621659063649572 11.545506908815112
V 11.756806406560397 13.694396871287475 15.985969075008876
V 9.661927667402596 11.074536124706365 14.017871517069226
V 15.413473229151492 14.004911405126352 11.144359440675593
V 9.886347214927104 12.321238959510197 15.901145202870758
V 13.887040237556766 8.371521358563514 13.471421140882192
V 15.514426030292443 11.165526692556698 11.357865060327004
V 15.89942331102468 11.277601814982658 15.312087910060459
V 11.643808601264837 12.558110708135347 13.737231117637412
V 9.195865379604419 13.90445656924781 10.168290548799531
V 15.448151821747592 9.04563609404544 14.859277894077513
V 11.44833998802103 15.421240793225259 14.218031670111944
V 9.149531406234269 11.205760223406486 10.227127093463775
V 13.513718889609425 15.311458485729652 15.805503348823303
V 11.664324282456095 9.570072335406122 13.760865274956483
V 11.190465607237773 12.525530850127135 9.51191215439136
V 15.993136429562425 13.993179289510751 15.086820581036418
V 15.781351190323962 12.720996935588369 13.341886769081409
V 15.082800834098952 12.483347142121437 9.220134300341469
V 9.204092884946855 12.202934063636018 7.698687192897303
V 15.946909186449627 15.514797832013723 12.881824032069824
V 11.66884594839165 15.256603541156428 9.544145362207939
V 9.78161060138244 14.576788488226327 8.032978082447135
V 15.94372275380459 9.942767311147318 12.741599227752403
V 9.961239560723753 16.19308983930995 10.69085447309684
V 9.593813718046006 10.44224692927032 7.962499989154287
V 11.426639811094661 14.053880638883099 11.761293913195702
V 11.527294863314529 9.713884663332356 9.566194841033434
V 11.388452760387532 13.94998722177818 7.254068760562263
V 12.111687833775216 16.432054023575056 12.173637059255363
V 9.700726345165126 8.922552567995488 10.581377503293158
V 11.824152270340857 11.124036410015389 7.241109458206059
V 11.42215767594376 11.065213810233356 11.669152945432058
V 13.38263464748684 13.910250398543814 9.242673354087852
V 13.179141929725962 12.363680338285016 7.236773476094899
V 11.477449050605992 8.337118462878804 11.941351721596895
V 13.404769490889235 11.100610798009294 9.423159405341172
V 15.341326215951607 12.449574086397211 17.90998865345767
V 9.30969515446222 12.496017067262226 12.053252032054273
V 11.748610549461453 11.067906384344493 15.78310942790763
V 15.285905892805872 14.731868998160063 17.05319616056021
V 9.34668148613553 15.467763201131914 12.376909360877386
V 13.319681550830383 13.921316842028777 18.07506184136076
V 14.961491250922794 10.670960257706035 17.47086493334611
V 12.771252786572399 12.00786270138155 17.884454472782167
