6
Energy = -38.65343638 eV
V 11.314038524953201 13.062930730103451 10.707127520587273
V 12.103542318714913 11.980433331805619 11.876737035032766
V 11.427754117814695 10.447798505130244 9.935762825771048
V 11.707300831915754 9.468707888456354 12.107756797780816
V 9.97833248754979 10.084969168130643 11.870241924944441
V 9.848890036012632 11.443996484691093 9.798331838632137
