6
Energy = -39.05383474 eV
V 7.072830366670932 9.153554946759163 7.494656729288475
V 8.728266210252201 9.861743672085222 7.8654105546914606
V 8.955705353524564 7.304705898091344 7.515817557466873
V 6.717904695457539 7.129717095087974 8.63629781100495
V 7.999236892140876 8.064591523968607 9.657149057363506
V 10.248185481953767 8.207815864007804 8.55279729018462
