6
Energy = -33.10766131 eV
V 13.005712178766617 10.057894344776614 12.23740571088437
V 9.312193007534397 11.23566273831546 10.213473398807803
V 13.928896870003276 11.890271659809336 11.433003770809874
V 12.588673221289747 11.9166076846598 13.267542010247949
V 6.9049805283501735 10.912638705423785 9.073206186478764
V 11.649980622398852 11.552976586639922 11.222726921871685
