6
Energy = -33.17993277 eV
V 11.784998531974463 8.255965622855527 14.112529549725913
V 11.892058343219162 9.253777350672273 12.904929816460784
V 12.339570201208383 11.295749854588099 10.878833063620275
V 10.914190609307221 11.755415710006766 11.709506178477435
V 11.553821370485608 13.211250135108125 10.287289237985004
V 10.939853305613456 15.632375736935119 9.634483324037292
