6
Energy = -35.527129 eV
V 10.696576917890154 8.32247773718854 8.060906954566327
V 10.434740690962961 10.03670490562128 9.345705954488675
V 10.191141019872724 8.067820285796294 10.153935170881583
V 8.418550966060081 8.843114387364134 8.63090917796811
V 6.644925965492511 8.183518226817453 7.51654413712014
V 6.307091088681385 9.240087558024081 8.986123659810268
