6
Energy = -39.02842954 eV
V 6.581646715011246 7.460006418261848 9.016563140240434
V 8.354835714467107 6.832666626248675 8.580166758410911
V 7.317525970603822 8.254867697008525 6.976130962266471
V 9.084271471630712 7.60779389567747 6.539379633541481
V 9.434061299147613 9.292005777757963 8.202644164342326
V 8.01580073550991 9.338482036258714 9.367692681580113
