6
Energy = -34.78727011 eV
V 11.299718371175826 12.090283807392394 13.352918116946222
V 11.17339549434801 12.956740132426336 11.851920289480002
V 10.407637042156084 10.699622668138947 11.40922277058698
V 10.289791402389119 11.685338929554137 9.948093450806198
V 10.521834376925867 9.297483223997812 9.185320791365285
V 10.064010242326898 7.104755498951019 7.93138620983537
