6
Energy = -39.05125843 eV
V 9.83899362922823 7.50931976574378 9.064117111290836
V 7.640009178695548 8.772499256048174 9.5585454392548
V 8.197926565593022 10.164006043184003 7.534572714458983
V 9.564409738754142 10.130426265401429 8.83072368454974
V 9.05481478371736 7.985896152437339 7.473162909894987
V 9.003471346753255 8.763911094273954 10.863204481922383
