6
Energy = -36.84026595 eV
V 9.488560975744411 9.243862364202759 7.804784157502259
V 7.502083302984989 8.38620792768304 6.8932195002164365
V 9.68404409197897 9.746487227387345 10.266568508950632
V 6.162243511939269 8.00511768521617 7.985300070366856
V 10.561349534277587 8.102764066297565 9.415567068659314
V 8.21736553349354 8.13970246513269 9.255793833552167
