7
Energy = -46.95335374 eV
V 10.338782659351816 9.557739125115573 8.275567846816886
V 9.295676697507696 8.856240600706549 10.593912710476909
V 9.63100615879406 7.69276680161099 8.39235515158764
V 7.729341342700609 7.814040196983813 10.106794073955843
V 8.159164797076237 9.950871336125894 8.886483380785831
V 8.252957682143961 9.160184203668651 6.829370339937217
V 7.309456585891634 7.743364895496288 7.836192577823646
