7
Energy = -46.02835642 eV
V 9.88737815188929 7.417733558522374 9.576580132550797
V 8.0800748932333 7.891571400416832 8.931741682980084
V 11.164232603940473 9.589419707520255 8.962648607730317
V 9.44788951975506 9.332180132853813 10.458768033469742
V 9.856276844203181 9.135777672920135 7.636569540634244
V 7.213258105490516 9.954791050820715 9.858434903382795
V 8.182252461363454 10.492752158191617 8.417215092542303
