7
Energy = -46.83268202 eV
V 6.641010505341967 8.478549351113596 7.686750115946524
V 7.365337769176325 7.446068590763329 9.610596365190672
V 8.944527037081347 7.189510479354203 7.907359683150008
V 8.467112391125724 9.07467380547295 6.528100102406986
V 8.018103467552082 9.740768950107656 8.68049767890462
V 10.284174527690617 8.671554775426216 8.227943190295884
V 9.101996928737982 8.221136674468093 10.181015490811498
