7
Energy = -42.50557789 eV
V 10.738813796972309 14.645786017713643 10.417081013130465
V 10.106070938962143 11.989576274201296 10.197889235219678
V 10.748771600136347 8.02177327885925 12.527982550425925
V 10.879995399285692 10.613635232108233 12.585179286595416
V 11.816932540071118 11.03022247008751 10.770412940814069
V 12.024102276242628 8.59901511513596 11.624352628194684
V 12.040907501871185 13.559872575099781 10.318801966651439
