7
Energy = -46.58503247 eV
V 7.077294296777014 7.980553324727968 7.553645292608943
V 8.596584643951118 10.059960136182907 7.348627624846529
V 7.555380758855646 6.805027521462494 9.044000934832091
V 9.498915555809006 7.845418972329568 7.87967098910924
V 7.821872857283113 9.236069778020235 9.519590479887883
V 9.997668137213422 10.142162342379159 8.710604477734408
V 9.548134101592868 8.026658276380095 10.039710849498475
