7
Energy = -45.9588551 eV
V 9.15540551163405 9.502933042714053 12.36220574777661
V 11.050086465634136 9.54652091331188 10.667109722255113
V 9.930995061928526 11.26129016643714 10.69074532198526
V 8.501302846056836 9.109688948073076 10.66684548238967
V 12.366957765456249 11.627503691625215 10.04898751466649
V 9.523659948506047 9.825685299363384 8.799541607232138
V 11.399782525873098 11.029083441952952 8.575708001471826
