7
Energy = -46.62046627 eV
V 11.98958321828517 11.431877136639457 11.260667100473327
V 12.208755241595394 10.386526972409898 9.633582102093436
V 10.650911167299412 9.243577467075692 11.236807422981476
V 9.962704742054266 11.556410891188136 9.909198797289402
V 10.26148911706848 9.794805942452843 8.71296793610662
V 9.64523536406961 11.061745463183879 12.078127732252296
V 8.759433835592509 9.443854379856505 10.382071473643585
