7
Energy = -46.82916424 eV
V 7.274590694315268 7.085839670470595 5.554606664778321
V 7.48067863847125 8.81364287159639 6.9444785173918095
V 7.434695807547348 6.116676318187744 7.878396483355473
V 9.143928973033866 7.395039670202487 6.5215167827000275
V 5.609001625826657 7.069430582185689 7.351355125605727
V 8.633415380703669 7.55095038365874 8.895231409599585
V 6.557493782990695 8.102225406587378 8.988219919457949
