7
Energy = -46.15141005 eV
V 9.208455448872925 11.061145196114898 9.159770703805647
V 10.641111762000978 9.384719033365034 9.36327673054222
V 9.5597821934279 9.735352683545411 11.11127444221883
V 7.89484514395539 9.204681254054664 9.599888459669849
V 9.239048683940895 7.531504926045533 9.659653254030022
V 8.03059737871267 7.770358781166061 7.524944971980175
V 9.229056854054354 9.105696863592836 7.387934232359531
