8
Energy = -54.58597894 eV
V 6.005050551524868 8.12917740406746 6.001067268310115
V 7.723814254709527 9.162255122074157 6.456416472050278
V 8.029614221595386 6.665689986167942 6.33637449899194
V 5.698273941658638 6.256221258065502 6.802215957174348
V 9.114025695728627 8.32260165326533 7.72105962731735
V 6.916252028945785 5.590346436583184 8.323418941929615
V 6.6638188137757455 8.029478085621763 8.359355140133566
V 8.632074658398079 6.627154220490802 8.783016260429312
