8
Energy = -54.22978608 eV
V 8.852298318111922 9.600566150340745 7.703920020957587
V 7.77360204800652 10.450331788601034 9.156694395054913
V 6.9213742000841085 8.277039755772636 8.502524438148697
V 8.821533845813008 8.461450691706487 10.31274879603329
V 7.816599471917641 7.462811543447291 7.041824901562412
V 10.280732415288528 10.322539682296014 9.735178026252262
V 9.114172128076401 7.075325217923832 9.011281257811573
V 10.903700711368453 8.779721989227149 8.956954001999971
