8
Energy = -54.70505094 eV
V 9.369378087697369 10.059946340863496 8.652215199942846
V 10.132927015068097 7.78369194683685 8.885728823876564
V 6.351507524779418 8.115156889165961 8.572548684237594
V 7.283100655114025 9.643294144375302 7.515812416714043
V 8.133728092862842 7.272138414369274 7.438000083416192
V 8.508300732315814 6.707273853408098 9.608985331235013
V 8.083930872775255 8.934227165959946 9.797825828075137
V 9.408923019387055 8.756067245020951 6.800679632502728
