8
Energy = -53.0172149 eV
V 6.592037316705654 10.299904366574319 8.782081669102386
V 10.617578722101966 9.215615779547356 8.294062298634593
V 7.075576882520313 7.863548328153023 8.775666893113648
V 9.651105135023563 7.217724034853446 9.521197210356283
V 8.524874265250546 9.086909384222437 9.95628363705783
V 7.8386721967566935 9.934568024005731 7.513695769149037
V 8.886522565252722 7.792432028613875 7.552860333870322
V 11.084584649935968 9.170481194259427 10.076321938171668
