8
Energy = -53.76557302 eV
V 10.31683183131844 12.812934919295698 11.05400082226878
V 12.512095201069906 11.802711731536176 10.34910265417153
V 11.503086560780355 14.037667946067064 10.44588028538892
V 12.217343322263527 9.741660010060437 13.31537087895769
V 12.158694592351733 13.344654425122858 12.677391003180034
V 11.201205029123466 11.971273334609453 13.399872414076349
V 11.554162506705397 10.430229135071206 11.077392359573754
V 13.398775147440283 10.967112130868347 12.699336033381234
