8
Energy = -52.4532981 eV
V 7.350789210548709 7.7518343111929395 10.372728753561692
V 9.398001988229838 8.809466384807596 7.149868926731108
V 8.842418246369485 10.838061943014603 8.440058895105583
V 8.477691197391575 6.8938714730279145 8.352268246589938
V 7.4390563178808025 7.985040038479381 6.8138633860619615
V 7.134803699399338 9.289945326629574 8.650868948059129
V 9.19386212671957 9.066822940484208 9.892931019258233
V 10.465609213460926 7.6671895823634175 8.629643824632236
