8
Energy = -53.00587884 eV
V 8.5248758337583 8.033402576878748 5.1444600255382955
V 7.728584759684359 6.431832750069948 6.890566946717628
V 6.79239953093959 8.528198559414616 7.026586953162288
V 9.268097154631343 8.747822053974144 6.638110779191446
V 7.750825390320834 9.3559139202944 8.707614604374173
V 5.880635026170569 7.043303637951327 8.744691879078172
V 6.783056306737691 5.523512858149367 9.154292060910903
V 8.396717681675105 7.461205327185111 8.818868434944761
