8
Energy = -47.44457799 eV
V 6.229800054914704 7.128756723043783 7.919862857953943
V 10.94976941810613 7.363670126520622 7.173630516323867
V 8.566681831927644 7.426237555071757 7.68649635435084
V 10.086001401926936 8.270952872670078 9.107580389251446
V 10.09873241379306 9.36376958227694 11.326480014255942
V 9.215398947573304 10.255734468630864 10.203421747040935
V 7.641855311226894 9.09200933103476 8.684843070957701
V 7.683148752106142 11.57025747232601 8.369073181440143
