9
Energy = -57.99148294 eV
V 10.357337305722094 8.847184705895426 11.61826568776995
V 10.629738056112323 7.124038721698608 10.038206439882963
V 9.500655445548562 10.314110159344859 11.356507306473992
V 10.220814876361402 6.96021194697425 8.356367593576094
V 9.477146980281109 9.083508942317124 9.249967445090116
V 8.331320275284595 12.461777778230468 10.75603711476189
V 9.210504048434997 8.417770724252444 6.828286306631778
V 8.431449327272066 11.600699112673315 9.293530574026844
V 8.595879674503546 9.948497019718815 7.233144957308058
