9
Energy = -61.4728581 eV
V 10.838995264436045 8.85709136626971 11.949670406097491
V 12.417199201290163 9.368797213941782 10.600160484931315
V 10.161571266558239 10.475252903122596 10.271049783695409
V 12.579871616011431 11.087522801030405 9.697875805725907
V 12.162800997918582 11.190727804901014 12.235468767308332
V 9.850394270075167 10.564487706386764 12.785830837996894
V 12.177224777543694 12.947304995000017 11.29114666390125
V 9.879267673154713 12.346188355240445 11.993880990365103
V 10.594986126933607 12.404767460269252 9.722050374071058
