9
Energy = -61.98621298 eV
V 8.81097809081911 9.922176973330785 10.514328018631288
V 9.835031724934126 11.814586755812977 11.928799283327395
V 11.771985975086848 10.252865579741753 11.266957647866677
V 10.412376340235063 8.360181390921543 10.82807395537219
V 9.573676568100492 11.421960174037334 9.476665501173535
V 10.820630093430005 9.293560808112867 9.096621230613126
V 12.083761055192817 11.175171571541453 9.09408026339194
V 9.983211024542037 10.067433521119286 12.687487485261244
V 11.575819171962253 12.505783550695458 10.418117373299555
