9
Energy = -61.60761787 eV
V 7.378136040264626 9.623489398425503 9.587206814660947
V 9.561295737498863 10.88792849141499 9.243785698416248
V 10.943319000736198 8.988917070457678 10.21669495103287
V 9.084746337201548 8.0248031096357 10.772289010073594
V 9.043328067063626 10.208275724681174 11.14773451579778
V 10.789689677577673 9.787124111332986 7.80552910257847
V 9.881259962430246 7.876465969696515 8.355190545186524
V 8.258292852442498 9.682291721159812 7.60247141797831
V 7.856918704200693 7.605801934979674 8.803705547362009
