9
Energy = -60.8001561 eV
V 10.330095033480273 10.934506979726105 8.482438664046134
V 9.44403270022857 9.365858398496119 6.699844820737683
V 8.80926262634861 7.320128122481193 10.673360231906194
V 11.298751529096903 10.117190852320563 9.760198246953934
V 10.199705412827043 8.353192185542314 8.651689903884614
V 8.885880785948343 9.528911346654297 10.42350183666373
V 8.044939009123034 7.909322684623511 8.35980087567119
V 7.945340306594227 10.079371419237027 8.447975095702045
V 6.926809552630414 8.291882249242892 10.410840846451068
