43
Energy = -92.85659373 eV
Ag 15.423573908731953 7.84712495711824 14.292044310701852
Ag 15.724606795458369 10.588122598815461 13.717944587678769
Ag 15.251038488583037 13.936688239024077 17.79566818998676
Ag 15.617931039198236 13.309339744052297 13.06399365752352
Ag 15.110990375926487 11.474890680944082 11.00712704769917
Ag 14.827400081534897 8.787447361764197 11.727666417300568
Ag 14.499906398426093 17.030927022610868 10.156233349873391
Ag 14.985225082065554 14.211244560889785 10.43120927875744
Ag 14.602238532226657 6.0388088872933565 12.267530812596677
Ag 14.58136451496271 12.279012803119198 15.649082390769225
Ag 15.069707695458494 15.052309947542962 15.259278524338217
Ag 13.845499752293017 15.139842466563273 8.064538732929266
Ag 13.498644458343827 9.653620302713986 15.415329337990546
Ag 13.95368539066266 12.319565501032455 8.522097993992613
Ag 14.432751506098233 15.831487034868838 12.673731824107453
Ag 12.886418875291302 10.040039615050244 10.068020095289265
Ag 12.74103533569857 7.761323828667645 13.493486934874827
Ag 12.739659144466959 7.230468216188214 10.633650901166936
Ag 12.747014600388297 14.272466535232395 16.74099258721574
Ag 12.960792121827327 10.797961365604658 12.928758575350491
Ag 12.903278951674011 13.654082457874354 13.73339569732314
Ag 11.432592729051317 10.999797920275673 7.883622087535795
Ag 10.751563478041371 8.529868345436512 9.069327489332336
Ag 11.70028336041065 11.831483959781504 15.770501797211278
Ag 12.466313393164418 12.81566153364767 10.940193210760272
Ag 12.41524149108098 17.636259653822016 12.188559534323536
Ag 12.498559977818376 16.285753444011046 14.735317406227729
Ag 11.435310939743774 13.759971355228306 8.25569172390543
Ag 12.167608213622572 15.561640240800212 10.296970854073281
Ag 10.549978829828445 12.278099334380517 12.989456879277222
Ag 10.749793750047438 8.781574385282553 11.85749113456821
Ag 10.218895777096082 12.533771285007418 5.990014801967726
Ag 10.734687946911126 9.62433846695802 14.479225179372774
Ag 10.115120341092686 11.02804794735466 10.428478622594278
Ag 10.74653933828077 15.420801011086084 12.733383331617341
Ag 10.368227037767326 14.26042217445763 15.243196841743071
Ag 9.812173861971592 13.983794248611051 10.610496207090439
Ag 8.902784865853711 12.511115225863708 8.419790652862792
Ag 8.853039830867111 11.770659045482567 15.165429895347108
Ag 8.510927648808776 10.237373892960473 12.763155988084222
Ag 8.344727859402536 13.977057577121165 13.255925218227905
Ag 7.6488562959042286 12.280486795391665 11.025274117932387
Ag 6.458942028001954 11.954174741529055 13.5619495132504
