43
Energy = -91.73969692 eV
Ag 16.816704623924096 14.102350084036454 8.771049173146434
Ag 16.547562022774375 11.82044513313656 10.323103951941704
Ag 15.354040823252385 9.640564350403334 11.575205071022841
Ag 15.174153043203914 9.964300638302694 8.817568389345334
Ag 16.55305656899951 14.273049207359229 11.576524388017383
Ag 14.385131377795778 12.735197972318874 8.610899167830969
Ag 15.756411943789773 11.962367001613485 13.073409592143873
Ag 14.035702952124288 7.488469006529499 12.780185337482177
Ag 13.852399628874345 10.074411545757272 13.887634209434468
Ag 14.30434396361363 11.087527880900247 6.381793807240714
Ag 13.213655598601356 8.43360256310603 10.26964400471383
Ag 15.70852126436142 14.550613745084714 14.219636005215078
Ag 12.066901582115012 12.692142387371833 6.931933819134694
Ag 14.60378404811257 15.320514781574444 9.84778661063459
Ag 12.484384886372187 10.30282723006018 8.320524354190155
Ag 13.703208385524103 13.713403025901519 12.168899273280415
Ag 14.091741798682282 12.532048732875648 15.280422766794148
Ag 12.364228833733641 8.0037780526535 14.978488155628865
Ag 12.731140505869288 11.233592637689839 11.119708804257796
Ag 11.34528986739544 7.730473285283545 12.301440812458859
Ag 15.016249351191355 16.52270714773788 12.318827920928141
Ag 15.451743733033341 17.216819755974647 14.975796114509741
Ag 12.135549338856423 14.414769044733589 9.08745138944989
Ag 10.537209899746918 12.067384535337776 9.266176627410909
Ag 12.074457295400853 10.640238414159017 16.013007494585562
Ag 13.830577744955841 15.205934304521541 16.186123156041102
Ag 11.752015663348436 12.158777800064124 13.668845795098962
Ag 10.58283892656165 9.281325352117047 10.049774905777715
Ag 10.233336672380913 9.550862564380594 14.151990627202327
Ag 12.342769530099092 16.104367251703255 11.405516289168975
Ag 11.624172528801383 13.505267079298493 16.29620649526905
Ag 8.71648224369337 8.60311399965097 11.96900040718356
Ag 10.89856215260044 13.735482564298062 11.501600924945292
Ag 9.718843155769601 11.20794836582118 11.822717177440396
Ag 12.870160007071437 16.8103326677903 14.05701566114495
Ag 9.518530323195591 11.867702501901656 15.519805926420652
Ag 11.181221540299694 16.258626755782444 16.195728993393185
Ag 10.42401480153273 15.68398447818861 13.50479983867181
Ag 7.667411018596064 10.67885397537259 13.6822781100105
Ag 8.74883095394311 13.41932932922668 13.25330490344399
Ag 9.010352983975439 14.63480488205477 15.772670417567609
Ag 6.915633544751839 12.900611345759492 15.288793041016033
Ag 5.064265011444286 11.284363916730108 14.18076536409422
