19
Energy = -38.15073716 eV
Ag 10.796204569617657 9.230273005456343 14.657928320826562
Ag 9.712622872439344 13.092284111022373 10.631309
Ag 11.425052323752611 10.841250291438676 10.631309
Ag 10.139700432669532 11.48928321503591 13.052893142536476
Ag 13.109297725371523 8.621909490515893 10.631309
Ag 12.261979428143205 13.123593645690237 12.046762168601445
Ag 12.783809650289784 10.354994815990027 8.275650714700225
Ag 12.783809650289784 10.354994815990027 12.986967285299777
Ag 14.127130145290147 11.39691064216211 10.631309
Ag 12.261979428143205 13.123593645690237 9.215855831398553
Ag 10.649538122002658 8.460517920590485 9.224201337154733
Ag 10.139700432669532 11.48928321503591 8.209724857463522
Ag 8.674833722181342 9.910126066919869 10.631309
Ag 8.284184887749163 9.428732244129833 7.920669221781001
Ag 10.649538122002658 8.460517920590485 12.038416662845268
Ag 7.557550015010664 11.978800352077553 9.168912178520804
Ag 7.557550015010664 11.978800352077553 12.093705821479192
Ag 8.284184887749163 9.428732244129833 13.341948778218997
Ag 10.796204569617657 9.230273005456343 6.604689679173433
