12
Energy = -21.49451118 eV
Ag 11.326498136306348 6.8378077822515975 9.323771899865559
Ag 9.246025772435466 6.786724512835348 11.229001441938385
Ag 12.222116013265737 9.350832833528331 8.611237285646864
Ag 11.1841874492427 8.706738504362647 11.257956365847507
Ag 9.404551263546086 8.961904572445457 8.68115151018105
Ag 7.084224822869988 7.545516185629453 9.845456029258084
Ag 10.541801955171662 11.225151952006158 7.387927677184406
Ag 6.354317494590266 10.0160945081241 9.104883912791038
Ag 8.411841258704634 9.620120283299206 11.165052368780275
Ag 10.850256683053788 11.19693137600813 10.181932906564654
Ag 7.885309905259491 10.715892392791988 6.830487457931935
Ag 8.38346636966517 11.829747534653341 9.231593643114602
