17
Energy = -77.54604693 eV
Si 10.76991196485141 8.799161723579932 6.876935530469575
Si 8.155981901614172 8.449205604115633 6.110029843040213
Si 8.668035424857445 10.288974178737911 7.36379243699428
Si 9.285425449050571 9.606479763376454 10.179856023835022
Si 9.070825781244725 7.878617316230458 8.203195432533047
Si 10.939423587821713 10.637154740940904 8.418097976803653
Si 10.671147435394005 12.891757799702994 9.091997051694353
Si 7.797229511518028 9.094360167028684 12.307160684246362
Si 8.364488723966248 7.403382890325382 10.492951102517802
Si 8.559610564804395 11.399795592801865 11.735338596138087
Si 10.82016794410003 12.89113017683418 11.499257196261148
Si 11.730183526292704 9.078592985046742 10.228537329186873
Si 8.533008411953592 11.809379023749942 9.30809342100346
Si 12.50426255544069 11.518622920936618 10.248952883009899
Si 9.959391153070397 8.00891986497387 12.148208664282443
Si 10.924633421583742 10.547278226545087 12.102522500002738
Si 12.197675384221181 8.651114760371065 12.634119769554669
