18
Energy = -84.39593682 eV
Si 10.622713267703771 9.521923867267299 9.911415504682203
Si 11.587613311941455 13.80925689817777 10.342392006892625
Si 8.13427344487491 9.457841464668592 12.047253044899337
Si 15.090283847629314 10.801257343235259 9.220553795406946
Si 12.976549934322424 9.7926711756235 10.052484672691678
Si 15.468709484808375 11.676306112256052 11.477062891746412
Si 10.252694951448202 11.868886944088374 9.848147373054267
Si 8.48618374197538 8.352433232349764 9.888341295902464
Si 10.376782854147999 10.155784949800351 12.175335341125207
Si 13.315491884577018 12.150956798583536 10.352990072737537
Si 6.464606483705615 11.164850867372978 11.867632642425743
Si 13.339371050712689 10.719832916376301 12.256407035176833
Si 15.04343368391927 9.230942017943839 11.235080155887989
Si 8.103489648602814 12.824839391841966 9.486765693048495
Si 10.876516624122083 12.690487408906563 12.367875040675008
Si 11.688598061331998 11.048489395601111 13.918284060737177
Si 8.59204516047876 12.241130425135657 11.78506206219193
Si 7.605571633779224 10.517037860853636 9.791846380800223
