17
Energy = -78.408343 eV
Si 11.635427592320069 12.55131994629087 9.082577864059905
Si 13.360654982706885 13.153709563103348 10.758765915742684
Si 9.41330799542853 13.222036022368222 9.50808519620542
Si 13.10231406261593 11.086715324031681 8.023011823892064
Si 9.678698641551497 10.921104529874798 10.181717969133292
Si 11.492002031189704 10.811677134150946 12.058123791410672
Si 10.989489960365624 13.061169910745134 11.41729577639176
Si 11.72298392551296 9.837030489737401 9.461859872230495
Si 14.238188636162894 10.837598635782491 10.10656589539115
Si 5.883089999533127 10.22812563479684 11.310741435589543
Si 13.814533622278976 11.393669085369467 12.459826347704377
Si 15.305967128873098 9.552908021303748 11.71213386961711
Si 7.976933027299844 9.251296154047115 10.627449100110482
Si 12.942137942096783 9.019996663615688 11.390171240000273
Si 9.329402431054074 10.02605971941035 12.681606460394962
Si 7.678053121889508 11.558313603388042 11.950274994940912
Si 7.231284285499856 9.135594151426282 13.00955869183855
