13
Energy = -59.51220095 eV
Si 12.149937558024629 11.012210455161032 9.53252055741887
Si 12.552071657014318 9.700649222787925 11.501021995269793
Si 12.149494233669843 8.410914686739849 9.518305966297797
Si 13.184111011402118 9.72023929585634 7.900722096880284
Si 7.604485708403966 11.893130235068904 8.969428542415327
Si 8.207438851230926 11.148946248874616 11.289688736694304
Si 6.764080921324053 9.711160156260233 9.766001551660453
Si 8.206446826192948 8.25552946491843 11.273876490709696
Si 7.602775510523414 7.537174273652474 8.945858562363245
Si 9.736418198820836 10.974922941417494 9.258827743604499
Si 10.130939329714973 9.70105957348091 11.36354036579028
Si 9.735725844290542 8.45031308081338 9.24490724327945
Si 8.214179138765722 9.721855154346555 7.673404936994706
