16
Energy = -74.49164252 eV
Si 9.91308209605815 5.0419464053708305 6.722992576586047
Si 10.191227027410985 6.430187429573664 8.611468987604127
Si 10.191218875915183 7.4016924284584755 6.16959602216952
Si 7.879425730751325 6.143383803364184 7.223273019058285
Si 7.983501149327159 7.489604619527079 9.317693492129369
Si 10.540321006070206 8.910889196072114 8.130068248348097
Si 10.08524561772665 7.965427992090857 10.449647752859802
Si 8.26146564468169 8.652167320756483 6.918477171558846
Si 5.7740166244283655 6.113095522283768 8.411893938800217
Si 6.072412376110041 7.323187358201616 6.086792355152923
Si 9.15858648497307 10.285769081573559 9.940443753991396
Si 7.0145940625522885 9.662073181280475 8.89952162418277
Si 6.246246724427495 9.823412043864167 6.474788073509416
Si 5.81431487821826 7.7559397074464815 10.223807634976444
Si 9.299030834666318 10.868234578199099 7.593464390754412
Si 4.912142284826417 8.359073121708848 7.992815053953376
