14
Energy = -63.75935735 eV
Si 10.674527404451668 9.48306978515041 8.541006075620171
Si 11.265688142279524 6.946266465045646 10.765975236946613
Si 11.358928181921652 9.297504105922194 10.793276432241987
Si 10.06052318623746 7.6825701658957595 7.139920497250308
Si 9.716290687393444 11.715792267068885 8.257403252971004
Si 8.178486598418797 11.924172822492986 6.22668251670953
Si 9.006693990628403 6.129567839372911 10.57676332779459
Si 9.046919932761451 9.786126311615426 6.583486024668213
Si 7.310753718322182 10.693927213013815 8.02978053381418
Si 9.398108965187562 8.119222245787155 11.715191599852329
Si 8.559774959095678 8.050913103056796 8.984210737492129
Si 8.864494789635282 10.360287423098345 10.117187475259733
Si 9.833771946762493 10.40315491640344 12.318047374329344
Si 6.716471835338212 9.295330957902616 9.832606028482834
