15
Energy = -67.90469618 eV
Si 11.551469550600617 9.665494052936427 6.8289767389928
Si 11.542647105372465 7.200502350986798 6.951686685996964
Si 9.449568681208508 8.157433736942767 7.7423085844397255
Si 11.780831662984841 8.240318693531316 8.96618160582651
Si 12.035700254174941 11.080770840477136 8.881999202570947
Si 9.822793473625238 10.347566841136317 8.654221760898167
Si 11.468411713801258 7.301279917679099 11.246994075780597
Si 9.424446342839227 7.941534457637841 10.210921859262388
Si 7.927244178006341 11.490663856093303 9.293111535950802
Si 10.328060280308245 8.968649365879601 12.596077123450064
Si 11.472735013305321 9.914794869698934 10.832787841374444
Si 8.45335016967924 10.00430589398977 11.155092385133592
Si 6.181737438300034 12.765874086819059 10.228521063552002
Si 6.178323749727261 10.394295434395762 10.647471365338896
Si 8.087200201818336 12.299054649385443 11.606482937977919
