17
Energy = -77.87128677 eV
Si 13.299604772023132 10.512880477221993 7.3398256039693015
Si 11.072909460507532 10.304990307049682 8.028159321844804
Si 12.444379211678699 12.079795302883861 8.925806569691519
Si 12.906678561255642 9.552368702435345 9.676712754694728
Si 10.85809774764935 11.33373599265183 12.354597856386576
Si 12.896951378886921 11.508141089607234 11.195205463342832
Si 8.710124742994742 9.854316641776151 8.149242865752653
Si 9.703836518238962 9.369836630118868 12.003383422877123
Si 9.391395370184668 11.133462781500771 10.219991798469792
Si 10.85662574950028 13.052998336001492 10.462157601438092
Si 10.566411350741841 8.77335267215731 9.87188189924094
Si 7.407258001327882 10.52857712221472 11.456610562817886
Si 6.867624134539886 9.004614712311126 9.62224629325429
Si 12.127266153736926 13.30014705480357 12.632877371437022
Si 7.162764342562017 6.724531192644081 10.163375418249654
Si 7.568900640943086 8.248689946487351 12.012570011732192
Si 8.947232663783334 7.540033457065623 8.705223637174333
