13
Energy = -58.46781525 eV
Si 13.70299477980057 9.913307392891982 13.57496744494131
Si 13.435280743854916 9.80220197728642 11.263483479021918
Si 13.447934940441034 12.188351885139777 12.84804194730378
Si 14.588542802146383 11.948368546813125 10.579450849801725
Si 11.466112325669377 10.391735284202875 12.981222241529615
Si 11.063145096118403 12.76575341992405 12.44889999809105
Si 12.429700018634563 12.873862167580729 10.431798351655779
Si 12.901339663753104 10.733118549748209 9.110121555670451
Si 11.052059472954914 10.747093932802052 10.64176068536298
Si 8.867991194512019 9.727393973087556 10.79586076578358
Si 9.154720752950315 12.172745019197412 11.02758249466723
Si 7.418533691582075 12.58483109379261 9.635100444550044
Si 7.011326724109783 10.992570509666615 11.391618961146282
