15
Energy = -67.7425294 eV
Si 10.107363582555308 9.419617613452138 6.892357115854876
Si 8.08896150502536 8.681497751681679 8.253636487561154
Si 8.227595042197612 11.131980033441469 7.740002083681876
Si 10.23094667373126 7.70967047692757 8.810024007278777
Si 8.6329368994818 9.830354488948903 12.216097499790079
Si 10.006231835875907 12.162923421564512 9.078998709339627
Si 11.232291699708249 10.0255264393273 8.90833639873946
Si 10.697712681913522 8.783682289387611 11.08561711210126
Si 8.883030365054745 10.208747047630727 9.950737987276797
Si 9.595617961200812 12.154770247064889 12.031919792852895
Si 12.593614031552328 10.704177077220148 10.626263626056515
Si 12.620872300750754 9.240367872290522 12.491588165312423
Si 10.55661897098731 10.250134242194676 13.555786605045249
Si 11.582240206015221 13.04437362807196 10.760813168698094
Si 12.116566234672845 11.888485034728598 12.841540974846192
