12
Energy = -54.85901324 eV
Si 8.275177129668167 9.465531783410645 9.88587156569203
Si 8.556294614590563 9.048348557832407 7.166197476976571
Si 11.116092312823293 8.83084473844271 7.487927617369099
Si 9.28575379620848 7.522401297307195 10.965525280479477
Si 8.257965338896895 6.976308434621032 8.77738427249957
Si 10.797675975975 6.914557030068724 9.087118612161643
Si 9.613551263587704 6.949324977169157 6.771369716192858
Si 10.719715577581752 9.296385958911841 10.003803426749492
Si 6.56396380976126 8.613022394998021 8.357402796124731
Si 5.995898410240813 10.291688962086857 10.071773710644079
Si 9.759567776035471 10.835910037146945 8.329044827026497
Si 7.650387618233295 11.84636966593868 9.650896908962277
