17
Energy = -77.83007703 eV
Si 12.673823034458106 10.510951232182524 11.17210348730145
Si 10.587862032727495 7.7540824249278515 8.19669804995151
Si 8.759897554287882 8.208545739865055 11.1908242954664
Si 9.754052693854499 13.63641752284394 10.187537224242261
Si 10.724844375975833 9.302466540588282 12.166203638521749
Si 11.402191359450917 7.414849355284706 10.71272503074381
Si 10.01386209074265 11.468384985085027 11.38971169904992
Si 12.00335175495016 11.345875547184614 8.75729301349695
Si 8.0918050630358 8.268895905469563 8.720471915544618
Si 12.480479866961344 8.971511657323164 9.162761647561984
Si 6.9336852351280776 9.616947976393353 10.465191014523786
Si 10.090753794543879 9.679077690251546 9.600952337935997
Si 9.500574429035831 11.820019464127629 8.614182250049721
Si 9.429308482407455 6.257226552430701 9.840580255960038
Si 12.053429205551769 12.825434943624268 10.825125595086323
Si 7.421321089084787 10.709639421868685 8.23444418744803
Si 7.776044717803791 11.906959700180025 10.460481076930856
