15
Energy = -70.28603457 eV
Si 9.81068829728721 9.0453005253446 6.452830122963843
Si 7.382911939449075 9.477925626718832 7.1515509421900925
Si 8.443208797021118 7.181770324851535 7.559557556473766
Si 10.849425400116127 7.376675893494102 7.891186539170387
Si 9.066502568161631 11.24228373272307 7.2060798089893305
Si 10.563684791035058 9.804937982028122 8.764565007136198
Si 6.770137730137421 8.105805240130989 9.071603877428222
Si 8.225064082315656 10.218025754558917 9.436351264515473
Si 9.959148535087557 12.112442408446737 9.780183419667486
Si 9.250020012911714 8.008023438615322 9.830668165632636
Si 11.750272224863375 8.253123566512729 10.466583875946345
Si 11.405294851503669 10.600601587188986 11.03349031963756
Si 7.670812974419678 8.968816127931287 11.64784225739322
Si 8.970939128715923 11.030183941458331 11.729979423741725
Si 10.045699479109485 8.73789466213127 12.141338231248547
