17
Energy = -77.49520862 eV
Si 12.706662367302126 8.097731766423239 12.574564372126892
Si 13.86295627477951 6.286365990667106 11.935811961359775
Si 12.753941224198186 10.094968666702846 10.968640324345316
Si 14.12582339403364 8.193710471321896 10.598698947964198
Si 9.820315597440814 12.328873899332795 13.143591455529823
Si 11.273896484499609 10.008537513900505 12.895794203789158
Si 8.887520878619831 10.16251411214959 12.772677672434915
Si 11.843959140570307 11.810814562735038 14.444752767629788
Si 12.6921829954657 12.04939002002349 12.236056573640528
Si 11.21674099972569 13.181417020502705 10.75304432316236
Si 9.334339560168075 11.35926654538238 10.79175025249286
Si 11.314503246626654 11.056107963252146 9.36968735427213
Si 9.019096784879933 10.949048843706068 8.27190740588334
Si 7.9919781436361506 12.962926588905933 9.408306325744938
Si 9.107315336273905 13.91511071000535 11.549243740436287
Si 11.008358535299317 11.479785627594564 7.0474622388259025
Si 10.225278464483974 13.244790354275136 8.419950567239162
