10
Energy = -44.30247308 eV
Si 8.19523770363594 11.5688818812474 11.926490256807112
Si 9.707250957886918 9.63815297881155 12.001744984009152
Si 12.094769013915151 10.145505555179529 12.210694568122006
Si 10.57770151727157 11.9440448349943 11.534943516569433
Si 8.527573254532781 9.623101191275829 7.977762801703909
Si 9.306116304329013 8.215340566168495 9.830534950157109
Si 9.039446723476622 10.922736169630252 9.835893597355815
Si 11.31636620855686 10.094580651378882 10.00412421328328
Si 9.86028721551422 8.895628852976984 6.238834306286137
Si 11.058594751496353 8.663224198293658 8.188965970898415
