17
Energy = -78.54800994 eV
Si 9.37327093064204 10.40994317909398 9.528639125884933
Si 13.429710358910958 10.131229842220502 9.151395431274617
Si 11.225374906661324 9.428307823735253 8.215413631293695
Si 7.823104057768177 12.239175731072669 9.613374291948157
Si 12.251756481077786 8.028205253588645 9.982884613113095
Si 9.980209289065613 13.295207761273598 9.89127945204541
Si 9.807448426253153 8.122445092477676 10.37116550457229
Si 11.574240186616871 11.41982802868267 9.808355334966492
Si 12.697996711630783 10.120695849463493 11.537433623132326
Si 8.675667441344467 12.092482739314235 11.869236102116885
Si 10.275737098823495 10.225833914854011 11.785438435015198
Si 11.325702496915133 8.199117990992988 12.352140405477739
Si 10.737769146923947 13.32325735846826 12.191789148139229
Si 12.747846741351593 12.100142724559683 12.77297853466806
Si 12.948313583183308 14.450023442790526 12.35766456469203
Si 11.498977680502156 13.09416964083989 14.557049707011963
Si 13.823122560816289 13.539808380012852 14.369149849176752
