18
Energy = -81.88479344 eV
Si 11.845590007500643 8.689603018911107 7.273711250257728
Si 9.495911314118004 6.832698453092781 6.929185212918568
Si 9.802801264317136 8.945437901731673 5.689942965056043
Si 11.356771104311322 6.611318915338783 8.47045186770534
Si 10.320151556196228 10.624154563147108 7.454385389436112
Si 7.354285265663127 9.700197521854315 5.324558237535808
Si 5.927234981737711 8.566992100313183 6.835061746759826
Si 11.295763094007826 8.945231693529884 9.656264467091384
Si 8.28030328448289 8.933400755226614 7.524461864099576
Si 5.657962727622695 5.1250845936911364 8.669673101862548
Si 9.285443891756605 7.401151123220048 9.368978227391288
Si 4.564067051630756 7.305107974373736 8.376419432093938
Si 7.10618465231056 6.522884096169739 7.634085657494212
Si 9.08899473774573 9.917894894113108 9.466931813715819
Si 5.780473588892315 9.184261136542489 9.243411084068995
Si 7.5733804145071995 5.83377867949264 10.153957670224658
Si 7.275568643536044 8.09377944868834 10.780103933446824
Si 7.157596612479427 10.46021121790586 10.829646273315758
