11
Energy = -48.71354725 eV
Si 12.4520322364504 12.700911353166095 12.63005718193543
Si 13.19237494804377 11.747024300028867 10.355102284189917
Si 10.522333318833466 13.01854076006543 14.12220661089352
Si 12.000470610457715 11.01482373885441 14.439565462012704
Si 12.654847810280078 10.302982482899179 12.30582798434612
Si 10.803030826385479 12.111381032554348 10.186163720587915
Si 10.30653281373454 11.344714121033103 12.540273912461533
Si 11.516211032218134 9.878343759170335 9.39553861502766
Si 9.213713600782194 10.975400051580342 8.870037053590499
Si 10.742783133707748 10.396375927254638 7.224486671890407
Si 9.680839093570373 9.685768020978024 10.880677531388702
