11
Energy = -49.00504061 eV
Si 11.184534232390115 9.129583556132488 9.165990479349615
Si 12.547087822588136 9.324780742173616 11.060708703779948
Si 10.354570355220977 10.219536965662341 11.366008310383894
Si 9.631614511279984 7.979266281603162 7.827911051526371
Si 10.791569430195208 7.711846189318807 11.332599304207964
Si 8.751389099812284 10.12976020772043 7.0312374623553655
Si 8.754916914325474 8.584392090368889 12.141767497649262
Si 8.43057854215565 7.50248245054904 9.911537408850053
Si 8.789572899403083 9.80771470702626 9.470802466079327
Si 7.672765721703818 11.892173364544961 6.185834257193273
Si 7.548532277011144 11.602418052102106 8.511986264517242
