15
Energy = -69.07886319 eV
Si 9.03420605864929 12.098502575274038 9.45444763734807
Si 11.446914321255493 11.051802398945641 9.432502822849974
Si 8.48279036703523 10.119571622705282 10.585074499770796
Si 7.8609574186102815 12.154667747102023 7.289678760589377
Si 10.103654911011708 11.410059316693758 7.145614011431179
Si 11.108984902921252 8.777317976087858 10.38764091656832
Si 12.308613231479027 10.598168604204666 7.209972690344251
Si 9.655656030865664 8.950797369128185 12.267105996505482
Si 8.294964354205312 9.974902422899184 8.076730472822852
Si 6.97879208126581 8.403188467716882 11.10243456403506
Si 10.93169682256156 6.8979916027301815 8.889161355487746
Si 10.638146378651621 9.093547640650657 7.891683159923443
Si 7.370587446655016 7.86423196920361 8.798888605750976
Si 8.25343352892512 6.927784723864028 12.570034698507008
Si 9.115701113993724 7.192561389826503 10.40105443071471
