12
Energy = -52.62474807 eV
Si 10.179444241637182 9.632807365379517 11.6348690209102
Si 9.381648569510693 11.937710675581734 11.10012013149109
Si 9.482945632785295 8.040885888653994 9.938604287324576
Si 9.17566977951608 10.946222434532713 13.376601595589758
Si 9.645266475763064 13.442492370333213 13.02910297199426
Si 11.49373988967563 10.98700470653891 10.11807619651188
Si 11.227714701847145 7.3107050243708604 8.554854234790275
Si 10.384177559011079 9.654551655786255 8.426572394192169
Si 11.374535693811643 13.685147355080929 11.300750239712734
Si 13.253705402239229 12.133498701902854 11.167059920060165
Si 11.405679184308086 11.758735333703003 12.787336417158993
Si 11.065296123498493 8.526749677529008 6.548032706283454
