18
Energy = -83.28045103 eV
Si 14.608748489636014 12.504617567151438 10.491014731313538
Si 14.942976747166687 10.375214870522026 11.413360138450608
Si 14.187766199222438 12.68960086931695 12.90624383182602
Si 13.26872631501621 13.955868978677676 9.169531754581604
Si 12.018523133948925 11.935534729477322 9.519500557178935
Si 12.969388087860443 9.845203412338579 10.062454600696073
Si 12.511701034080037 13.67331506691188 11.433399766929796
Si 12.622153145664866 11.073327722468637 12.106169505268861
Si 11.41002039433804 8.01912969582176 10.58353541310797
Si 10.407598547159758 12.452104474646973 11.569976021483853
Si 10.62295872759964 10.966996599289896 13.50931997082235
Si 9.639659571219747 11.790120446772272 9.208191748359974
Si 7.876667423936484 12.509414044340366 10.824179085924124
Si 9.91407699176535 9.505547005626886 9.682336320319358
Si 9.828443188414228 9.140430524139614 12.15754463969626
Si 8.255808448602673 10.956252028329944 12.734563229746104
Si 7.703621640377787 10.0771197523906 10.4689344715788
Si 7.488112754655423 8.71562615182546 12.528973623591632
