18
Energy = -83.22110709 eV
Si 8.665787989317176 12.562167975917847 13.738322001106798
Si 8.08387516491515 10.245017580085515 14.371987243081813
Si 9.363425041031233 10.045774271986382 12.431717278788883
Si 9.330883356272025 12.364790954045626 7.487539172047654
Si 8.526989650416146 10.917544263538794 9.297542813529608
Si 10.033410153882668 12.987609319867088 9.670854517916457
Si 8.601740694648779 12.107677711429245 11.318235668629468
Si 10.403378001558183 10.871220309517712 14.571307793976763
Si 12.174439544963214 12.893194317309753 10.879093157310225
Si 10.846041692308095 11.967924128530674 12.583152946808617
Si 10.042633231278229 9.205551836655472 10.205815482666553
Si 12.131942028803698 10.618395262880119 10.263415409601159
Si 10.847637600972828 10.666663232413136 8.114029098762243
Si 10.929193904370674 8.297251373887319 7.659518612533786
Si 10.341990923388536 6.92665758908502 9.595921021243212
Si 14.208925635914774 9.453771391272209 10.095635881462426
Si 12.392357033500517 8.026814270045298 9.734703673936714
Si 13.087796931815472 9.857549252316243 7.991452913673323
