16
Energy = -73.19764504 eV
Si 7.103497459119143 8.348064401984976 5.645927154310309
Si 9.458241746242981 7.735352421798348 5.841451181372824
Si 8.921514568220934 10.111163002337157 5.9987272197895045
Si 7.9173503109545305 6.09458827846755 6.941456269945706
Si 6.9008718859301945 10.10894457636896 7.7978701016718635
Si 10.960221729411707 8.90994390375649 7.440579737584408
Si 6.139937681444061 7.711212044811064 7.839276304367845
Si 10.304865293924411 6.459675446903369 7.737895151346817
Si 8.547167465530523 8.165741680002432 8.44032450489049
Si 9.300318384089717 10.57393319099916 8.395230092718949
Si 7.028600943246137 6.366888576454187 9.79960718053903
Si 5.914680883605445 8.884158073114229 10.000774926960467
Si 7.826815743197991 10.537695732498328 10.388936894882322
Si 9.534997470430513 6.630417222550441 10.217504738082031
Si 10.146658000331248 9.09708545555941 10.312521522291366
Si 7.957774398598331 8.22864995667091 11.165430983523928
