19
Energy = -87.10595458 eV
Si 9.931211029689546 6.024139856545742 11.04578745643004
Si 11.415469428338357 6.6628931432105665 12.805167562913338
Si 9.133614190301357 8.080351521000233 11.816737220328637
Si 8.639776790060537 9.608276682614024 9.865588780627222
Si 11.789254013847797 9.115093972442148 13.040787775683617
Si 11.609540603410503 7.770279783155219 10.578138099603622
Si 9.494606473467423 9.671760724800427 13.562290068725947
Si 10.773807756357842 9.648686737487338 8.621957239463896
Si 13.444335241740944 7.636452870691456 12.054014901878608
Si 10.62865007327914 10.185718481456108 11.193300143949255
Si 11.94603246126137 11.740087303245055 9.004067734023252
Si 8.368080408172487 11.106387526967413 11.740860127471983
Si 9.857915246309894 11.554556780601073 7.476667269290966
Si 11.654283674594089 12.44645457832532 11.268083250447114
Si 9.427203011400357 12.733254757083635 10.284778086193473
Si 7.8239811946257865 11.851466759579466 8.685893397117848
Si 11.431374745089686 13.380126473381148 7.212816014139309
Si 11.23840660115014 14.236159424689708 9.550342828910187
Si 9.131136630984814 13.906959099980115 8.070779189964124
