10
Energy = -44.20968195 eV
Si 11.781100474436457 8.352073278419352 8.552911802788646
Si 11.068216423385493 9.651812022938003 6.613993676216488
Si 9.480087592790671 9.306759038779154 8.40835283359631
Si 11.587578247003695 10.95129748679493 8.527639442092761
Si 9.59106004232668 11.31348070047928 9.87559575827729
Si 8.278465113074326 11.741650899452736 11.74145543710502
Si 11.15901965535587 9.436004382367507 10.507814261838893
Si 10.71758842468144 11.101865925417924 12.204946695059219
Si 8.858452195308507 9.320086580388027 11.440816335262314
Si 8.969715376173912 10.31625322950042 13.617757302300117
