18
Energy = -83.68598322 eV
Si 5.601305461317735 9.027744259573492 7.047048048279558
Si 7.839213379206326 8.072168097888998 11.308192628943637
Si 6.370251320283677 10.880451777768924 8.576757617269891
Si 7.6451601600437815 5.887403842516041 9.39967355839068
Si 7.173929730525806 10.867242155288746 6.218082882363709
Si 9.751390636209985 6.599291213753909 10.596624687896265
Si 7.29544874949872 8.682788256993014 9.018003949008035
Si 7.7150791452464995 8.569847347582868 5.448259477462097
Si 7.737637727487505 10.60954484164557 10.8212371230613
Si 9.907232962757499 11.477171228582417 10.158227635607373
Si 9.838449548509244 9.137881726193536 10.16918201243351
Si 8.846463340184025 10.663041363614436 8.20136590822424
Si 9.322391823053433 8.22427891392644 7.545055586386731
Si 9.609555161259973 10.035189260951432 5.972724230361511
Si 11.374605487311612 7.799938090088426 8.856958137035479
Si 7.092907071545759 7.093459774864538 7.274425911697605
Si 9.83543937495549 5.720667026885826 8.259648260910414
Si 11.700795950075106 5.607355050559716 9.840210201801906
