18
Energy = -82.55160093 eV
Si 14.333457838996008 10.567772633309769 10.572439317179398
Si 12.524335872847088 12.0812211511947 11.192342803642568
Si 12.707458898353837 9.725412131583875 12.103561153612034
Si 12.358022504685854 10.163274958407762 9.400641901954506
Si 11.332189605706139 11.457472416462647 7.6160513601098065
Si 11.1567764008912 8.392191468554357 10.402858113624344
Si 10.781054622940692 12.67830551455954 9.601855831675072
Si 10.919879036125973 6.177286149494223 10.971106398581703
Si 11.881877735352564 11.559005716718659 13.435620575488901
Si 11.650885459611615 7.739902922687458 12.758524974915106
Si 9.211240880297467 10.768272977733277 8.316224377478985
Si 10.064186454954925 11.80329041313981 11.910919489783895
Si 9.183820602630222 9.88549639292709 10.863430007561867
Si 9.322237766175272 13.91934104006362 11.00913746139734
Si 9.383738051367553 7.8560863602977635 12.102102874966286
Si 7.259614622131775 11.945916446744455 7.658040630233356
Si 7.906888036654701 12.481705327649454 9.771927802004376
Si 7.241052958621356 10.108785414871695 9.568982774755685
