16
Energy = -73.08894728 eV
Si 13.209999313255166 9.084057727446824 11.233818252386289
Si 10.902533953962331 9.033036681606422 11.507249932165525
Si 12.900578414590193 7.506293715351719 9.076735332895684
Si 9.22226997370233 7.447652773634975 11.170191322329043
Si 12.009398261938703 9.672945660209292 9.305127053093388
Si 8.70697158221974 9.96846907881019 11.679829386576046
Si 10.522606901510096 7.564367523407959 9.200544162048132
Si 7.035710753642665 8.237441877463652 11.669522085557919
Si 8.749919320162059 8.43893892222191 7.819097105555105
Si 9.971137768805164 10.453388092722037 8.53341266682548
Si 8.393936143990057 11.606322422171141 9.86642383813382
Si 7.319166412992821 9.343854477936366 9.534972073979116
Si 6.074704441910367 11.361990363531373 9.180689953846917
Si 9.351888406364788 10.50194377575487 6.276429191019327
Si 7.555459307826401 8.90218113090038 5.851039674102314
Si 7.208533116495019 10.847717034635217 7.218564783706649
