15
Energy = -69.12136953 eV
Si 8.570630737767527 9.522248692447858 6.756756295052041
Si 9.635642270441135 11.784626184542486 6.812404615359169
Si 8.045862106092873 10.922848495922418 8.660033524825065
Si 9.3293102609427 6.061144530224269 9.095655496484365
Si 10.984885405848331 9.665824213585054 7.1355618255769775
Si 9.569397464235124 8.626565544211628 8.889755743452051
Si 11.628894760946233 11.760194497839535 8.403856566074046
Si 9.417657695748153 12.816503909228516 9.142191736254928
Si 7.260505199106543 7.380483827225422 9.503568920332903
Si 11.882349526629813 9.480958152064268 9.405986666018622
Si 8.131460094583987 9.617928998247665 10.703090902371503
Si 9.427894097248082 7.334813594480939 11.239379699790504
Si 10.163517362764722 10.897921540520603 10.351275455387595
Si 7.85272259687382 5.519795393555733 10.941578101100294
Si 7.082890020894394 7.591762026027191 11.942524052042742
