14
Energy = -65.28451399 eV
Si 9.24513914125954 8.950997758197486 5.805709296952564
Si 6.869516358037422 8.359691994107257 6.184933995076812
Si 9.88696273726946 9.246082532121795 8.099021632949901
Si 8.995402029896288 6.987938056190929 7.3611008794059805
Si 7.74089064681336 10.433661406132568 7.1288209955062625
Si 6.570152065298804 6.619216787437723 7.923516504345723
Si 6.1100635796194736 9.022765717199023 8.396441023072695
Si 7.977609191304654 7.57633795213203 9.61267098464054
Si 11.917129781106842 8.926263607196137 9.324287495472964
Si 6.403445544506284 11.367117157358544 8.913193254327744
Si 10.598153991164576 6.9425050292490305 9.328880956073231
Si 8.20012919471933 9.982114085561426 9.671882645393161
Si 9.367190851148894 6.691728850273792 11.350748025995422
Si 10.136421905400871 8.911786084388625 10.916999328332642
