11
Energy = -50.30645016 eV
Si 8.011182434940691 7.620620060973114 6.327824475449933
Si 7.669369702685103 7.285926260023383 8.798338750672466
Si 9.712546551295793 8.363276955816549 7.645028640374958
Si 7.603926141891532 9.824794246950647 7.383190421118298
Si 9.693394895946396 7.641241348162997 9.979860627118612
Si 7.579693431276566 9.506215796823696 9.820670072727468
Si 9.342381015565213 11.003557123852469 8.670832649567949
Si 11.600260244414308 8.322728863821226 11.164002003723171
Si 11.325142300570613 9.491105811437004 8.960919877802864
Si 8.161184630780857 11.564188762448996 10.748499840129107
Si 9.812649094607542 9.871774243641172 11.001104518756003
