17
Energy = -78.1188385 eV
Si 16.25293712463099 11.811703358314153 11.661422581825803
Si 14.936247914537724 9.867930771086101 12.350632971877257
Si 15.221397943162739 11.663387831078488 13.921903928133464
Si 11.201326604101194 10.490470276065393 14.084283928516744
Si 13.989755509723006 12.100250309363263 11.4598186761115
Si 10.710837249671483 12.97237425219712 13.640518838141022
Si 8.97980238962494 11.304043021211731 13.994105783867003
Si 12.645942396167085 10.155158975136509 12.251598334217613
Si 12.90358510111097 12.200285453131912 13.697631129498873
Si 11.031410948891438 10.702102400159326 10.606502386897503
Si 8.800028225535105 11.43958559703288 11.477304946745017
Si 12.220248337700722 12.62090300699771 9.616567886304065
Si 10.598236133656002 13.265366602127905 11.232170226218937
Si 8.350882591661103 13.675807378005016 10.701431297892753
Si 9.073924386002624 9.88211658357884 9.546723004102146
Si 11.09313949038152 10.969641282461321 8.183663030820389
Si 9.314068524466425 12.315465804336514 9.023765520682884
