18
Energy = -83.77802081 eV
Si 8.059434994107672 7.260627515280422 9.630413388680774
Si 10.382883305783619 8.288970663801996 10.479405336281927
Si 8.090097152167594 8.914147028915774 11.392805658397377
Si 8.72331949142316 5.025134164592162 8.459962918250763
Si 6.7240671413406305 5.297014975665302 9.682999475733883
Si 10.151439303886747 7.27320644562145 8.183194795967573
Si 7.223126680809521 9.571241625111053 9.218132783666304
Si 5.44578874175344 8.64956946897718 7.446790471609219
Si 8.098491149535029 8.205747566259971 7.20417607221544
Si 6.573352812062238 6.236486655715375 7.436032048807353
Si 10.702668347980483 5.160821308591141 7.268511976355981
Si 9.505291978053071 10.493781119687661 10.04693475832765
Si 11.14878212400718 9.486439368395656 8.391599410610137
Si 5.920849353239797 11.075195428260114 7.743226596732192
Si 8.721579451951714 6.156675425597941 6.127194985996193
Si 8.976790288729463 10.423023769304187 7.632977018762268
Si 6.898372251019089 9.77556269979211 5.800677941715353
Si 7.681716704209897 12.011222120698275 6.43548112625417
