13
Energy = -59.56327438 eV
Si 8.953099671239565 8.85029087103207 6.9839567011749955
Si 6.7556452729203285 10.200611034128402 7.4814271548791975
Si 10.865511362553539 7.521391418372074 7.70587962594969
Si 8.99143899112272 10.785291469333934 8.575304700333485
Si 8.383184113164893 6.734232128615517 8.110492365927357
Si 11.163289995240309 9.80399248210129 8.557107023429289
Si 7.355025540375155 12.39535650974456 8.430478235190266
Si 10.23346004485424 5.8801806954300035 9.491002235363245
Si 9.4509597961484 9.690351270258917 10.794623034351044
Si 7.581548515135777 8.699027430855129 9.230051713843501
Si 7.128829585879416 10.838466739878752 10.327839687384321
Si 8.730452588264411 7.321504943709872 10.827758181312436
Si 11.185823077979435 8.057571561418106 10.262347895739355
