17
Energy = -78.44074915 eV
Si 9.923676319514833 9.78349951715848 7.584659278026687
Si 8.752918682315554 7.059775536305615 10.552171685604302
Si 8.595959287424556 9.590950372825874 9.811752672904221
Si 7.634448762713641 10.704400583586763 7.76425974423525
Si 8.219906182692412 8.404935315623012 6.698387865313829
Si 9.882686881220213 7.474346719157536 8.489660647574969
Si 9.266337108049115 7.020327115416662 4.99160168239664
Si 6.192838207996588 9.43386206136524 9.35105326367871
Si 5.801553315054484 9.246765003657174 6.692692181846885
Si 8.549774984108234 5.212135994395777 8.840758245666754
Si 10.013312817336576 5.584226078000249 6.907976129840789
Si 6.802836269699232 7.777383019956268 4.779147152584066
Si 7.285616931661425 7.381685164409124 8.63301939423443
Si 4.8013206591429975 7.4475050264003055 8.564635761419593
Si 7.59981067862817 5.787107518126481 6.265972362733028
Si 5.005703419844707 6.930530400544302 6.1966897143968485
Si 6.091011856562842 5.3523478021885404 8.043509082634861
