19
Energy = -89.09631328 eV
Si 9.181993890807535 8.557323066192293 8.546593547272717
Si 12.257999565199976 8.385607951826943 9.977146789985873
Si 8.793395173049852 10.826866255325246 8.163451699486197
Si 11.563228911776868 12.413038673612222 9.280114195819573
Si 10.122736622544812 10.190886570176072 10.184778102078404
Si 7.9807356630969135 7.364736388356444 10.270797530591794
Si 10.320025217157273 12.439824204362749 7.237357240168021
Si 11.020630333013397 9.014514622798844 12.382724892748302
Si 9.189718295934343 13.3066824850196 9.155648490698724
Si 12.514600829931446 10.672372468907094 10.609178953233403
Si 12.080236638361253 6.967718370792316 11.86415227699337
Si 10.84478576575158 14.241130262743539 10.602080112302264
Si 7.173756647613748 12.06306471866741 9.461077446321845
Si 10.298891633190605 6.8004931930633825 10.277136913175832
Si 11.197259165073751 7.310654965006854 8.122252426426343
Si 12.161342098095178 11.029993798876085 12.971604305117312
Si 8.705950316741701 9.036444617667483 11.829040735468473
Si 10.463454298055229 12.255358223113534 11.819369789886185
Si 8.315311096568195 11.309341325454675 11.43154671418873
