15
Energy = -67.74483972 eV
Si 9.657472727386867 9.543124112635628 12.273744317841214
Si 7.830961111093831 10.858333115281278 11.150914287463781
Si 9.726145488251655 12.225494077620665 10.215804374122786
Si 7.79520516101214 11.070528136118677 8.643229721013622
Si 9.77219668082912 12.364639428870724 7.6559189759101915
Si 7.725258043785647 8.38794417290764 10.697845662189865
Si 9.747669173855954 9.857990462627322 7.135424629985248
Si 9.703730961234085 9.705827905702241 9.704573043204618
Si 7.852876891141712 8.592852389373128 8.19723374490571
Si 11.680694059412565 11.022409437210936 8.710507422000413
Si 11.609307648310782 8.338775328144338 10.76482221562347
Si 11.577921337277594 8.552796446488635 8.259245006186855
Si 11.554834487095572 10.814475866714377 11.213657907374106
Si 9.684030581199156 7.182828668939795 9.186875171873364
Si 9.633684958298362 7.033969701364759 11.742192770304761
