12
Energy = -53.24051628 eV
Si 10.308563027838527 12.003210576117604 9.743998241566548
Si 9.936172087909679 7.4230143723447695 11.674526823514972
Si 11.700281545427256 11.24099159478979 11.81015040367465
Si 12.590977990568156 11.076064426908882 9.49324749421121
Si 13.800920507502617 13.091918837084199 8.885515136898938
Si 11.468650307745587 12.946560518243858 8.005502522302317
Si 12.113558325068137 13.549720789959201 10.360417777515282
Si 9.8318053965599 9.659572887476903 12.047696243351119
Si 10.029977941010465 8.059472680640715 13.972882223413583
Si 10.982172274187223 13.34083847157084 12.56578885161361
Si 9.105046562754781 11.910730007141069 11.757739814721493
Si 11.838631518491383 9.402895460914404 13.420390348013052
