14
Energy = -64.28031382 eV
Si 11.745510721157178 8.298336991717623 10.41326042222956
Si 11.296447205405965 10.380224513607299 11.635240870296201
Si 11.496519742953678 7.386571492627253 7.941687197478421
Si 10.390955235281414 9.317853226069982 8.625981628759497
Si 11.75602488945168 6.033611473476502 10.106305941939164
Si 10.901000492164599 12.015818208347758 9.949930085536577
Si 9.156243743517622 8.98909289380862 10.820036229241387
Si 9.636496104736812 6.941847604709045 9.54510963656163
Si 9.685667100917115 13.747722366263952 11.013948132339186
Si 9.910405254731646 11.553285815893432 7.779227857189802
Si 8.03455742674567 10.061704703926672 8.692994668550163
Si 7.258108041952652 10.414660477620671 10.981453086812225
Si 9.23027233533214 11.562002722045696 11.849096808628715
Si 8.294352457522358 12.362390332114332 9.495740258077268
