12
Energy = -54.55369067 eV
Si 10.097351860668486 10.578845092749525 11.058620262943641
Si 8.415808958481577 8.52327854547119 10.857781166459397
Si 9.36972310075897 7.11166345322585 8.7692735384394
Si 9.307646329391451 9.292833282578243 6.660601397690002
Si 6.997843945154309 6.686918418040199 8.936415416948059
Si 6.956147485079926 9.57358601584242 6.281859794301435
Si 10.038707010594 7.015780649626559 6.476965897587993
Si 7.762227650932074 10.807627558868942 10.2809569965101
Si 10.815746314139021 8.288545532477473 10.462921968817346
Si 7.002395012678807 9.079644023453165 8.618449020929967
Si 7.6689925847030445 7.321651460897159 6.713994836028469
Si 9.595723789767707 9.814343117739734 8.903569736232608
