15
Energy = -68.24432257 eV
Si 10.985593415341548 12.187071951973044 9.67059094380036
Si 10.618597956625392 10.983485681089023 7.500050810935917
Si 12.139116891440908 13.437119412795534 11.430823412442335
Si 9.464359316428073 9.373696186935698 8.844586131424704
Si 11.832537329183573 9.719975725138303 9.507022119349944
Si 9.387429985391906 13.357211892446381 11.064677988265187
Si 12.19792725494202 10.968453063993307 11.62580835230378
Si 11.618573937076922 8.704462385457527 7.274115228127211
Si 8.28440902819913 11.771781308336392 12.59659278247365
Si 10.6451893164016 12.466693667336783 13.045717013603259
Si 9.475442759958344 10.626240938566887 10.887961471109325
Si 10.723130539009276 7.673247055109358 10.046265177851055
Si 12.88853408044075 7.593889362404544 8.932275503338875
Si 9.510579061728478 11.36045625991867 14.727165059438693
Si 10.436075340071817 9.89950600334177 12.945159085144157
