11
Energy = -50.68212861 eV
Si 8.824237403132159 8.137263419633383 11.909327281340138
Si 10.107177465746995 9.395288494843648 10.398466249161071
Si 9.171982740160171 6.876678939429863 9.760856113620543
Si 11.29118719699081 7.933821034331599 8.828115861183237
Si 7.583952185360619 9.105736649349176 10.171804625971316
Si 9.29622467249157 7.575495576268439 7.36736070561356
Si 10.21795039127663 9.85516441796622 7.8209120263542475
Si 8.690379141344625 11.165362247837528 9.536884055100247
Si 7.054900440351334 7.438017244052257 8.457494976418532
Si 8.8417252773081 11.692356884413552 7.113465785614727
Si 7.811210403131017 9.576327513220635 7.609315307378031
