14
Energy = -64.3783947 eV
Si 9.061081960917996 7.902351003872589 5.743951741828544
Si 6.824688628952965 8.18619686510933 6.858940637904872
Si 10.140398086073025 5.961399773529142 6.663878781761889
Si 6.615523747046608 10.563734690677263 7.691452030867611
Si 7.800529709527782 5.909611951788065 7.212479196610161
Si 8.959418136702913 9.365675273461015 7.729362693037905
Si 11.096487235233052 7.957031483395921 7.7087211929742
Si 7.768338645032797 7.402177252818854 9.169003827186735
Si 9.968537603289928 6.106366019997966 9.092277931559257
Si 8.620702175081973 11.572110606026786 8.58170472796244
Si 5.546108785400613 8.796408581425883 8.954276801061331
Si 9.854522169324499 8.536052208115228 9.874790981767385
Si 6.5086019075694335 8.130429556475583 11.065367172926395
Si 7.59821465226713 9.973608175726653 10.016945724971697
