16
Energy = -73.72115029 eV
Si 10.535192139108961 14.454253203617183 11.891075766126718
Si 8.956372116031769 12.759999786258774 12.538259265112686
Si 11.444782549829105 10.347967147587537 10.985337850277649
Si 12.280137297144568 12.781414132000757 11.431983755429597
Si 14.336460689319484 12.847553502804077 10.271092973315639
Si 8.496137254637645 14.463723065955934 10.733089553724973
Si 10.08953902725148 12.679477210208018 10.143607690642032
Si 14.883854442481152 10.879302736808006 11.610527440097936
Si 12.093291589817982 11.282496752759332 13.259088688628045
Si 14.603558588242798 8.944741192661006 10.338224763587467
Si 7.61956642176687 12.065838652864437 10.552012606446025
Si 13.293149666726785 10.840885484695017 9.593539618821305
Si 9.723540351120667 10.862946220285746 13.80659355767533
Si 9.163296916502668 10.430117967229572 11.506627276676326
Si 14.188544368873355 10.430467261141217 13.897643911986435
Si 13.066586390305874 9.094881281181902 12.28548171415676
