10
Energy = -45.6331429 eV
Si 9.333901780979904 8.782634763754924 7.30902887630435
Si 8.1233821790528 10.781589420383897 7.0389794626882995
Si 6.813728256483067 8.604837451340588 7.49222457195384
Si 10.608525616917127 6.883254646816099 7.400618916695948
Si 8.2696621066638 6.6822990470168735 8.223761980570039
Si 9.379057316025044 10.425607350278817 9.247502034932891
Si 6.8100786454029665 10.576330976892661 9.139086101932419
Si 10.237998950302082 8.068216153565807 9.556044651376967
Si 7.77866062070096 8.551175003887899 9.845718114697329
Si 8.592949722740498 6.592000381330439 10.694980484116412
