19
Energy = -89.45775326 eV
Si 10.129108977536074 11.373503513326868 6.555743016145066
Si 10.522179635769907 8.822613958174438 6.756916949768909
Si 9.138648572526957 10.155567944358708 8.423244558574817
Si 12.448142701250479 10.386279978131103 6.5842478991920155
Si 12.398996295808843 12.63183100167053 7.560683831624843
Si 10.570341478686878 12.140015620688006 8.941360943398882
Si 10.646457954114188 8.437921039615736 9.32481619785691
Si 12.703269823929077 8.471262795328153 8.08297707356838
Si 12.981864430584215 10.783993777456907 9.107943176176006
Si 7.027698942245017 10.920590595004189 9.206858148509363
Si 11.11329602514896 10.37710262582641 10.57941460432634
Si 9.011028363053763 7.5300985251850605 10.781351606809602
Si 8.824910431204511 11.883186423036717 10.554287091891517
Si 7.207058988266959 9.07381604281881 10.690797353088847
Si 6.7649200854943965 6.658691086807622 11.261160657645352
Si 8.816634777141958 9.24422404156887 12.444600725838916
Si 10.075105103134506 11.27377205471791 12.517515134636119
Si 8.489747104441687 6.83507359474881 13.075291273792512
Si 6.566189206833663 8.436054278707193 12.986388654327495
