13
Energy = -58.75440999 eV
Si 11.486799481414778 8.156491332592232 8.294305503385818
Si 8.929075873989008 7.699744596074657 9.60856723629791
Si 11.64889726371216 10.23421222173429 7.2069638527893325
Si 8.750011993646982 9.132902311169621 11.999264061172184
Si 11.211451618893427 6.700985425553095 10.037914963586706
Si 7.430961617432853 9.757618801883433 9.888280305074236
Si 8.139525750931552 11.928184358234068 9.040022113604023
Si 10.809839359232893 8.98259093048483 10.619282576867063
Si 8.316285021343075 11.535291878697768 11.446158886815754
Si 9.680024959736505 10.108652725492965 8.613819463798604
Si 11.688881974853011 11.0105700335637 9.638041896877311
Si 10.129448012396637 12.73831061767189 10.325072185435843
Si 10.643600919550105 10.890891903643 12.161916946790145
