12
Energy = -53.13253005 eV
Si 6.416320099092048 12.604539095334925 10.313085874330554
Si 8.172154345772869 13.029954106654257 8.713117354742614
Si 8.894925992788828 11.891403974577317 10.517381033676202
Si 7.100491672057598 10.43876699431944 9.903359035586629
Si 9.161657004228227 9.341072788219954 10.490726388434338
Si 11.733039598519113 10.25563997264946 10.58760356852447
Si 10.05639185862232 10.713593051511062 12.241874717948606
Si 9.659742630062361 7.130348232450723 9.522581426423216
Si 13.236582978232965 9.07861533567484 9.058297456563665
Si 11.732527556973213 7.847415213484432 10.555855012721148
Si 10.742155716660182 9.251278020641665 8.564159880657577
Si 11.889656522338448 7.1648926406052045 8.231621531266857
