11
Energy = -48.94112726 eV
Si 9.564329896936567 10.450441605923432 9.712762124053349
Si 8.481129408212729 10.077318718954158 6.596272468596295
Si 10.607895639923765 6.745261557845756 7.985551993939469
Si 7.272460886054215 9.791892196882586 10.71981944272173
Si 7.841599780546339 8.811684684889523 8.603471607438543
Si 8.145607808134262 6.393680311757449 8.834682263779419
Si 8.679165158848983 7.590439163827804 6.626551132309417
Si 9.454960369414174 9.314678740825212 11.86681220197064
Si 9.702580853194428 7.867124600830181 9.974672152522123
Si 10.44408037908328 9.223924485490599 7.764152123761828
Si 7.4585475900840335 11.238511310586512 8.692301480701447
