12
Energy = -54.86463989 eV
Si 12.588677360209932 10.58185680110758 11.915375713915825
Si 13.140911507134108 8.30565960794783 11.970869222013295
Si 9.99799622437826 9.281515586191663 9.830695188701203
Si 11.696909299371816 12.813819971919173 11.985484997118816
Si 11.181520495154082 11.547950258560844 10.08974437387718
Si 12.403373856309658 9.182471220709171 9.833828192067841
Si 10.806067030215875 8.710166055302118 12.0338512427115
Si 10.012646559194854 11.137718316836951 12.481254736194014
Si 8.086842347021433 9.656472562062023 8.602157698792603
Si 9.826641713488627 11.447818131891186 8.139998931746803
Si 8.62403569442286 11.26580580257683 10.48609340795614
Si 7.6217235438434034 12.212573731633087 8.67233170083769
