13
Energy = -59.07778817 eV
Si 11.559997970816289 11.294862248214507 12.702413619778985
Si 9.811475784902376 9.904206578378714 11.779610162691
Si 9.13372534338852 12.216798256714174 12.489443060555052
Si 12.25888020020139 9.747642518834564 10.890233735657311
Si 10.93303741832913 12.144061069303811 10.465028872887515
Si 10.433148278466001 7.89166557339679 10.67844662218606
Si 8.549675260812645 11.417336895863528 10.372228245658997
Si 7.340774424068771 10.205326097810008 8.613095019226495
Si 10.925736928722232 7.903477125577684 8.074469086666069
Si 9.00539141050037 7.399572201160856 6.7936847382238765
Si 10.529921425169999 10.037874258028365 9.23181168629644
Si 8.515606899217985 8.138543672375622 8.97685767680936
Si 9.272678701775995 9.807464010982729 7.162922930057822
