12
Energy = -53.25554946 eV
Si 12.630526166430897 11.676605447810058 11.455990046670005
Si 10.926780761188837 11.444128095980163 9.823966359263792
Si 8.718683410965838 10.829605239429139 10.662669090238463
Si 12.739368956702329 9.59245466716469 10.129843375032364
Si 11.057311419250523 10.089084156982072 12.023966677614256
Si 9.188343242723073 8.603373844877888 11.690289240748683
Si 8.077609326306083 9.327987054902598 6.474374266413425
Si 7.927993506428607 9.52549088018582 8.83426928384767
Si 10.465671777214467 9.008415622708416 9.68245142452225
Si 5.90982085361032 9.061613120911364 7.500311620787755
Si 9.481112130161621 7.925110592850666 7.778727808792505
Si 7.268183446949319 7.296903180047948 8.33705632623276
