10
Energy = -40.39640259 eV
Si 9.18534000574956 9.548745973155356 7.153646478921815
Si 7.484699455927038 11.177549739665874 6.9321958991486685
Si 9.339900686508871 11.609833850788132 8.111313768526433
Si 11.66176053448094 8.381169081139284 10.52071053951109
Si 9.427292844885587 8.759736749339092 9.618502751584657
Si 8.934385976807663 11.062100553247653 10.271011033877707
Si 10.67908156011783 11.760114266398684 11.582990568574346
Si 10.238196980689576 7.9581801685185445 12.200430479554528
Si 11.123469079337069 10.054469197086632 12.964992887113437
Si 12.669875554894583 10.432103100059322 11.388208272585883
