15
Energy = -69.34294112 eV
Si 10.800006577547789 7.595936567235508 8.002715907338798
Si 12.91835401204561 8.707985048478461 9.137535809040655
Si 11.730800390734025 6.586029216017537 9.874526542460533
Si 9.88018592631 8.949004937426407 6.316847074178287
Si 11.614497716775977 10.08764160607687 7.588941174610911
Si 8.929560454445847 9.312684875412721 8.456234246011938
Si 9.85043991209763 7.956683429997132 10.407446455454384
Si 8.611861985107653 12.631601254631667 10.270900004462606
Si 10.042378504909262 11.34024557207181 8.986947622398501
Si 7.696893961061468 8.289874767459843 11.470122639693303
Si 6.994738865459477 9.758767684033188 9.782731798563663
Si 11.289207415522146 9.823514279828682 10.413770390792148
Si 6.391376034853498 11.871049522230743 10.79189895003703
Si 8.179919624634094 10.566723592623328 11.869549208240109
Si 10.33267077186839 11.683751241058195 11.627958307440494
