14
Energy = -63.83572233 eV
Si 13.740783314248818 11.482152350549569 11.271635269521004
Si 14.599049041367694 11.312217437015782 13.495189512320389
Si 12.352423722883756 12.151009531555422 13.355375346903065
Si 13.061466647980616 9.572288051656486 12.903856489688406
Si 13.110895270225825 9.213473396244433 10.48522594830236
Si 11.464184600080612 10.933836710862991 10.098283343016815
Si 11.934389023964059 13.108091305032863 11.156385149628301
Si 8.582094142607854 12.57928268937518 7.097308316110505
Si 10.902934874304249 9.112082675570031 11.756546313400523
Si 10.950613948929359 10.185687613329304 14.031062555892255
Si 9.401943704075498 11.16733681798396 8.719898987997949
Si 8.173184479532571 11.190766295624792 10.810720729060234
Si 10.239894107339746 11.504281899852389 12.132771178762955
Si 7.833875831235781 12.905600034191723 9.286780190171255
