13
Energy = -59.73742556 eV
Si 12.120793296515393 10.883778897008384 12.129048004462598
Si 12.364800160437188 9.00186975378796 9.997324689765767
Si 11.916434278683132 13.12118344203708 11.30657912950265
Si 12.511332592577759 8.56890245922576 12.307200208112688
Si 10.013107296610253 11.662867180083655 11.036150427542802
Si 12.302852130650766 10.096923355979474 7.870612406406002
Si 12.111605566967086 11.764772926637397 9.454112589958461
Si 10.344638303213868 9.252299778091466 11.454943793747814
Si 10.227693438347407 9.947369088998789 9.0923977550457
Si 8.039717594969114 9.035325903613394 8.691138673372468
Si 8.017969388149826 11.251421463962753 9.468238276179656
Si 7.71513502752033 11.672491509404072 11.757710565037115
Si 7.905614028405012 9.285154071117697 11.148740559086411
