12
Energy = -53.05754269 eV
Si 10.822331904219073 6.777110314664758 12.878780923059194
Si 10.989440988081586 8.551245260722677 11.308520249195704
Si 10.818443565832869 9.064066339144008 13.663826541954949
Si 9.31751343147748 10.072128595715222 12.180542875011211
Si 8.798625499856149 7.820003864027064 12.071570209410412
Si 11.406201896015867 10.177609112290096 9.657703632142333
Si 12.226243043943672 10.402050766108559 7.445875691757173
Si 9.739652566634703 11.626489980247355 10.347697282682272
Si 9.672477188426008 10.5400150573401 7.923391269129388
Si 7.653932909814332 11.255585759691233 8.889419965322446
Si 10.946979442339392 12.333435454152594 6.898905463732164
Si 9.289883939961149 12.978092521992355 8.44766599837755
