15
Energy = -68.95971771 eV
Si 10.539820741385316 10.253074311196645 5.9965255433691595
Si 8.264463415069757 9.592389624675423 6.344584666683333
Si 7.938359406197991 7.41929853018284 7.319407699229296
Si 10.205942936323884 8.12848561446939 7.073585433673696
Si 9.403473203871178 11.357338075117168 7.877019645804049
Si 7.06777590708591 11.072135685203333 7.825403486657282
Si 7.834821600961666 9.167855061207426 9.002244732505865
Si 10.541660139813388 8.389349776775138 9.346429709549232
Si 9.759209159463166 10.695278004329626 10.14446881980611
Si 8.003017829269002 9.09379654688527 11.446542982075059
Si 10.107620187115602 7.6509206692765375 11.5323718884249
Si 12.012289940167285 9.508659358225055 10.807072372099432
Si 8.387653653720534 11.4030532699732 11.938987709366172
Si 10.230604794897797 10.03484138794085 12.552260635492093
Si 11.862736214064336 8.392973213948936 12.952543804671809
