16
Energy = -71.86074669 eV
Si 9.20672304581294 8.148082966511431 13.292271805108784
Si 7.06141001116793 7.317190692108411 12.656053761550442
Si 8.70922023904576 7.567849966763602 10.994245342419704
Si 9.478666092299264 10.463103353408027 13.51806441924155
Si 7.505205273683585 9.657850604444684 12.244956649347014
Si 10.63253804730877 9.997722767587883 11.439205211328568
Si 10.521057361720572 8.322993201949377 9.69616198172259
Si 8.657698090032929 9.94725783654283 10.045117991212955
Si 14.601588606711292 11.414255410582324 9.67752526277208
Si 9.54920221495196 9.732764296832906 7.8620622262835465
Si 12.516714602575759 11.365402867880654 10.772473783399576
Si 10.44024664892964 11.49268927741632 9.231204816163975
Si 14.562964011429182 13.820969071365973 9.614535524823166
Si 12.755573186587759 12.586410467633595 8.523133865404471
Si 12.46871676705352 13.722024898787604 10.742404141192763
Si 10.715211391783367 13.831357653622636 9.023536062004883
