12
Energy = -54.58601387 eV
Si 9.547756222778142 8.212663564159103 11.269862500925177
Si 9.69905376128574 9.504270452027837 8.143318142077076
Si 10.44330203845822 7.205494441225351 9.069934319176777
Si 10.218682275451028 10.67317010408394 11.369362901185893
Si 8.038086746847423 7.785939193172712 9.221824880744778
Si 7.932779647815027 9.981370351244315 10.493630566735872
Si 5.986198257430962 9.073729871115493 9.555041545420636
Si 7.4815225972718205 10.22327543069516 8.031107707037826
Si 11.818823624070118 9.000391523780321 10.298728766598687
Si 11.918095446326811 8.966523336145487 7.834150540880016
Si 11.448222909355254 11.157453057878598 9.071708954070989
Si 9.058859606285173 11.807101807847001 9.232712308522132
