10
Energy = -44.10129327 eV
Si 9.972863147908752 9.420515830322072 7.073202957700811
Si 10.539580166198709 9.657001557955624 9.520701949702447
Si 10.806450434149022 6.835660116764821 7.579032673578698
Si 8.806156777037353 8.542413317391171 11.032745821855446
Si 8.217071372995669 10.373862095925935 9.29204123947108
Si 8.888482431082686 7.308513322615693 6.283839272352866
Si 7.42466345715141 9.122892215248868 7.131238063300848
Si 8.997699071039909 7.757107249748907 8.735964768894995
Si 6.81073394986843 9.925854792312709 11.130829272703199
Si 6.723650259821552 8.214026642067767 9.407313115613134
