11
Energy = -48.37018881 eV
Si 6.18001650121055 11.026188465637052 11.249853468190606
Si 7.41798686040992 9.083214550078072 10.969632186799513
Si 8.355538117860739 11.503211433144829 10.271893079771282
Si 6.658184584887747 10.569845732790741 8.883250041091754
Si 9.638866098566533 9.527398983001296 10.179799412772104
Si 7.533520648734192 8.40733207105389 8.696270091796645
Si 12.055909279149072 7.124654179951935 7.458464625751866
Si 10.067869310809659 8.387309212431573 8.18491643500975
Si 10.073284776074743 5.97816358140882 7.949751088435846
Si 8.28980342036561 7.134277247629321 6.863729446444086
Si 10.369393028961914 7.891423057536541 5.896188646595258
