16
Energy = -73.69516619 eV
Si 7.754473650743335 9.55158369849454 6.150255806886466
Si 8.773422370343267 7.383652747794682 6.882483564737961
Si 11.532258645301159 9.771165090331195 8.568452351466059
Si 6.346086936498869 7.604000747526543 7.28291239297456
Si 9.210774752617947 9.477892472100335 8.192871433135481
Si 7.707413895072428 11.436216428773692 7.878403578682709
Si 5.792099602002291 9.91628880272291 7.8521141084793715
Si 10.818245041804632 7.222568736855172 8.75985706824802
Si 5.741602953580024 8.241037587922666 9.683991325132988
Si 9.843253702892381 11.22691083299434 10.128824037626247
Si 7.439193907143385 10.01404428691491 9.870895328540671
Si 8.04532047322723 7.586397350588517 9.24116876790616
Si 9.687128316132766 6.602351939819249 10.822255992393321
Si 12.48632492916597 8.08418541322307 10.33388300433036
Si 12.111027244870892 10.441135876812355 10.918216286287333
Si 10.186279017721445 8.915473426243844 10.908320392289706
