11
Energy = -49.55757232 eV
Si 9.705517858971083 7.854819542638772 6.8717387230080975
Si 7.906604111995978 9.62233369866417 7.7283446063371635
Si 8.69351394311635 10.545588175092046 10.016145358620589
Si 7.5653657532041825 7.008447661929654 7.420854622077645
Si 10.257947523927971 10.254801115487098 7.982057140949425
Si 11.537713451232515 7.967337013718648 8.332104028030473
Si 9.47908465776592 6.479435931473271 9.066961646516171
Si 5.736547468888499 8.676678826353326 7.902159331863606
Si 7.762946761061818 8.078901639486709 9.774280451077432
Si 10.306489240228897 8.814986452659518 10.14427456115988
Si 6.255283604456874 9.903684317346436 9.968093905209022
