18
Energy = -83.59641458 eV
Si 12.645077626064372 11.048718822138586 11.32843938917921
Si 10.76402110232464 13.406501444022346 8.462355633572896
Si 11.130136331035773 8.06200343963782 9.377052883512683
Si 11.338452642029893 13.10017657181265 10.87910998510067
Si 13.059452040977456 9.71902652856033 9.314155478380274
Si 8.787850974424845 14.055321308287295 9.948551416412842
Si 12.590922336463766 8.327196631831049 11.439815546928036
Si 11.508245929612913 9.787486888602595 13.171419545709913
Si 9.320839208731414 9.681536468055409 9.894216083015563
Si 11.117282654807992 11.14885094386116 9.231697092464245
Si 8.630701144301717 12.14294976700327 8.48305692940359
Si 11.23815670530691 6.276357629149821 11.119676830740428
Si 10.093844304308753 11.062473696657404 11.717458406189731
Si 10.041791489711612 8.225851041566457 11.851217204938886
Si 9.244572076624802 13.237666633044915 12.304984119718293
Si 7.744538593131498 11.990204564379809 10.796118564505369
Si 11.000302678315702 5.782040552037544 8.887132975380768
Si 7.166647314704211 10.3479174737456 9.143395889523108
