11
Energy = -50.68094857 eV
Si 8.198439932376424 9.061313557048951 11.049039292445107
Si 10.168467482061631 10.70142383761969 11.73611020702148
Si 9.672253868425555 8.727708745547025 13.017290501137634
Si 8.33399303346577 10.491814053484152 7.4788107619593385
Si 9.162210556064851 8.773863029540864 8.84401430494049
Si 10.778859025748355 8.504071845128893 10.897585875813146
Si 10.516505854175115 12.451200697949693 10.097216413307708
Si 8.5218305836934 11.073855710085637 9.7384256156029
Si 12.07950320989132 10.498595136659704 10.138119268361772
Si 11.589522790776444 8.578377684148814 8.617820476531856
Si 10.736959569768619 10.9153426504338 8.076277898023736
