10
Energy = -44.72980589 eV
Si 9.03519786123838 9.774478052923374 12.027002932792064
Si 8.86241987639497 11.438754369383323 10.257036415974587
Si 10.473961940686268 11.12021765687852 8.249077326450513
Si 10.063078322378564 9.262187744500228 9.981901916899698
Si 8.432019717548055 7.498780859351056 11.151366605560074
Si 7.474580151760563 9.421180997626397 9.897353732007623
Si 11.006924976128143 8.711037259138395 7.8094074655006125
Si 8.687852031891339 9.704324756579258 7.510771214120062
Si 8.883986932338166 7.434689777731613 8.782473356186895
Si 9.229290736319962 7.663168907380108 6.4452167220420815
