29
Energy = -133.73034183 eV
Si 13.390542268823696 13.173177987319226 16.63229550169209
Si 15.645982412270966 13.630436443497263 15.24243541736443
Si 13.618795610060808 15.15163070318564 15.484765438635305
Si 13.015720634028803 10.888234288309668 16.965744565678982
Si 11.094171908785201 15.097949293639621 10.311023401999524
Si 11.923584912250213 13.767376066836349 14.309168582151523
Si 14.8342537426396 11.382624101584437 15.514124545658628
Si 12.232707993858345 11.433724571396569 14.755387431628765
Si 12.124706915208295 13.634686542252151 11.966298266532126
Si 9.192181886756147 14.870913673321951 11.871807225900849
Si 14.178572532517485 13.003604462614168 13.48015304382454
Si 8.885660086678945 15.906881278342041 9.391715501918444
Si 11.674466995043979 13.475122285983494 8.408968880769883
Si 13.262547444960326 12.584641051809639 10.086135341332879
Si 7.015510326780457 15.116782082489529 10.690570775547926
Si 14.110212458512025 10.360890127519689 10.58188809544676
Si 15.803771510557004 9.540989258503444 14.236833880880488
Si 7.741242723838006 12.806537147625821 11.370133217034999
Si 9.97665559271751 12.90326408032663 10.265433280352687
Si 11.560121642859603 11.34904558736684 11.610947646665219
Si 13.915089318362403 10.670143043624655 13.041819366197538
Si 14.225188154731844 8.15545976259758 13.129410677667842
Si 16.108885178501065 9.599778195985024 11.819764527158638
Si 11.401316263843093 11.121880307271391 9.224659320736361
Si 7.977251769145481 13.656327106706252 8.913235014588622
Si 5.86643214466001 13.204000554845166 9.801696471634536
Si 13.204177038690878 8.446108804747544 9.57712956740091
Si 12.281619448177178 8.97753886438651 11.72006462061834
Si 15.105174261870772 7.554943872652867 11.022056338490472
