28
Energy = -130.80996615 eV
Si 14.254179921198903 9.639668425059114 11.579577338025235
Si 14.448036617931722 9.983056240243009 14.02520006788476
Si 14.647368212986809 12.140901848877272 11.631400613200837
Si 13.566695222717854 7.52891590936363 10.585279680930716
Si 12.125037423810467 9.557983175274627 13.845714909242123
Si 12.725164469489401 11.352395611551291 10.610410765683417
Si 13.22097061319124 12.00215812649486 13.615321292617063
Si 12.505255862964116 10.63940225732685 8.346231924133928
Si 10.490039847993549 12.211647081596183 10.761675586257237
Si 12.43628457448621 8.361772575561949 8.582672008629073
Si 11.908030867226797 8.947029919287518 11.614065100440582
Si 11.32604377149649 13.466349929937882 12.734373450337664
Si 11.054666072942519 11.574255366263472 14.4202124507857
Si 11.38721895306895 11.86977083299535 6.679527350722742
Si 10.788760501279652 7.588248942976457 7.003540130212344
Si 10.104824862554182 9.800964708250778 6.604257934750708
Si 8.594855826347203 12.9164961431927 12.054498779761156
Si 10.594171146012865 9.620752813103312 9.804761948034301
Si 9.828699194492744 11.984774881294923 8.450094751558863
Si 9.001436315307396 10.424746448590914 11.681276040995384
Si 9.158923118119947 8.296172443515754 8.590021412028914
Si 9.43386148996362 13.321849332264652 14.300329929381824
Si 7.51408992047846 12.30466976105056 8.25786925263982
Si 7.885829847953214 10.163474666893862 7.300925845485126
Si 8.271539613186146 10.968020550379752 13.864783887798831
Si 7.26753117400764 10.617186129906967 9.940273080044095
Si 6.809025940474597 8.57370615738507 8.726456157829547
Si 6.6642426777724415 11.602267863519007 12.073251939443217
