21
Energy = -97.30697002 eV
Si 10.965753490336235 13.108869726373065 9.517993133061555
Si 12.720911064532899 8.232165267339589 9.962611406840306
Si 12.368083839344159 11.09054276370552 9.741197862876227
Si 14.430012774743146 9.928579744753552 9.882462682176524
Si 12.17749212239932 5.987828179217959 10.904064477685424
Si 11.916212124990432 7.7293430950053885 12.338168063668421
Si 9.517788402182083 11.296496287237803 8.437573310009707
Si 10.165495550820658 14.637020115984265 11.133145756139218
Si 13.148133739055636 9.981838628805011 11.933898353901016
Si 10.787342189541725 9.290019875715615 8.999217368262943
Si 9.582776378601775 13.384338572664731 7.406854876022347
Si 9.758948908864657 6.527482400899795 11.36158083645691
Si 8.382628293249129 14.01330854124097 9.599809084253893
Si 7.879793981982515 11.299021467934468 10.112082470253842
Si 10.618682303228171 10.354861316662891 11.274878822086322
Si 11.288597480005615 9.650305869638657 13.561918215870666
Si 8.907206110064571 8.279368141238146 10.072395915095676
Si 7.241509678902146 12.593928865692256 8.140580448244458
Si 9.458071034418632 12.427288825424238 11.524723195170552
Si 7.145355820487281 9.276080949680605 11.261166080280328
Si 9.175015938742927 8.564183481927786 12.56291505391353
