27
Energy = -123.89011904 eV
Si 13.600853365825207 5.268142852952408 12.813834302226041
Si 11.474968267006126 7.765996012357361 10.301092354350802
Si 13.464216332122604 7.39454113155524 11.693362980003847
Si 13.666056689668187 11.521151702594766 10.860253442534203
Si 14.312896643847315 12.851145716854782 8.988562100906591
Si 13.028579725480064 14.109228364331674 10.533723716742143
Si 11.566144833940704 5.8739404611426 12.0859290395936
Si 11.81450424736179 8.892848857701106 12.67793859894362
Si 11.528876334048855 10.425239804526065 10.77767879125432
Si 11.699697778062829 12.755640251344825 12.069486189313492
Si 11.99523967985102 12.329948675842274 9.070963501482334
Si 9.671202261032525 14.204674787344482 12.351002456495701
Si 11.233693842341058 11.582480509416005 6.898666195956483
Si 10.611867312734152 14.315790835495587 10.171395986536208
Si 9.906418693600626 7.520536976854826 12.483900809366123
Si 10.880927215434388 9.276398315522885 7.558418989576887
Si 8.967575167763895 10.603867193099289 7.24546534629247
Si 10.459869037539928 10.889869619490115 13.05418041932823
Si 9.26869916190777 12.723758851598154 8.912088684002187
Si 9.18939200031051 12.889998432410335 6.5511638932862875
Si 7.633874841221642 7.619216088616678 12.082012839053434
Si 9.026957953069989 7.800348680896734 10.025081476856625
Si 8.446987697111288 9.862609778838607 11.73031082323019
Si 9.559932891597951 10.17995313347465 9.539356589683976
Si 8.367021138199716 12.231780402348901 13.02330613012415
Si 7.932516476976721 13.447322538905313 10.761508497022648
Si 6.702519228152857 11.531435045833268 11.530819437675174
