22
Energy = -102.36796836 eV
Si 15.770385222676452 10.035531814784557 12.259001523141714
Si 14.60513879133102 7.934536474580199 11.91415643193196
Si 13.693890769956575 9.730391536589284 10.649706867216773
Si 11.995297088738127 10.797354894551887 9.366953175015148
Si 11.786317383089955 13.119503494700021 10.098833113267602
Si 13.470019310145279 9.502786976517656 13.276714153043503
Si 9.72825338376117 10.243992698568931 9.685211547267482
Si 13.835924492927829 14.020626812230898 11.078111053473506
Si 12.006928798968902 12.981527545208754 12.645243321589167
Si 11.745691209720174 10.705015555919541 11.906718044494804
Si 8.661549840794645 12.36999623625499 9.339961608164359
Si 14.879999858892372 11.313470822445954 14.103106044355513
Si 9.952541660604268 14.477428805596832 9.49044992467944
Si 14.261990504406892 11.843730977164528 11.7009012253902
Si 7.769651617004382 10.310876294894461 8.320499319613829
Si 6.7660289431193075 11.4631647149002 10.519906578197324
Si 14.016057610495222 13.682453763717048 13.654357661672611
Si 9.669779333642149 9.298610851944797 11.993051669329473
Si 9.960175506969852 13.901930749627981 11.87302839457199
Si 7.617546643417171 9.03955851686061 10.441625627011039
Si 8.993341385468106 11.740642099070575 11.708387052241704
Si 7.480610581436282 10.236402644492804 12.707827705319476
