23
Energy = -108.44286461 eV
Si 12.396398340079411 8.589424286244943 12.918024185360714
Si 10.423443753017487 9.347538962770344 11.694087624906274
Si 12.443354752085934 8.612656489845438 10.534105747091713
Si 14.088876169902703 10.014619291160896 9.565032671891055
Si 12.649055601071687 11.820330989480565 10.231522193069928
Si 14.572497814885743 10.769720849721594 11.788583540861886
Si 14.405371978937808 13.107298457428156 11.808546548504356
Si 12.589622843566453 11.790267562556863 13.290026424063392
Si 10.793674467132726 11.67535816754347 11.7240641261422
Si 10.095800680773761 13.927112117702915 11.732169160581417
Si 9.871020491872759 15.472899623124352 9.71749111459961
Si 10.718872473659586 16.939461584875822 11.77265346520857
Si 11.9429845212776 14.937329079672667 12.970236073095565
Si 11.989614629158668 14.960092424667792 10.586209970424967
Si 13.817296079636881 13.822924112704404 9.597197760896766
Si 9.79211025479311 15.434679803601759 13.765484148527893
Si 8.468027315252117 15.756913716267329 11.717861817343653
Si 13.730533366138335 13.78026983683044 14.00848036800589
Si 14.003256139241058 9.971373116977574 13.976412450271335
Si 10.418318307438055 7.818689190612373 9.654078742863332
Si 11.467586109393856 6.453591272805473 11.686368193032768
Si 10.338416998774713 7.778836969342498 13.701718135651701
Si 9.071375500720631 7.306120682872914 11.647154126415272
