23
Energy = -106.30288221 eV
Si 8.303530868912265 12.110306661470545 11.685212103929652
Si 7.738373020419789 9.914034349278213 10.998598082995771
Si 9.7051327916438 10.284792084512517 9.594133188510773
Si 10.135894592467828 12.429814113327613 13.15818127311662
Si 9.346861657797941 8.79283226773986 12.457158109093578
Si 10.68791180138398 12.42417773126024 10.641380329268058
Si 11.8238380608758 9.240704623656507 8.600352296238222
Si 10.831366544757227 10.216690135928008 13.60557716153845
Si 11.225184735379647 9.256429178046876 11.184087883930461
Si 15.241856042500885 8.582201398554522 10.464233196560844
Si 12.96510889668134 7.700436030424676 10.250747395303321
Si 9.569225094830765 8.411135077269723 7.906372498156363
Si 13.723635935538535 10.294473123747713 9.897372323267934
Si 13.206073219343176 10.586272003587265 13.954199818412748
Si 11.566323804977605 8.884735114759282 6.351813922984402
Si 13.719556800687162 9.057960920922776 12.142115563373592
Si 10.342133117247252 10.909491726228495 7.29546317369988
Si 12.460461714382985 11.359701480955522 11.806644798010305
Si 9.291659214462623 9.387670595014477 5.791021265879339
Si 8.142481418325694 14.025384763816215 13.342913538103481
Si 9.597968138164306 14.57284974799039 11.390449311994265
Si 10.422586828410113 14.731499933290499 13.646496710708607
Si 7.276351589910537 14.20020805280577 11.095742447345245
