27
Energy = -124.68692587 eV
Si 13.3138150580929 10.636516377018253 12.365719923166559
Si 12.141206504446238 11.682217593451114 7.086896883793888
Si 9.835674006462547 8.955036194161373 10.53679026830579
Si 12.207045362096002 8.744231592348742 11.164447661744331
Si 7.475564054804199 12.446473258776066 10.473867141482332
Si 9.932421377543596 11.842245933824968 7.872620332588842
Si 12.57623059624506 6.896401974753342 12.872460906518512
Si 6.552991149231352 9.855965757528354 7.249552146947784
Si 7.198165471000947 10.266193460355876 9.618346502424833
Si 8.53310637540031 13.911997475818245 8.864283180320749
Si 9.231986422849198 11.094170004078524 11.470711104951542
Si 10.380804771941392 7.7931708047660395 13.125516864658387
Si 7.511825275396064 12.140462670316964 7.7998547682878785
Si 6.053744183731357 7.302319875923127 8.225731994902459
Si 8.069482468850335 8.055488411019168 6.617862407337457
Si 8.856220464249171 6.891943291282378 11.31740878727868
Si 13.012337923130724 12.254689300062138 10.48107702092415
Si 8.290413927526401 6.931632802925461 8.82994903030528
Si 10.8291950336589 11.854564478797393 10.001463122998807
Si 11.461647619251385 9.436772839595154 7.198654113486846
Si 14.224152087606527 11.80681778055301 8.415946870892263
Si 12.616199183210451 10.16269456519661 9.174670316052266
Si 11.244730007746291 6.516265748399565 11.01289096116228
Si 6.721148384129918 8.104723320897953 10.469503206578745
Si 9.138976758033207 9.490469133183321 8.239034963306029
Si 4.956011089253805 9.436006213292488 8.946510608829946
Si 11.0074051434721 10.181674246172907 12.766462255132227
