23
Energy = -107.04866796 eV
Si 12.512863691040943 6.333959068326488 9.350916972265678
Si 14.135278489826153 8.023931616948003 10.363655684489627
Si 13.112865147911757 10.091751025466996 9.221868289364988
Si 12.421449858018741 6.945391175041906 11.857554155212057
Si 9.14505499268864 8.53330687589493 8.86131340303455
Si 13.746766621065289 8.072447970231284 7.897589834463757
Si 10.56838675543472 7.357893863081884 10.363226008361114
Si 12.363671431677812 9.33678783311919 11.54084405854231
Si 11.415585193032319 8.315138485739167 8.163333643458659
Si 13.31360568047122 11.117231685806631 12.846874145159106
Si 10.744013380089362 9.985683143465227 9.932153246124411
Si 12.912553757059332 12.586666135216054 10.942485642990038
Si 11.370243892656791 12.480752341601761 12.914905525265626
Si 10.601189495209336 12.326164887717185 10.336719624976691
Si 8.893738787801894 12.070510961860005 12.232603430010492
Si 12.60502264440546 16.237689334055368 13.61474482401823
Si 12.226272554693189 14.638212852902466 11.8816775097709
Si 11.61449524595487 14.337107673326317 14.668189119846591
Si 8.537155349041674 13.463234723739944 10.138813159549796
Si 9.895648912566921 14.735545737023719 11.58541720354648
Si 10.145817469751687 16.159085745805278 13.637840579455556
Si 9.220123313725724 13.809841792482272 13.804961853543139
Si 9.53455563116578 15.052216663325508 15.726270966481335
