27
Energy = -126.63180868 eV
Si 9.234561006305775 12.590476199235438 12.946879179081392
Si 7.817114985599641 13.08391765219102 8.386614411295943
Si 9.374544217098121 8.25520443827313 8.930016980731622
Si 12.953833714795003 11.155793261971482 10.774144317650565
Si 10.306420348329592 8.956795872398688 11.234641016077948
Si 9.019219907164398 12.550895344121425 10.617514318522215
Si 7.92596540268209 10.77556602438986 13.997091667323877
Si 12.368939625407856 7.70847427497489 11.431353535809556
Si 11.553970902005032 12.632243405999994 12.589378801324411
Si 10.617779619181766 10.785969927207539 9.63129606468802
Si 12.92447791354373 13.534071272603459 10.878342915330231
Si 11.044750950052567 13.309526030170552 9.400851484388935
Si 10.091157272689621 6.651657691783898 12.299863357044499
Si 14.009330464591239 9.43402628786242 12.069219607614214
Si 9.857717879242792 13.860520742179075 7.269043767939439
Si 10.064016532569301 10.119347478164915 13.338443954390039
Si 7.310972036214646 11.050148703769006 9.56887198008076
Si 10.901489212950933 11.577045901275463 7.338726101108243
Si 11.189071891482996 5.9119188242653475 10.31499009902912
Si 8.279888527138532 7.68486276256061 10.978469137679138
Si 8.020126282945492 10.024579277981399 11.69811520301217
Si 12.367262821484562 10.586551573227602 13.303536908939941
Si 11.935469334009051 8.337485677813955 9.128186728789464
Si 8.81762740419175 10.354126581378114 7.802923070677366
Si 12.858745193337157 10.458128192643029 8.46529462340123
Si 10.8477783644444 6.631771777799283 8.0334602924702
Si 9.149130187499821 14.77369112086681 9.54217523476699
