24
Energy = -111.72002458 eV
Si 10.302702198563342 6.6271987751078925 5.898634772003231
Si 8.375489542986722 9.35424703318049 12.604815015150477
Si 5.389878080508441 11.558280997212737 9.716737144566915
Si 7.6012319123407535 9.91156525560943 6.7026720985689705
Si 8.203531513385393 7.843409915024561 5.797097320747167
Si 4.968549856534304 7.476981015609291 8.165794593706952
Si 12.092380305295602 7.872217076970665 11.530988014454914
Si 8.536247244230522 5.968884110400511 7.436884259804133
Si 11.862593878836694 11.54027523422407 9.199382626869296
Si 8.672385856850877 12.005250906516464 6.634828240399004
Si 10.998441048314248 7.085598529630205 9.411956229508792
Si 12.354322906618586 9.172414577727714 9.394017220813403
Si 7.560993497406028 11.674859057126413 8.793728237326182
Si 8.578645420796287 6.7342984693993495 9.693064914849158
Si 8.897588733909886 8.846254718107113 8.498935436744505
Si 11.174310511583323 8.390698050078344 7.37048180237206
Si 5.76558023113271 9.723935209824178 8.15308179922804
Si 9.536789996931502 7.239824181366416 11.867482089557297
Si 6.868495321817047 9.983269862253097 10.839526352040057
Si 6.459456545846764 6.46852565393096 6.50155064332634
Si 10.622589945000241 10.730850481192217 7.41073346644198
Si 6.586899327619881 7.946133151392888 9.791477760933217
Si 9.602899645025616 10.795719942954054 9.683191808035899
Si 10.40105475335498 9.549054592331915 11.469320813146144
