23
Energy = -105.71787416 eV
Si 12.951947601528918 10.190869318199596 10.661114235701001
Si 12.759406481940031 13.310121973794223 7.866823796945434
Si 14.798897247277988 8.440347304315155 10.11470377113628
Si 14.494255848175447 9.439621713647664 12.236353103291236
Si 10.679250112767152 12.7812399648442 8.714213518407076
Si 12.662880097559242 12.638296174214657 10.257931733152631
Si 12.271677316450122 10.934792605914318 8.302311657475915
Si 12.624913864580915 7.799236001223323 10.269703135485221
Si 10.134795661745889 12.583079138574872 14.00901501753628
Si 9.530540940826688 14.618990308411188 12.757741005405068
Si 10.233743504735589 9.86841832337534 8.925559909363225
Si 7.756674192551488 12.866223568011657 13.237123306603799
Si 10.754752749929336 12.777593374525823 11.657017375681097
Si 8.279822756541748 13.106987930585502 8.618835821158758
Si 10.646903739992032 9.401241085003711 11.252262258454204
Si 8.54562821898203 13.231322608904682 10.98843258003393
Si 8.25374291019573 10.867248834830942 9.422813061356921
Si 10.694323430057668 7.387489449766695 8.842797693992953
Si 9.095428847632387 11.073068914666603 12.128764001957002
Si 10.827119949067272 6.8721148070513385 11.555531613972526
Si 7.294906053802801 9.603909994738158 11.160605931441149
Si 9.409149988148506 5.7008079993722225 9.984896671312885
Si 8.777180443287826 7.890674405555992 10.434915373641585
