27
Energy = -125.84543413 eV
Si 10.152097304009358 11.737078352201914 6.9431329527250805
Si 10.761084422662796 13.387120144228676 11.898683415498404
Si 12.404951098890281 11.852990528474166 7.398899838070976
Si 7.860596790251366 11.424122946805818 6.9588270788257685
Si 9.174265745446398 14.147448719237854 10.079967560839503
Si 8.039178019746394 8.307011377103862 9.271158973420334
Si 8.955766509833444 4.625973400468392 8.513405624730014
Si 7.0236991177371255 8.561694097400899 11.814878368728062
Si 9.877009099750797 6.709642909897304 9.223623188971008
Si 10.37646055175837 8.559649509897884 11.58564036469887
Si 11.506788953171311 9.557487334782508 7.669842120013173
Si 11.03512404547435 12.793479825056703 9.292174087805844
Si 11.851025886695734 7.985713747702464 9.70213452084824
Si 6.732878965760681 5.374584662236395 7.488418230799925
Si 8.378753666159321 6.606259389501554 11.142780951872567
Si 10.337784087262223 10.975118707560462 12.573194706830023
Si 8.663166770912555 6.883333426602784 7.057366733036699
Si 8.481311933409645 10.337379168982759 10.968097982715415
Si 6.3167058177994635 7.75278267980112 7.586523339853803
Si 10.705182998806146 10.321230214712934 9.80938344054461
Si 5.972751718075723 7.2711470284499775 9.987788694433505
Si 8.453900386197445 12.560545088187443 11.96770733097902
Si 12.306729556818231 11.566867975176258 11.083572834373724
Si 9.132231465273051 9.409490980598529 7.456134356081085
Si 8.728206102740408 11.935797351501094 9.14479285357602
Si 8.523033539303594 4.603548390817764 6.096476053626709
Si 6.974525880446705 5.036145580047284 9.889367138383415
