27
Energy = -125.49855603 eV
Si 7.701613833427933 11.47738936261209 12.443175007686959
Si 9.449957266238176 11.17695798015042 9.365786739405266
Si 8.301902468776465 7.018804358353232 8.726882398248849
Si 8.370814954341068 7.316000759832608 11.186760565867454
Si 7.581652540498752 9.606445510453154 10.87007227931257
Si 11.937834848137557 8.085745460028352 10.35862134316899
Si 11.559893681790468 11.781207620943622 8.206729644856447
Si 12.473702912263764 10.287356139049866 6.439171698669148
Si 9.075780535799522 9.097657161010229 12.710184208140138
Si 6.651316157511372 9.42477445899481 13.178907109989325
Si 10.676872284627958 8.743515392580617 6.259689234148456
Si 9.203077156659461 9.213583461632318 8.066778151573699
Si 5.591991409743751 9.693829584964444 9.474808363601282
Si 8.231430509529643 9.820034660488226 5.866669343880308
Si 10.370252843560408 6.246424353104321 10.137474738275559
Si 13.145912017078299 11.515338377078736 9.97293411391574
Si 5.902335123413785 7.897496249548168 11.332687668722864
Si 6.852635044810008 8.689785347342838 7.650069263781241
Si 12.631699445569303 9.590802797643745 8.66083742823403
Si 6.513291233064801 6.146573662217503 7.34868966929489
Si 10.821144117498875 9.935458188283933 11.258265784620521
Si 7.181911159792704 11.757053055085905 10.009472892403133
Si 8.738489388172468 5.992476122338648 6.297509053447806
Si 9.18971536248499 7.774168578464092 4.612113027881818
Si 6.855017644981024 7.6808459561495965 5.413315382006507
Si 11.017825804358166 12.21495543953357 10.932076499223745
Si 10.468063088813944 6.8524829225242385 7.746456924922959
