27
Energy = -126.20230648 eV
Si 12.97378864474161 11.003772402094897 9.506675908995824
Si 13.158616021635867 12.212007442268114 11.559822922251387
Si 12.386250940039698 9.921142205243275 11.973628796408605
Si 13.883250007022225 8.783625384470923 9.720031813152655
Si 13.880044760646339 8.075974934138394 12.016610983933964
Si 11.386125102759827 11.121641665676984 7.806901660600804
Si 10.133826201904265 13.145352832126656 7.502824693075356
Si 10.814300000110421 9.727304790200504 5.957601747221518
Si 10.970413732919056 12.700795250600084 10.88594690088731
Si 10.682535744271654 9.988106703172965 10.011659181204925
Si 9.844752518599144 14.295178258858124 9.601068218125796
Si 12.993017111152733 7.073690229904575 8.426564596248166
Si 11.105528184871702 8.33316862451794 7.774887787675924
Si 10.70181234056752 9.559728486753166 13.63592587906223
Si 12.125505113191476 7.225818578683998 10.635480932121466
Si 9.01627076036742 11.073713495374129 14.227427384926306
Si 8.907046576666943 10.711775135443384 7.052354420616419
Si 7.923597709266892 12.832876274853488 6.591589598370143
Si 9.947662972505267 7.7737699104449955 9.725504673590766
Si 8.10684528259865 10.400153798901417 9.223435001531454
Si 8.145468548588159 12.782561486851641 9.019213066975714
Si 8.64252925495911 8.457005087043955 13.223057210799642
Si 9.529499543613655 11.131116624236716 11.857760929127014
Si 7.023717476081016 9.716005715838847 14.387061263319326
Si 6.166391496633761 9.413044417740501 10.158038756483117
Si 7.914078360255654 7.956684532551911 11.021722022127673
Si 7.274896306423107 10.294581237153505 12.07226998059635
