21
Energy = -97.52568693 eV
Si 8.819874485491853 8.907429984106901 4.82013491112475
Si 6.833326022811946 5.653650540590498 8.87761466105692
Si 9.230082892714021 5.801061306789836 8.420320662602188
Si 11.69342626222915 6.185296496248395 7.834885606683549
Si 10.823361632262442 10.06726046607734 5.972492303322873
Si 10.071544075634653 7.195413854846281 6.3281778956089205
Si 6.9468683773679425 6.578778610843305 11.048921705366329
Si 7.36823880143579 9.240237888838047 6.706249540400446
Si 10.028380111745927 7.2291779540650944 10.21420804463037
Si 6.221225652099331 8.01270327979881 9.23297359752616
Si 8.108239417904057 9.087850528470888 10.566256569276005
Si 8.579742925559591 8.078321123899698 8.362887330571583
Si 8.749472785408681 7.59589916717705 12.24554102513475
Si 11.141310802750944 8.691515911372688 7.942374507919696
Si 12.333946388179054 7.754232193188028 9.68624818493998
Si 5.243568138749306 9.708029318876388 7.733218998970469
Si 8.725893044837916 11.225620270271028 5.86686279663419
Si 8.43283525440076 11.502973423153156 10.059752278235738
Si 9.318747305720915 10.410270177566504 8.12178166298518
Si 6.979932920579373 11.625541067584512 7.908787381272718
Si 6.125669010527376 10.496833417333788 9.962185956134602
