20
Energy = -93.53481918 eV
Si 10.73356243456484 7.510990391380863 6.599359830933671
Si 12.215531835190209 9.385073120538076 6.5305018357104
Si 12.57987997086614 7.430259694284901 8.345333235675831
Si 9.676777461160968 9.806634643055222 6.497721283161726
Si 10.867793809623436 10.50755666566958 8.429996801758886
Si 7.516770054874178 12.13451661826592 9.367920546567323
Si 10.333660404128505 6.472008234011397 8.820561910982867
Si 13.1238144854119 9.779929172943575 8.891627014660568
Si 9.187270259422021 8.61832132468655 8.568128210414223
Si 11.174799806846746 8.452292512711635 10.05434884291529
Si 8.112097241028673 9.914766470798368 10.349485159023585
Si 9.774260978174233 11.681263586316314 10.184547026493657
Si 12.216039922038698 10.649318093745437 11.275576060620116
Si 6.539224077619166 11.511887009527673 11.515908711981233
Si 8.379462098385705 13.403231793651953 11.328944629167461
Si 11.536202004995715 8.663328507636582 12.383704990573257
Si 10.491046474641852 12.552515939345632 12.364706430189564
Si 7.399457265909641 9.531866100818862 12.682164588452483
Si 8.319547318329676 11.720996024985089 13.486047455800646
Si 9.706063823176338 10.156505822014585 12.20667716130585
