23
Energy = -107.68041666 eV
Si 12.8911418 14.201863049679867 14.809952698970035
Si 12.8911418 18.153963070129073 11.432137568849615
Si 15.176475860271168 12.8911418 11.402356877261965
Si 12.8911418 12.8911418 10.700894152772767
Si 14.175930567605507 14.57664228121505 12.774860555348363
Si 11.503109937433008 16.26666044817546 14.89413984737691
Si 11.606353032394491 14.57664228121505 12.774860555348363
Si 14.829376803338654 16.86252086167668 12.517748209928358
Si 12.8911418 15.751430666518038 11.054408944461684
Si 10.952906796661157 16.86252086167668 12.517748209928358
Si 10.60580773972882 12.8911418 11.402356877261965
Si 14.279173662566992 16.26666044817546 14.89413984737691
Si 12.8911418 17.91318920463196 13.825330362175423
Si 12.8911418 11.580420550320135 14.809952698970035
Si 12.8911418 7.628320529870929 11.432137568849615
Si 14.279173662566992 9.515623151824544 14.89413984737691
Si 11.606353032394491 11.20564131878496 12.774860555348363
Si 11.503109937433008 9.515623151824544 14.89413984737691
Si 14.829376803338654 8.919762738323316 12.517748209928358
Si 12.8911418 7.869094395368036 13.825330362175423
Si 10.952906796661157 8.919762738323316 12.517748209928358
Si 14.175930567605507 11.20564131878496 12.774860555348363
Si 12.8911418 10.030852933481961 11.054408944461684
