26
Energy = -121.55326344 eV
Si 9.470067847456361 7.739329997436919 10.917823848493686
Si 6.615212135418703 12.101376624473229 8.32484362576303
Si 12.966584003666775 7.803135007136528 6.861243263251082
Si 7.19004174250401 6.672598522579776 8.858204219884556
Si 10.084974094387741 13.276397527799707 10.863714484721129
Si 10.461660728088667 10.950778705146107 11.469482416817668
Si 6.780678505190434 8.19841093035596 5.535771505424883
Si 9.018272902914056 9.094208654256217 5.71188148116209
Si 6.8226707608955985 10.6463838275952 10.260368759412495
Si 6.585967568513608 10.718017140465996 12.684127409031678
Si 9.969155867013615 5.79753423499054 8.622603514248192
Si 9.720693807341643 10.011930058018514 8.080270117003552
Si 10.638687158904682 7.8395926347489775 7.105563624560541
Si 7.167028846311255 10.00816622743003 7.204022164065357
Si 11.432405328574209 9.267120235950426 10.166241405104048
Si 8.55264910167446 5.569123272491087 10.558245352265944
Si 5.9078636162383065 6.221813349637582 6.791079121268123
Si 8.704919684365501 9.616964247939356 12.29304662169518
Si 5.499734759240648 8.34665688567765 7.826684519751387
Si 12.093928503052261 9.80011597567269 7.971359846256522
Si 7.932601353596403 8.840866246935143 9.241032177213018
Si 11.881548937063545 7.257202593839958 11.223618912884806
Si 8.839936618062518 11.973879376085286 9.256674263199846
Si 8.249888226583096 12.070433466668241 11.748181662901354
Si 12.077904126770207 6.768349219819167 8.858321559755556
Si 8.482687005660313 6.742716333331095 6.877126985285594
