22
Energy = -102.24922381 eV
Si 8.567891268526335 7.3184497139766815 10.693672336498578
Si 7.5840354548239945 9.687348210928848 10.937419224866462
Si 11.373886728588626 8.147806975253163 10.180015332837213
Si 9.592028280632837 7.219516404412945 8.301882717951488
Si 9.158124177104167 14.499683067861064 8.185797094088615
Si 10.452327364060663 5.943681084097727 10.224601353480084
Si 6.225341680657492 7.729703502401818 10.596753881901234
Si 9.20941589666813 12.78763437667081 9.8550679621627
Si 9.849536275647775 11.085836582050522 6.165831169934833
Si 11.970425167503286 9.52058436757864 12.67665851458132
Si 10.946310778477178 11.822234955110844 11.69911106339731
Si 10.537915197267735 9.37110965771466 7.871186254044282
Si 12.87316824615525 9.654872636451241 8.6186891402947
Si 13.570206700666972 8.779852187446078 10.917460231829443
Si 13.171855264274505 11.134536578907772 10.699621385894668
Si 10.785284452352379 12.83203009409923 7.456915631848788
Si 7.528797189128771 8.410705927112241 8.64650934071506
Si 8.642895763817227 10.565781117612831 8.8436464249367
Si 9.948557427461155 9.614509267987517 11.355336051854055
Si 11.094491189392027 11.288298301860282 9.303915284966644
Si 8.407840670537555 11.72490713487255 11.943906167239493
Si 8.241302079786802 12.412750702454591 7.342442042950405
