28
Energy = -129.81215125 eV
Si 10.638342786260242 9.505614977880782 11.86325179644527
Si 10.289296873544467 6.044437452271316 6.252118934167786
Si 11.317855085625247 8.138577785446783 5.5409985293851625
Si 7.4959346484503975 10.109941772924808 7.300830138446749
Si 9.306621353863697 11.382401998472083 11.254392468307083
Si 9.128572081398497 8.27510726489493 6.717026602172604
Si 11.030188519601465 6.214487391621449 9.973594212973449
Si 11.80487911776155 5.110830787922186 7.970514599953106
Si 6.364026436462094 12.125858799903604 8.515687263876808
Si 9.095462314841214 6.264042559503056 11.361004802058758
Si 8.133486475527052 9.133603130282207 12.413266442071128
Si 10.3460863932094 12.849134614456327 9.588493497695813
Si 7.470686471341925 11.412804812549673 12.837309635187642
Si 6.873015910001196 11.119489367469816 10.600525928353283
Si 6.019311219782675 7.41580460903414 8.37943304451732
Si 9.10629584182924 7.277575998508925 8.96498092626844
Si 11.233355663306986 8.736376105833154 9.656732902624869
Si 12.067939776287206 7.400022882343415 7.681412998876971
Si 8.849066901374314 9.732754686185386 9.327448399296173
Si 8.508287511212943 11.638457876168925 5.658243115903933
Si 6.841318995578612 7.975112808365582 6.043743511767659
Si 7.32372970311118 7.969811455137353 10.431778337020774
Si 7.906471446516046 6.086338013784389 7.221497914081754
Si 8.717818643560648 12.289160903043436 7.92162801399365
Si 5.707206419381281 9.708843382679978 9.11969480778714
Si 10.415855557477181 10.329210359999946 6.251140413050787
Si 10.949088387427489 10.784656843046056 8.505411583158168
Si 9.802738102907826 7.715148472398565 13.197495432046184
