22
Energy = -100.25034997 eV
Si 7.582981692322546 11.212762938486119 16.300864844647542
Si 7.740197104966862 12.764312321676938 14.344298421401085
Si 10.002243632406568 12.88490459741228 13.760792230335488
Si 11.315818683831719 11.131707601026646 14.566368054816481
Si 8.900670503827895 10.655011277722954 14.359511039814967
Si 9.770188577287456 11.984968977926286 16.28972134189754
Si 10.737372012705098 12.550553471471188 11.502005764095754
Si 15.029907001161217 13.864641143987031 11.794721876979452
Si 12.962469897643606 13.024901966537353 10.95558537796465
Si 13.90731572849637 14.70319425892439 9.53781225923107
Si 12.466989364648276 9.227094838061756 13.608406260296134
Si 15.25426806933696 16.092861006772598 10.928860783929911
Si 10.052425685216019 8.807821255221493 13.347178249060137
Si 11.027783853060763 10.238752947282011 11.736593023843456
Si 16.4227445246334 14.367536182033092 9.724856990929467
Si 15.133499982972173 12.484900834883497 9.652746595885622
Si 13.153544561306074 9.029221404285009 11.088193329061708
Si 13.251471218882525 10.985985438296812 9.782074068233932
Si 11.218987808234436 9.162110668449559 9.565768406492547
Si 10.371836332270533 11.788809848234239 9.269098327868836
Si 11.999033655830791 11.045575398831312 7.751877402528793
Si 9.692372190690664 9.925616985064186 8.004350487307347
