20
Energy = -93.55045577 eV
Si 9.742566046111206 8.87544089077732 8.501937548156466
Si 9.552592499006636 10.657300533161564 10.098574383277679
Si 12.230999160311992 8.72340219125153 8.62847349741349
Si 11.919452451184622 10.67404581955511 10.001000457410745
Si 8.632685304265555 6.769083262884264 8.989075797276968
Si 10.835654857440158 7.1271800537377645 10.006865758369925
Si 14.365063873055584 13.803907023529357 10.416479476621262
Si 10.265097177102296 14.023399443998073 10.3092797397542
Si 12.242571186833066 13.041096496763064 9.36390973646015
Si 8.548252944442346 12.587447034908543 11.138509775094576
Si 10.486322036313673 15.562605967801016 12.203678905676613
Si 12.454223549395586 14.65870799528343 11.367175794550016
Si 12.526572583847614 8.358635568965877 11.262302013609201
Si 8.700401633191824 8.249832307418863 10.812716586894645
Si 13.106708073477206 12.155310785397813 11.610050737308999
Si 10.907516053206507 10.054814676509185 12.241435864582325
Si 11.9980449321862 11.691451273609072 13.64549343361462
Si 10.477829506559349 13.205948737072935 12.625096752248922
Si 10.464062377987881 7.6041485791837715 12.414892279466677
Si 8.478610803248328 10.111468407359391 12.298278511381081
