27
Energy = -125.41139739 eV
Si 10.491391275156102 12.421752384807602 6.7107620326747295
Si 12.400711309238163 11.3631257610598 8.023007091784487
Si 10.4900757621926 10.04153300649854 7.133961479251712
Si 9.839209317046555 13.988186721856847 8.48056631100331
Si 11.32113145945581 12.664648356520498 9.913402502818677
Si 7.40892292681467 13.558679141886264 9.135485668081165
Si 9.261378837065104 11.689572562372993 8.780148163313045
Si 13.267681344486304 9.45066106449211 9.21166376406603
Si 7.703817933035707 13.00432974515541 11.499708794096616
Si 10.957207053468384 10.174034836417421 9.748054657228735
Si 9.529070934718167 8.418697563497746 8.69030003352048
Si 14.68506764804449 10.133599877837545 11.054764251974774
Si 7.170829054474571 11.194136913509954 9.712773969135721
Si 12.9807070024658 7.124866478667961 8.972890779368923
Si 7.139545649489945 8.881198567102158 8.838372838836088
Si 12.358848539037194 10.535439262173828 11.694700612423427
Si 13.535941064179397 7.856146447788014 11.117034978318577
Si 10.017554390055496 12.775189458002078 12.048676861702399
Si 13.780268514989059 8.829279099964007 13.178145963184365
Si 8.187459863792434 8.649046114508925 10.93421018703257
Si 8.532800335111025 10.70234226373017 11.982269442323089
Si 10.591002995899515 6.306519428856726 9.20659932755633
Si 10.401297380774828 10.729407691507474 13.424966758872577
Si 10.176297141771165 12.870758797434334 14.418279727095936
Si 11.365668533364735 8.511838388487144 13.041327020730048
Si 10.3128012926695 7.666588502493679 11.082764162595222
Si 7.85416451033093 12.151057963036367 13.79808217158398
