29
Energy = -134.7415601 eV
Si 9.697671408264801 16.42513053726645 10.293856704307956
Si 11.423037778392557 16.598502528057082 8.629422024160096
Si 12.081061370281137 16.679488816232176 10.981121651887335
Si 10.181450444730173 16.997382921188322 12.532882033048933
Si 11.174841170032218 14.508843881119914 9.722356703516889
Si 10.04517839982581 14.604811220350623 12.061536474085921
Si 12.342947999607132 14.3644678322516 11.883288708110875
Si 11.07042962880682 12.21584154095301 10.22339622372578
Si 9.225729717979604 12.31268960571641 11.826284042194873
Si 13.070113049646606 12.098762995713022 11.80384234943224
Si 9.93514911598347 9.90727023420889 11.81020883210664
Si 14.141709917212193 12.08876312289843 14.218277143348356
Si 12.84665333766543 7.041173087894835 12.201005765379145
Si 12.365897719569032 7.1906248411088125 9.79161079633108
Si 14.546000496767467 8.746869895966254 12.187250283084857
Si 14.237798261647713 10.427279869454386 10.516878227770512
Si 7.475717179159578 10.712113022398366 11.133342819320195
Si 10.506948613233847 10.699967342193926 8.514715652316182
Si 9.711820542934712 11.248883785249555 13.919168531595915
Si 14.050896217028818 9.690795220131973 14.328638225077297
Si 8.007806827502995 8.43916890252645 11.900616347001195
Si 12.207657700291978 9.277563514028225 11.282734435330616
Si 10.416054549273515 8.044653155377251 8.603926274400662
Si 11.573421760338876 9.380872914485865 6.870336403334694
Si 8.787586107872512 9.394368545049558 9.610551938575922
Si 12.073313551845184 11.178910305827634 13.765887029556838
Si 12.85208936814112 9.346951590516653 8.84474122231731
Si 9.381687359834958 8.841802181406232 13.930326193799923
Si 11.945292823600978 8.66524024194679 13.777722353778717
