24
Energy = -109.35880833 eV
Si 11.390569749335548 7.919248334712545 9.766717649119187
Si 12.220573573931063 10.337657086784946 9.597803575138284
Si 9.228342606275172 10.765829404241689 12.111273608351075
Si 7.761174156779124 8.234946173917544 8.627286762187309
Si 8.634577014631677 6.473721753916403 12.276074079769932
Si 6.563831075975682 10.284082476358572 8.414936663904076
Si 10.232657098717887 12.237286874370598 9.603259396100738
Si 11.042021009157287 11.13353039802936 7.638347432325172
Si 7.3592046957877955 6.441257469866329 10.184487671481552
Si 9.939324181094964 11.694313689644558 5.576422057638787
Si 8.621542386597913 5.048412939692017 8.714730504841805
Si 9.147050476775984 8.475201348988481 10.681571331165216
Si 10.033462913203117 5.939227138346923 10.366876730175775
Si 8.636069479657824 10.545517780778606 7.235637739921082
Si 9.406261801981108 8.61810625901264 13.210995608224932
Si 8.638728537983388 7.186124763927928 4.673522424800175
Si 8.286952982398189 10.867108798199531 9.906187578378645
Si 4.444892899328076 10.918757552880837 7.759626942175219
Si 11.554578746863726 11.611024387844628 11.61991229966549
Si 8.78747663009306 6.785100166171108 7.00895877972464
Si 10.94706249514323 7.307794796199774 5.926867935904815
Si 10.30951199896172 8.73026855592495 7.727863336209489
Si 11.317671477415093 9.159165350310916 11.818384793361139
Si 9.45836713556434 9.231248305352436 5.388491085224629
