21
Energy = -97.00296687 eV
Si 12.915164888481138 11.822094047036066 14.780400239767246
Si 13.291540541786464 13.919592702730542 13.31304573331855
Si 14.743851957797455 10.339027138311732 14.788337656658166
Si 14.628227397516023 11.836601069929117 12.865919702690672
Si 11.014305251705633 13.136267384280014 14.172486903421586
Si 13.08093410830326 9.67414521843681 13.17593574038893
Si 13.121573178192488 10.95773737640353 11.098290958278296
Si 11.158062090974092 11.06725762185987 13.005832316525192
Si 11.875977230279773 12.913649564282489 11.651151998461845
Si 11.287218790225099 9.947224564571211 9.75703478402246
Si 10.104835180949907 12.23269030759633 10.102483766142067
Si 9.530886276889056 10.278515470075519 11.529274859189188
Si 10.489973385794077 8.085245675668956 8.462900935129666
Si 7.5378088807198615 9.010146636716108 11.362538934413621
Si 9.685065237939652 7.924031278246903 10.729452613259665
Si 11.34300619641533 11.977269385881787 8.02588831390578
Si 9.354634534359155 10.235885260139698 7.924266053019703
Si 7.768090481765343 11.083685397731617 9.838733428686194
Si 7.911496838451118 8.591353514143314 8.95895450256248
Si 8.775966082708083 12.822656425543673 8.14282179407411
Si 9.826179993637083 11.684196846297377 6.20221014610583
