26
Energy = -120.96700917 eV
Si 8.785960166674876 7.280128055284632 13.401767987010535
Si 8.305913422425625 8.16751371972008 15.438044261094785
Si 9.180467068864296 6.7779092746349745 11.117530064105441
Si 7.5512829244830835 9.49203856692108 13.446071246269916
Si 10.302030056797273 8.778625584384299 11.956157682323077
Si 10.050518184562934 9.474956737467652 14.334725714874198
Si 8.688757063017896 11.515064443736387 14.112723018834778
Si 9.221914913573004 10.941171772853341 11.71661067781241
Si 12.221138765944888 11.760786805524885 11.423631902003612
Si 9.291128601490666 12.088729741935134 9.24566091666404
Si 14.211016823032713 9.79338229892051 9.511099920281818
Si 7.857266442910775 8.775192473679269 11.03951995281591
Si 12.096705235761386 9.56638044886299 10.654699078549356
Si 10.530100906744508 13.581285400339373 10.738054716561004
Si 8.318491268982669 9.45612085761894 8.568018631490167
Si 14.597435172963339 9.643896216927333 7.140499021690545
Si 10.63771221364554 12.656133057820995 12.936169896923111
Si 7.180178454830615 11.017882185551434 10.402117526921508
Si 14.448620219130007 11.93673376915444 10.527684937971173
Si 10.605248958583637 10.112457143016353 8.971769277591637
Si 12.557585418752057 13.529437972233195 9.553432036087294
Si 12.247542717250862 10.329674252455794 7.24355266489745
Si 7.286504470177827 11.584897282650637 8.07751221592365
Si 14.07831832978001 11.794943379834523 8.03817844682094
Si 14.875539615353855 13.818432899922476 9.033190123781244
Si 11.32878494766777 12.41894465122089 7.8276911389788815
