29
Energy = -135.00491199 eV
Si 12.94127515567543 8.90814088388751 6.647017983343612
Si 8.600581422618303 14.030959604716225 13.124206083275993
Si 12.025327024334073 10.967075701257583 5.656115869729688
Si 8.3454780466767 10.95210237965722 10.338757474101516
Si 9.2823152029769 13.250916742386558 11.059430387866913
Si 9.388135950292403 12.389255596501913 8.818338519548353
Si 9.17331431177575 7.82191978253787 4.923664559681594
Si 5.6372786336888465 10.644252676033535 12.184691295124852
Si 9.002473123686189 6.925531163904786 8.451955690305141
Si 10.85570266680626 7.707427506073521 6.8545805116709655
Si 7.334484739259657 7.1429330803203674 6.4704688061817635
Si 10.479874722025762 7.8685725534531 12.36110351740877
Si 7.985188522986303 8.169483132706358 12.087151482138525
Si 11.546063830078197 11.290340664307609 7.953086877788379
Si 7.518273334914799 12.079906347981357 12.36550242849373
Si 9.560748394634684 10.047769523180094 12.538193368307569
Si 12.636898391752663 9.178772736669812 8.99237693111829
Si 9.927367180389284 9.865057462726396 6.0861233365018395
Si 6.759500487592018 9.23646292814029 10.391245773890915
Si 9.884421662028977 9.38523101615486 8.504985943760625
Si 11.053883965272696 7.851603594400726 10.066561722805844
Si 7.427003669233475 9.936104754165807 13.753225692350885
Si 9.830921104482218 5.86371469520712 10.425532967666529
Si 12.923926137912844 11.331445165369185 9.897532833654715
Si 7.573605936717786 8.95018426599955 8.174944901124373
Si 9.501929052338568 5.78679966218976 6.33848474077677
Si 7.479133002724203 9.588475683695366 5.85791874505446
Si 10.778257505822237 11.317582088830239 10.937415957223497
Si 8.89626103469718 6.077559301598771 12.710399926168513
