29
Energy = -135.52102865 eV
Si 6.759390764029915 11.808175356623117 7.068997208229661
Si 8.097645569117121 5.890018929017116 7.397132735797057
Si 9.729029504819218 7.634387555937402 10.326032873431483
Si 8.596909515506427 12.333777017365867 8.92164238496288
Si 6.139582779807518 11.999584346039166 9.43203800756765
Si 9.080087207166795 9.330101493727225 12.055571310081136
Si 8.078201792059685 8.33279938480056 6.813202560235126
Si 4.939539819625548 8.174991576709749 9.233063688876157
Si 11.102708680394862 10.041248212241104 8.597996976240452
Si 12.241514492157991 6.131883392485643 7.797408122359023
Si 7.742087463136594 13.10242956914431 11.083357956024543
Si 12.127554768872331 8.671810528040364 6.899646937762427
Si 11.27264160191954 10.175796075506582 12.665743465311513
Si 8.823668998344646 9.842448889624949 9.5579674447379
Si 7.240168676450893 7.621358417864536 9.078577497729137
Si 8.313599560547681 5.6547265345425615 10.033905384429367
Si 11.586576222013615 12.17042698787239 9.739980347855896
Si 10.0776569019823 5.102955525565145 8.386327112774909
Si 6.30718833122535 9.79116236963891 10.298663013639864
Si 6.13176836553333 9.530231965691321 7.611460629333592
Si 9.65512056373281 11.552717843163942 11.140210324700636
Si 11.81530718109005 8.0885089641588 11.465493105885217
Si 7.198988677454544 10.873720323013556 12.212263008764136
Si 10.177949557906688 7.520607765079516 7.953702165567961
Si 10.6588848259761 12.353968292767535 7.474794348560875
Si 12.66760507190572 10.252742022313342 10.64406716975309
Si 8.93806368267066 10.602220177158566 7.2018828128633725
Si 12.914814552547572 7.9947397739475266 9.100123282236227
Si 14.261893239140765 8.491322220538281 10.919098506135212
