28
Energy = -128.59824629 eV
Si 12.4217481391891 9.318377768404792 9.706248496680361
Si 12.894858383344598 13.22429038209921 14.1728486012026
Si 9.575290150380262 12.749230189559508 13.067624611092546
Si 11.022552709267554 12.384700782966615 11.086016405081429
Si 7.370916095565123 12.070985498566076 12.493732305404178
Si 9.657980804651991 11.669414322264554 9.049740324310779
Si 14.504496252618821 8.168552960403591 9.784787904289157
Si 10.215952175866116 14.69100878667089 11.767048680237385
Si 13.479708971933194 11.344910554592099 11.30730829336666
Si 12.458566066771928 13.417114482498954 9.34445402084822
Si 13.821065781105572 8.858863177784173 11.895892424538397
Si 12.153434947800012 15.03690701428095 15.380133360824646
Si 7.756798512214086 12.81212727676641 10.058768635702641
Si 11.565097829056851 11.31035896946084 14.34733013579513
Si 9.364038517276441 5.2998629071284915 7.483768997601917
Si 7.7736836276030274 14.397331660556324 11.813770577830638
Si 9.118722896648675 10.840439927625425 11.29033148999752
Si 11.705906830159064 9.899553218592775 12.381436366360743
Si 13.190052287474357 13.665191724135614 11.6732033362897
Si 10.342202163642508 8.192561749393946 9.94211367698226
Si 10.502296021340381 13.25508758695762 15.198433476857373
Si 12.23846137113668 15.431035688572008 12.928441957939842
Si 15.413388689912479 10.388763355221574 10.299190266407816
Si 13.52117542730486 11.225359651641687 8.832425528258742
Si 9.661317039243805 8.696180605826157 12.174384598087995
Si 10.618816353064005 5.958044098140015 9.266449936489801
Si 10.035486525194282 14.117947867578657 9.431544590858856
Si 9.061870589227107 7.475847491519774 8.11581254843337
