29
Energy = -135.2943399 eV
Si 14.843596927687496 13.926526423695758 13.440482679803623
Si 13.679131281351578 13.206532904170718 11.503250841592441
Si 11.354133360050932 13.981266694896608 11.635387829119969
Si 14.094324073108135 11.74334124506673 14.10098985315984
Si 12.46524688875606 13.729046824505971 13.705009819835702
Si 10.723828537930174 15.89196079053426 10.438546107808726
Si 11.638235636562422 11.345863860054003 14.251387337478642
Si 13.351332224005368 11.044951723611653 10.567893700326149
Si 8.732293934171468 14.694568683092923 9.673027790795
Si 12.426501322976456 12.81216587947235 8.003220843597141
Si 9.466606252434637 11.534023086348558 13.100888398132314
Si 9.549054354107003 12.676719300608982 10.915981492078094
Si 12.044715475086914 9.087823041680997 14.824978211313022
Si 10.672854047307608 14.472639577357265 8.323380359534397
Si 12.915689866232974 14.525868500555724 9.598782039520529
Si 13.257453951358043 9.824462078637158 12.820984112124465
Si 9.379729221846006 9.15362447098447 12.892987376592757
Si 10.433926724291638 7.400890669059013 14.02768579286735
Si 11.04226452916227 11.534062779359502 9.47388183081022
Si 12.09161485824724 16.530570681246928 8.586151222082462
Si 11.138977013868555 10.529652785608981 11.704979736865338
Si 11.617599634343378 8.10778756783019 12.090738104095639
Si 8.40337440897446 8.48696646406785 10.86236098064383
Si 12.085440407578723 7.421336535618193 9.791621166228033
Si 10.566535272514185 9.218730963393915 9.486557905739987
Si 9.756303217643788 6.794097645983468 9.527837211011736
Si 7.381761526602204 6.620635387400038 9.958019145436817
Si 8.267308485906334 8.768057775532094 8.495859673711195
Si 8.304013723233867 6.535375916965369 7.683225883299598
