22
Energy = -98.97911355 eV
Si 15.644901162090408 11.87014968239901 12.506083735845918
Si 16.02740140175252 13.890865693541278 8.626309264270665
Si 15.3800525647558 13.52294209647543 10.777735527143141
Si 14.044607088261047 11.271932038045755 10.66365139186693
Si 13.715242339385677 11.034320494401745 13.689761409745799
Si 13.991123600060831 12.603133821446734 8.712203617916666
Si 13.23610253684018 8.674759126379273 13.472769076491012
Si 12.79264146485085 13.642869538881252 10.534118576082486
Si 12.313516771535713 10.10305734016511 11.767396522615469
Si 13.996316293123513 14.005018391326145 12.74978634941333
Si 12.110352426476258 12.454976037279454 12.736314460031856
Si 10.935996982948497 8.87571837528143 14.113405755126017
Si 10.444730628357458 13.090984216528332 10.57126294606451
Si 9.914715289790218 7.062817593872649 13.031335203415686
Si 8.656566233306545 14.125308512370944 11.787687791555896
Si 9.765642834908911 12.338356311475913 12.932487378963257
Si 8.993960292579462 9.160052952471395 12.64020860579602
Si 9.334448699010487 10.539980150748276 14.539694216747439
Si 10.002421203765065 11.48146020785553 8.84643114828146
Si 10.05545234706492 10.637212987550637 11.092791437775775
Si 6.490711962038005 13.538096000885757 10.96240998358834
Si 8.103410209816944 12.64762955465142 9.70619921576352
