22
Energy = -101.85977524 eV
Si 10.710119911635983 10.041697588746974 9.16733632966606
Si 7.458859379725249 11.600105981781752 9.761913491571885
Si 7.147562497471518 10.008088192657565 11.469990805195817
Si 8.107369644551103 10.878542895133174 7.534725263235161
Si 8.747473330899043 7.289901191075718 6.79605701514102
Si 10.814857730707852 8.64977727754094 7.2767243528197065
Si 9.406609637588625 10.733448045073269 11.28405756246159
Si 12.493688591258492 6.9136648036781505 11.27933399518682
Si 10.926963944897185 9.970735864196845 12.91248964024543
Si 10.679606798319748 6.880200448068953 9.761138644515132
Si 6.780484140050663 9.073802878788474 6.69154365624504
Si 7.7587339925514955 8.069624136903762 4.724383538203239
Si 10.467982186435036 7.736937514496459 12.287488410223636
Si 9.254488489025535 9.663626945137164 5.835522333754377
Si 10.920606381718404 6.325619050632538 7.448077183038664
Si 7.038228917754336 7.450562413546327 8.4243665134633
Si 10.027932399631485 12.344203205315045 9.571964378505744
Si 8.414589092585427 9.183382364020003 9.462514099867853
Si 6.6604437811171495 7.592400703128394 10.802732953620916
Si 12.032920617441524 9.210258235177 10.960983857965584
Si 8.844158749106878 6.482882664098745 11.108256632404874
Si 8.08305547628317 13.18546050252516 8.162647364251688
