21
Energy = -96.10444658 eV
Si 12.346784507166646 11.970979138977611 7.050946315100033
Si 13.816754420669344 11.266311123685234 9.269322835746213
Si 14.901506265364771 12.640497649089447 7.342931419847065
Si 13.301360242839902 14.017323229363843 6.329673118280483
Si 12.512139649113479 9.747153147027335 7.983815374829496
Si 15.375240857258767 12.990179649496074 9.63403584289735
Si 10.302747084470688 10.724671789516671 7.791231944842964
Si 11.527243911705806 11.8908641132431 9.463504334505227
Si 13.222307143657273 13.821554355783343 8.78961485189549
Si 8.621614225178924 7.5981232070881894 9.679492976647731
Si 8.809967740045195 9.994932256897123 9.737785389326547
Si 10.255058208707252 8.152299816184405 11.306275809891844
Si 9.358419484422688 11.88340239691926 11.09808374821111
Si 9.290073317206192 7.881644512501756 13.418545960341943
Si 10.403805566275963 10.253193320379772 12.45138910096023
Si 7.429655622543928 8.23991278155116 11.68673961684699
Si 8.703668687214423 7.98989431643339 15.630305883073861
Si 6.5907336880707055 10.225912725059336 10.66315120561389
Si 7.815201621419464 10.603955594710602 12.674740830376171
Si 9.236962345195835 10.13249289785506 14.637762549751328
Si 6.948422939342781 8.63562684120372 14.038188364405952
