21
Energy = -98.31871439 eV
Si 7.566523964701207 9.391194004836757 6.372063291502604
Si 9.593010322584046 10.476070267768119 7.03084989613788
Si 10.626615595423987 12.653010899071 7.279154721544359
Si 10.952090719483735 8.705871886588127 7.9601632436311816
Si 8.511734576514641 8.711240879027455 8.54790187772016
Si 9.760216699113672 6.678776475078817 8.624536989213848
Si 7.15078592670606 10.999636368625648 8.089018974723276
Si 11.54255169201171 9.82510598430474 9.993766890191006
Si 8.712949187015893 12.655277855761778 8.686320811325546
Si 11.1103012854092 12.113439575337445 9.552377189167812
Si 7.889717172096392 10.32067554378296 10.174735673041857
Si 11.261617349462483 13.449339578991843 11.535912145636168
Si 9.098599980508261 12.510372197506088 11.021704790015901
Si 11.805768944562828 11.17987688270614 12.13722651286624
Si 10.451867860269163 7.669354753869938 10.660503355317113
Si 13.543843341131518 9.7918304325891 11.38237143159801
Si 12.590512686388353 7.532167420219784 11.85447547165801
Si 7.837809720948669 10.951822976584289 12.401022552810355
Si 9.85510681824357 9.711410006238872 12.075163355134784
Si 11.91648366075986 9.131999883329197 13.561687384303756
Si 10.196306795073067 7.515940426191794 13.033457740868588
