24
Energy = -110.2452181 eV
Si 15.635122262416226 12.08046886366362 9.38505778291311
Si 14.010670788073913 10.54067590375052 8.341384807611552
Si 14.81188591538518 10.071131814615315 10.487562378710972
Si 8.1673908663988 11.486117855452598 13.95476012489339
Si 10.289727699587008 12.718213679753545 14.248771254842163
Si 13.462299797019636 12.284252082565846 10.205384773357403
Si 11.651701315130248 10.899066410949073 13.635312294863091
Si 12.855868780219966 10.458921054860923 11.644322242305185
Si 11.88959476032416 11.57937494329931 8.444530536592813
Si 10.486501592649956 13.71636428749681 8.449432977702202
Si 9.741914565345313 11.643526444660075 12.159192355340023
Si 9.608867804747982 9.626318023899756 13.572841283991583
Si 10.741483795925623 9.483970412544101 11.161300570178417
Si 9.662489123388696 11.866105040545701 9.781043301032899
Si 10.746621682341079 12.139087359793342 6.423914470205863
Si 8.60663507565922 12.793729290173234 7.263701929487994
Si 9.833887083097203 7.475139907191108 12.072733884894925
Si 7.410466318820966 8.445688555038302 12.333315010176479
Si 8.117317243735148 6.48426832063804 10.578483449826654
Si 9.096794323453473 10.288046913103011 6.652892735661328
Si 10.327988419421041 9.627743415118276 8.747043242613497
Si 7.949980843225301 10.628190096059711 8.775789799129013
Si 8.344554778783962 8.760341638790088 10.217843690396805
Si 7.99378558960836 6.253471612804233 12.984286395977785
