28
Energy = -131.1368926 eV
Si 11.85005136138812 13.896511564188453 10.139388689386346
Si 7.856754130525377 13.072572951192896 10.407783389012407
Si 9.956684813323397 13.441226008116821 8.782364080956789
Si 12.488012729509155 11.646624224726786 10.522234988278825
Si 11.027736322470005 11.067366652369648 12.944653969593796
Si 10.103292360778388 12.507298044635919 11.218448603347365
Si 7.96867510916205 14.594244710440288 8.42366847038935
Si 13.339676521905 11.452595085960029 12.770030458627994
Si 6.44759215212817 11.22616486773007 9.587946229782956
Si 12.207715893581323 12.241647855348608 7.721948768156326
Si 10.040638318955608 11.109936051486477 7.629748082326761
Si 9.802498573020662 9.636408253229046 14.392309333354866
Si 10.159793406299379 10.400132862817047 9.928957772047724
Si 7.909350866126232 12.21045359612836 8.010792701745448
Si 7.1297366448772985 9.118944139099527 7.748061720828094
Si 9.360409266174004 8.920873646550406 6.7338794493469605
Si 12.56002639701851 10.038274837023787 8.817376505373327
Si 9.064231928705729 8.785353661243303 12.350667703819605
Si 11.24576276793837 8.57998333788486 11.074717155033694
Si 7.959725959841282 9.523409960333439 10.27253360270358
Si 11.39015583146092 7.881105291355396 13.68206815511111
Si 13.079693280453311 9.10739486213761 12.437566805929016
Si 7.9089696490872905 6.985108607345509 11.24735174303135
Si 13.627688520399898 8.224941927214656 10.287294176196724
Si 10.257610070507493 6.538788844565116 11.890688467019201
Si 10.826368047968367 8.164458024111056 8.556139738836738
Si 8.44854479664832 7.567240541508104 8.90921633604959
Si 11.90940742485232 6.518993559739098 9.917122497808075
