28
Energy = -129.87899763 eV
Si 12.701392648163667 13.717396988181322 9.343076198020844
Si 14.759268228484375 13.688322325515179 10.385478376981347
Si 10.287865631556821 13.887358920597256 9.904466568678835
Si 13.474279452941957 12.875074681649455 12.266936416176474
Si 11.073604483515172 13.25502686589151 7.727282677691387
Si 13.735862126080841 11.476845844643037 10.247296035578218
Si 9.162354943300883 13.414597713107943 13.279369975890702
Si 11.125960591613282 13.012618445957655 11.996116651276843
Si 8.352460963399226 13.117740876221383 11.065857874732728
Si 13.911646941967208 10.62260777992844 12.70172852844208
Si 14.870502228653795 9.442567038749917 10.773746773472858
Si 11.509422436184213 11.356194376269627 9.175053128395653
Si 8.56921887649935 11.351980040603772 14.409547175374087
Si 12.571289896323725 8.866374683118645 10.47921915752473
Si 10.880005357816136 11.838803321874375 14.964857758293693
Si 9.595468431973934 10.348953963477769 7.470744009209934
Si 11.828439548801908 9.103266710058916 8.056499383249626
Si 6.87061305203219 11.335727108586743 10.349958731568314
Si 9.394962913946012 10.781404513930683 10.153275820875054
Si 12.258176137440278 9.896102622811506 14.26846003865625
Si 10.514004328424056 10.893480416320909 12.753318619904167
Si 8.044984131734731 10.436212413272573 12.257717505479745
Si 7.910856592099752 9.295962681446559 8.905963968341617
Si 9.753283377005838 7.909736384771103 7.639243015550739
Si 11.135678426470983 7.13379875942522 9.48742309786518
Si 9.268946947563116 8.598355042765057 11.29573481647698
Si 11.361817049093798 8.627087782548363 12.443487379889415
Si 8.689483917746282 6.921178643147097 9.736289882320028
