28
Energy = -130.00002675 eV
Si 11.480034773036639 9.06635966061198 12.826486133703753
Si 12.635327393435423 7.186006242087288 11.739250509402272
Si 5.253909523364169 9.466461009219971 5.99459246598119
Si 9.21048644173457 9.674881914711673 13.499151818760113
Si 6.534997337870386 11.685404726803608 11.401457461963462
Si 8.764426249525313 7.139847447936031 9.696003079377478
Si 10.73719973907469 10.552694297555382 7.297257390818943
Si 11.177454165199359 6.912445484299179 9.787168652329733
Si 8.720069342463004 6.79229525667606 7.221894974865215
Si 12.648540262428417 9.147873966844106 10.44906522700679
Si 9.993628716544702 10.156792888603146 11.190795687935697
Si 7.306763365185131 9.54633031943662 11.84663866878719
Si 10.358420134570052 6.848136021949542 5.603094725846635
Si 9.090772954829538 11.706983900977777 8.721257904623933
Si 7.3484677115645045 10.244056202997191 9.498677136087993
Si 12.247629522605967 11.211679525310503 11.515356493934522
Si 5.929096633836455 11.06668304188687 7.701368048372786
Si 9.681532469723303 9.1968057020215 9.042158435136109
Si 12.175801411707088 8.886027311847123 8.210167180258507
Si 7.453285144188482 10.407179713018003 5.7172267250703275
Si 7.6682947508163455 12.431911296844682 6.901389527193205
Si 6.758143261435117 6.420391308036035 8.457576051784017
Si 6.9178667718159295 8.640330929279413 7.593000871224097
Si 8.682499959592064 11.846613270044534 12.48475203970711
Si 10.276115756995067 12.515806855469268 10.736932860750958
Si 9.307312903411534 8.99707674510505 6.216186207459257
Si 12.31197530186864 11.01551401726063 13.889905930643467
Si 11.946270471046322 6.642284628427926 7.537479289555049
