29
Energy = -134.46600599 eV
Si 8.941975213282879 7.080866204951192 13.172159017048997
Si 11.317304692892712 6.615712665672629 9.513940289079015
Si 10.133421775030953 9.107758711878295 12.976423684404502
Si 8.807009323927513 14.343157492348249 8.53082984357375
Si 12.277894527175198 10.414573213092178 7.63705871942254
Si 10.940643200983605 8.354538211426428 7.717972998019855
Si 6.803932821642913 12.924525669703261 8.623301458645269
Si 7.519821989747694 7.342947632879749 10.904360231504716
Si 8.784813309162018 6.006535483211628 8.975987247790835
Si 8.733611879409372 12.798860405106925 6.742550982237757
Si 10.720881846606973 8.794579512300704 10.729711205030641
Si 10.047337876153197 7.405003313858395 5.655952725517238
Si 11.338278933385823 5.972182165413843 7.107706463503809
Si 6.734586251661739 9.230752746611234 9.205402423338867
Si 5.7765685974024 7.115568331270928 8.535360664596332
Si 9.251211946087018 12.050902433925746 9.062412144595395
Si 9.003572453960402 8.446345484875696 9.14233558473508
Si 12.788697683648685 8.663311284447758 9.457426133781055
Si 6.642260617272176 5.39365826439767 10.026120768086825
Si 11.262014726504246 10.905536808009307 9.841296978287755
Si 8.356794993957005 9.250180687561798 5.6671414487014955
Si 10.851021494068585 11.398266676830954 12.406691345504935
Si 7.548982746997826 8.894773397194408 12.710221746238918
Si 7.334618378599067 10.828713621863201 7.438249456398567
Si 7.802870829868236 7.389955480215573 7.163805586225041
Si 7.275580375362711 11.265461401684243 10.29482450182712
Si 9.870159718290978 10.72485010917643 6.88290367476721
Si 9.055688659308977 5.289717246934824 6.607185741441644
Si 8.498948801214288 11.059082169544366 12.24645642332422
