28
Energy = -130.63874923 eV
Si 5.45502776277787 8.784875596139596 8.536404668793246
Si 7.160358812871112 10.405452069409108 8.198447619625865
Si 10.677585279969207 8.938007077037076 11.18909180066595
Si 10.32645997928521 11.54694905119702 8.166476750975146
Si 6.78771857134573 13.8197545582533 11.139653184646663
Si 9.536277295379573 7.601038918134707 7.586766823200559
Si 11.11844129881857 9.25028631767629 6.783879267635561
Si 12.798416431295303 10.066530857180725 11.3606820278969
Si 6.576675643941525 11.568843180091616 11.342500155764768
Si 9.2121591773489 9.61809733602425 9.124014349137388
Si 11.841322846218782 9.84927604029577 9.125387338467792
Si 6.748345222490076 9.494722179119982 12.436960052112326
Si 8.056224670818482 6.54081150946165 9.528064034930985
Si 12.330213496792995 7.398338879932317 9.21946382279872
Si 9.502121041074124 4.778926408440753 10.278992636041117
Si 9.011704210847288 12.594691708562166 11.192572093681012
Si 6.949268711784444 7.208991330247832 7.5486110358809615
Si 8.448416704825624 9.705774783163168 6.282157355138933
Si 8.806215868098356 10.25804296892387 11.556103332355937
Si 6.999349426526558 8.538423239048202 10.26426085523917
Si 8.216884475186816 7.4387053810508945 5.562241062477699
Si 14.275691800957746 8.429846849962995 10.023395070184248
Si 10.824188365846284 5.767410140113859 8.42829909006778
Si 12.912279507198829 7.491901326438775 11.764252189595041
Si 10.759205633562424 6.637549812326388 10.974387753143956
Si 9.704437068208245 13.644728806560375 9.138330865513371
Si 10.191254752563479 11.201458352446597 5.803373207722066
Si 7.563531937107345 12.58458912096942 9.139735310296112
