24
Energy = -110.68216544 eV
Si 5.998979861442457 11.669680898141065 9.38561843653197
Si 8.912429882840968 8.33897922654012 9.124900059892376
Si 11.772453759719012 8.087607116825996 7.661652272604829
Si 10.832386776986336 7.008625816957058 9.901372137633583
Si 6.713920732166339 10.370814448229421 11.234126791895894
Si 4.047642865790137 7.333766071306801 10.113155650611274
Si 9.359581249964345 8.54603108425556 6.528739441220217
Si 4.936911986615315 9.479272235103503 9.269465784061708
Si 6.463086705962378 7.582088190525185 9.77345332044064
Si 7.1079999264525915 7.89485514431879 5.666203852061144
Si 5.26704852295388 5.5703728539852175 9.073860518480462
Si 10.231154240858528 11.641614848756353 8.909761924480918
Si 6.52481719544086 8.992099200587425 7.645914523276669
Si 11.578585062441949 5.571325186762768 8.21098615523918
Si 7.956979050636383 8.185528514126124 11.526603789770506
Si 11.323874298049162 9.369677259097887 9.862541634538719
Si 7.997285605451712 10.741675338277235 8.306028686165515
Si 13.035084882587492 6.520072539805748 6.502154614217449
Si 10.707670473333616 6.761056042697924 5.7465999632356475
Si 9.73916699917124 10.914186202492504 6.528261052943449
Si 9.099051336699532 10.214096088249093 10.642323347490846
Si 6.89082432734853 6.42073879199107 7.565946138780062
Si 9.307981157344315 6.297450864181929 7.734176523837541
Si 12.01186063986339 10.612450537011373 7.77508852894197
