26
Energy = -120.97795933 eV
Si 10.776689586113235 9.567004176807297 8.707575561859173
Si 9.84111164015742 8.22667741460499 6.9367856633547476
Si 11.903993103720426 7.463526780609819 7.904951605943357
Si 14.367231646096656 7.889781622090257 7.846957815923952
Si 14.277753275443265 8.26541147334743 10.330404259609763
Si 8.586630355829481 8.438568077825952 9.001906025286354
Si 11.986173295535728 7.7222757458354305 10.202104577033284
Si 13.271660786694133 9.829643045447758 8.544637805095292
Si 7.354599054677802 10.50941239606116 9.163534301774986
Si 13.341696776850062 10.43998937827049 10.882953422905606
Si 6.663354523086532 12.829400287627879 9.588304177746949
Si 5.247579523595028 10.749109834652812 10.236173471187556
Si 14.023413730568436 12.348081464970257 12.128120047486018
Si 10.715040734246967 11.506357507836785 10.075653116532973
Si 13.941074525369649 14.62629619391499 11.254901686515458
Si 7.958443031510822 7.612581944480859 11.279053861732727
Si 6.2113782141182075 12.103919579820998 11.99722026052025
Si 8.540091523520415 11.959973590270206 10.89240841947701
Si 10.109936819593482 8.545143953625633 11.276290981060491
Si 12.467749064572867 11.676222328011452 13.986485385611271
Si 7.303577379259473 9.956381822373269 11.435796874834839
Si 11.32747594182006 10.400537940281879 12.148109132476101
Si 12.12903914447452 13.284159275462033 10.617511624979256
Si 10.297620435123282 12.63691300909322 12.592057866016996
Si 12.287193525954818 14.079531390238822 12.94861542298783
Si 10.953385891383121 13.446188667507377 14.73649860358648
