26
Energy = -120.00264226 eV
Si 10.991722798437301 9.254055247481634 6.906181996556908
Si 14.985175927135112 10.326882991262227 8.151206975047122
Si 10.767125460871457 11.231661397095152 8.117003326297816
Si 8.944420338633643 8.120377988473583 6.987105462091998
Si 13.266006214952824 8.64579925489777 7.924429900856612
Si 14.77732248825947 10.57477751903672 10.606443055012473
Si 12.874570976630187 10.803621899310683 9.084211551523873
Si 11.91516539166688 8.667405419995568 9.824955983679486
Si 9.697201029245663 8.984029144360779 9.030757279711342
Si 11.673658234743554 13.19511527266916 12.536278543004062
Si 13.991754261182797 12.120412778006006 12.249464710224592
Si 12.759556888650893 9.834480916307676 11.677785650234952
Si 9.895984417519486 13.560672037794852 10.897665606107864
Si 7.279448064511875 12.626197166590828 9.420397222637117
Si 9.492378811866216 13.189482908937487 8.582905212448756
Si 10.574471848448319 11.06442414147397 11.92110597955577
Si 13.190402410584571 10.075337186036554 14.068845567513799
Si 9.045578313459087 11.123587661650234 10.000859851481746
Si 12.860199857429716 12.577740043449694 14.692779276272248
Si 15.022624861435164 11.674976970236543 14.347864344278166
Si 7.6312147489449895 14.224820583179634 11.337620495025973
Si 7.946233232003573 12.050138362823128 12.123099988907825
Si 8.816839100493636 10.177141253829724 13.344749482719704
Si 9.799013134361017 12.483723942620081 13.894419481007052
Si 11.37118313311528 10.933493827910311 15.359193089085627
Si 9.039048416168246 11.144443143695248 15.650870598657548
