28
Energy = -130.41126538 eV
Si 13.834442996001416 10.135457115689018 11.800488062606817
Si 13.304227535592641 11.522956569808848 9.945064803806183
Si 13.464052366381015 12.750555284648113 12.288821087222436
Si 12.315510622016298 9.41175261067336 6.252282032789505
Si 12.005328353862629 6.257884928437395 11.334229007869396
Si 10.903973832043741 6.694585109973265 9.218699131780708
Si 12.732494920447952 7.7304864834033875 7.999083835736785
Si 11.557444367237713 10.179490686661236 12.523818128179926
Si 12.736057571034477 8.35485216836038 10.3417298109717
Si 11.809431087372568 10.72000335163168 8.185801452287317
Si 11.430288517397729 15.387424367986213 11.472327448342561
Si 10.640041852454498 11.122277179997262 14.582546974408677
Si 13.187871220464494 13.83953495097499 10.080645122807654
Si 11.153090122807011 12.909867369572801 12.732878928075845
Si 9.350234046882566 14.659935962187918 12.489508610192154
Si 9.091879005533372 12.898352629010102 14.220019153538992
Si 11.151474667610763 12.894933519963464 9.097500698704168
Si 10.585981082849603 8.021480539999255 12.066149820166293
Si 10.32390462288671 11.605921189963809 10.91668732463637
Si 9.760052943403434 14.644232366843555 9.939842134871144
Si 10.593633773448431 9.416795427151724 9.863350463007993
Si 8.848868659650073 7.907044790699845 8.85892605912273
Si 10.401074636816649 8.769263789001194 7.3605182755786105
Si 7.593014220995516 14.321476556970135 10.918764128408927
Si 8.798289574429216 10.6670280582524 13.05925175612371
Si 8.241500621663192 8.387923595948916 12.51104548563371
Si 8.23681809808628 9.639359343740127 10.498033900610546
Si 7.984623484078434 11.951511312965318 11.195408456935597
