29
Energy = -135.00491449 eV
Si 8.6833538414129 9.790628773517257 10.792725261716681
Si 12.515127731316607 12.43297289063473 7.317268338800947
Si 7.493855579119992 8.497456940818264 12.58367882976259
Si 13.367402174241398 7.910261294102195 6.745013375308869
Si 10.991853339873748 10.346633129761702 14.663074097154144
Si 12.580349600915529 11.219444055381844 11.136776097321079
Si 7.26270843397572 11.608039491239381 10.11436298846052
Si 8.429704970717674 13.091451051311795 8.692328963587949
Si 13.369443603173849 9.84975823827605 14.54039012277597
Si 10.44197124482575 13.899875930046111 10.393727890269933
Si 10.42819966468554 10.920133047002974 12.160858365902836
Si 13.502108424684941 7.146714253299177 11.168469590742816
Si 9.859682941503294 8.819656426469285 13.17938923353833
Si 12.635710368660657 11.847496009038233 13.473832096657187
Si 9.978033147149608 7.816000585941816 9.536985291552575
Si 9.70530474622183 13.07357417733046 12.523280742051641
Si 12.58965805940399 13.116748387141081 9.647536844460367
Si 12.753098099233432 10.06940243804239 7.7786178020778785
Si 7.652401372028262 7.61799924782401 10.280853798432256
Si 10.81072688466969 12.875458131754847 14.663956938932015
Si 13.423507501451443 9.279282613042774 12.19429403388997
Si 11.06223772903111 9.951133596148317 9.48832525104106
Si 11.032971782881871 8.318103120225826 7.392657043285047
Si 13.269244135595356 8.078836564880694 9.022785029826908
Si 8.571350558230476 15.268148185901238 9.663550548769011
Si 7.783714962896438 13.587276466952448 11.241560402082527
Si 10.532150945199223 12.047870482172776 8.581075399977712
Si 6.1945321752612745 9.583149107976457 10.674722201803611
Si 11.287088118005691 8.087588494433213 11.435510835500608
