22
Energy = -102.16710018 eV
Si 13.524491979608946 9.634245718065353 8.537933992698896
Si 14.368277164639505 11.452204115751272 10.317014993541553
Si 12.185175990958669 6.699819800936145 12.899657900124463
Si 13.374734006989614 12.108784329406348 8.239204480989722
Si 10.478841986076372 11.277728912880733 10.432954558212385
Si 12.541209656230935 10.012614039069746 10.729336534285336
Si 11.85985123571842 7.6281678023385 10.721112802522448
Si 11.843140632188085 9.06158263637311 12.888515806124197
Si 9.948473790721788 7.332212898308464 12.413768904985607
Si 11.248990512143855 10.403652667754455 8.271819901219962
Si 10.945879190070992 12.79558019167254 8.426661364297972
Si 9.360908846297969 8.975696410588379 7.726289305231965
Si 9.636860978506995 8.575916184032446 10.084302363850261
Si 7.832017137304396 10.537987502421668 8.788163177405178
Si 12.386635182944067 12.949207761577998 10.501861725199301
Si 9.516138433694806 9.76580962903526 12.142440827337905
Si 7.29876133656421 9.08635453366795 10.760078126616593
Si 9.145721211418227 12.420427953770961 12.180235642114006
Si 8.797714498928064 12.942869912553206 9.742951096627632
Si 6.61628502625344 12.577784056293995 8.724637902642435
Si 7.408752385125527 10.593662868888215 12.946630258356647
Si 7.036391399308665 11.539465144588624 10.842869879122384
