28
Energy = -129.73052268 eV
Si 13.070545323094958 11.069027972256528 13.03435188579793
Si 14.164383066662147 10.52416919763265 10.732278346906872
Si 12.89686887667804 8.797565890952416 11.795157328290966
Si 11.64776560179582 6.877616891958197 11.150317369190462
Si 11.71196355352143 9.289057415818718 13.962867865327102
Si 15.26986579287327 11.746856898483713 12.675445263170179
Si 9.957596718146062 6.877303191842492 12.839013657942438
Si 11.405227201593732 6.843396748894604 8.787348865947811
Si 11.289152045971589 9.014668847704042 9.692787464576702
Si 8.119090568832076 8.215268406175854 11.536897369702327
Si 8.423806327532194 5.975564079414721 11.08790539281898
Si 14.22658820132616 13.565118957780415 11.628073438503717
Si 10.61594350218035 11.49915992783108 12.85896443682501
Si 10.32175588838687 9.258072874390615 11.915371589252363
Si 12.135227878647513 11.783207967957047 10.837581311621749
Si 9.156818444695014 7.429132532195321 9.344482451671722
Si 14.073517276259738 15.61643729712269 10.753367358148187
Si 7.196340367973028 9.813688660363221 9.983383229730297
Si 8.88349163932898 11.925372508531417 10.497185995130003
Si 10.673658856894296 11.275857533730985 8.973257402934285
Si 7.559500233140012 8.620012055901938 8.005390280293256
Si 12.363609098125693 14.162392607290824 10.204569182819608
Si 10.034475167994106 14.19818483991733 10.780810140857636
Si 8.617965918466844 10.691550310442288 7.903156833773223
Si 11.202597417494184 13.540822172175512 8.155539902528453
Si 6.561200939794626 11.910875704333241 10.90752003728448
Si 7.153708124333971 12.44947627704665 8.581368996459194
Si 8.973794502964406 13.896804352163933 8.75888899665721
