26
Energy = -123.57947423 eV
Si 11.37711481463571 10.98833940919078 12.498550828423088
Si 13.133329438329248 10.096001323490464 13.980254136614079
Si 14.225003241925448 8.14263409573283 12.908510506042864
Si 12.201466901555106 7.944533851798088 14.511151210472994
Si 10.537217730291898 7.865128545347158 12.496804364991963
Si 12.611656398310048 7.891270921202892 10.895877499316656
Si 13.440198894898769 10.05255948486022 11.537743569346512
Si 15.082941745736216 11.577678830903482 10.717124470027768
Si 15.325369411896153 12.36647788847317 12.96749639831557
Si 13.276206084130965 13.517201803271728 14.2840272875587
Si 15.250036711958758 14.716140980246525 12.917898837470943
Si 13.673605830695374 13.465311944118934 11.144707349650325
Si 11.728652941773072 13.304817437843584 12.49572853909478
Si 10.969911431598797 15.533281295744215 12.368106754113896
Si 12.99156577860034 16.537620915291495 11.407831511488698
Si 12.695858171778163 16.57345204163218 13.768093706208427
Si 9.369856157957386 17.371408646569616 12.141686471779183
Si 11.603105139307019 18.536471619734744 12.405920334583298
Si 10.47082225531158 17.089561168988816 14.324481499707131
Si 10.975025957468796 17.035688812194703 10.30687701577591
Si 14.384850713748067 15.502387025118848 15.015044171494855
Si 14.932626108081827 15.43404579631535 10.649050363722447
Si 14.531684535533616 11.658075491181064 15.114896965894307
Si 12.391874260141467 6.26504479573479 12.71771584475738
Si 10.851736156901744 9.47887560301798 10.724965984849774
Si 10.489016526736838 9.576723611297849 14.220187717600318
