24
Energy = -109.87063559 eV
Si 8.864960606423539 7.958555176994137 10.66972780517724
Si 7.720344455219026 12.143316186580751 7.471789462533803
Si 13.212681621181751 10.334769990479183 8.5917428814947
Si 8.156957615858024 8.300339290219855 6.94292080243916
Si 9.152207027827638 11.611451260475404 9.406569983317992
Si 9.755612220442902 9.604393687217337 8.097705297840596
Si 9.386406800254012 10.072732609114535 12.378983312309492
Si 10.732646343466792 9.7346000207694 10.463565838538603
Si 11.042634917513052 6.874227090571401 10.729454918237112
Si 7.6209487575628785 11.284451928733374 11.319670766943716
Si 7.469845143074507 9.66959980182527 9.413754675340563
Si 6.108318125333754 7.764361509802176 8.158199462676613
Si 11.457788601793888 11.188053681092116 7.340774148198116
Si 7.493344771283541 8.697850815076354 12.579076010341833
Si 11.436008670549839 6.026279610314684 8.413633782090702
Si 6.2413394269354 10.141599478812214 7.326045021658571
Si 11.613026395502104 11.910510632478362 9.691226545125803
Si 7.898359526743382 10.224618659682028 5.512597692838145
Si 11.61962926113868 4.688446368413276 10.400047616447525
Si 9.586352292806929 11.902362964738828 6.057276453966185
Si 6.3876956686873 7.784287947882446 10.604932316661447
Si 11.763489287962042 8.356919201623043 8.775424199547416
Si 7.074758262298105 5.848778958801703 9.39799619665477
Si 9.162754519963787 6.657982428957399 8.508433871823735
