25
Energy = -116.09306483 eV
Si 11.494608090375788 8.917388835876368 5.542622853824257
Si 9.659543061308714 7.656091757947972 6.194292549829736
Si 8.722970092988023 11.37173010216742 8.030287375953021
Si 7.191537722681629 8.508658984677055 8.47636047335137
Si 10.148054135747826 9.60379574808279 7.537227934734835
Si 12.496758686339856 9.27009893493282 7.698632397608772
Si 12.398229025800246 12.60037086876293 9.918387318397563
Si 6.481497197540407 10.778382592344881 8.615375463742128
Si 7.6849570495525885 6.639318814579644 7.055897591530569
Si 10.046636784830575 11.929485236086965 9.98062463525224
Si 13.705630083741099 11.167086313568813 8.526758855007444
Si 12.00315092639164 8.558180474785328 9.895957401082391
Si 9.415181817982898 7.556969728857726 8.632479913687511
Si 7.809604728062692 10.856112138640546 10.58184150725869
Si 7.786052173911582 7.523188369291483 10.558895196492152
Si 8.81626593748621 12.922915930974549 11.773401702693077
Si 13.444139584487795 10.388693521998983 10.701060019549152
Si 10.997424511232982 11.554712245438772 12.367592636057122
Si 10.118690058332186 9.670814754406154 11.00724461175594
Si 8.10593553169138 9.179028397146439 12.390244646262309
Si 13.238535389674809 12.261935049202256 12.166454959826824
Si 10.294823791815354 7.117410928548528 10.905214893875979
Si 7.093876345497128 11.477208844846539 12.784514567916842
Si 9.243685510900853 11.788877331028027 13.979782877694724
Si 10.308807602322181 9.408139936503199 13.385443457310803
