29
Energy = -134.26043609 eV
Si 11.613412297659659 12.12191368506093 8.088907952696633
Si 10.752623555631429 6.682717120921862 8.510075303131673
Si 7.185280585296586 9.91029602327304 6.965530416651769
Si 9.702637777394461 11.653725178579949 9.430339021124981
Si 8.926336272826006 7.997491366777926 10.579157158701065
Si 9.274700534666144 7.176096226821747 13.196719309927964
Si 8.734887984240602 7.627111341591466 7.412479532507845
Si 10.44403900677796 9.952288919662452 11.426477898929377
Si 9.56035986569189 13.000640704451163 11.485883200093022
Si 10.116899730418195 9.168564574897362 8.830648285795258
Si 12.45876068565418 8.398340411385659 8.478620413150123
Si 12.567639435858242 9.367307531409745 6.285900393415577
Si 11.314070737041497 7.731170487840741 11.94637671610313
Si 10.172653640294604 9.809544160348358 6.5067853317620346
Si 12.168611575959435 10.435993278096186 9.791749679464617
Si 9.16142199841885 7.869574867281666 5.157042247768921
Si 11.53157579353196 13.399825217071566 10.059599773146806
Si 8.266588433546897 9.061076343502812 14.388705597025853
Si 6.228900103093958 10.930043055345456 11.104951499350946
Si 10.03297131334407 5.929602275603783 10.835121155065485
Si 9.322401604073466 10.994927796921381 13.292525033740402
Si 8.451280543709784 10.306375956672856 4.961843121857246
Si 10.83471510403529 9.0260400884121 14.001187695040372
Si 11.26119909304353 14.503442137406253 11.984693971954552
Si 7.839720425520287 9.507721371419517 12.07152806097429
Si 7.443671841027407 10.98701709617935 9.041727316680895
Si 11.303040905606284 7.385454984406567 6.1417655905925415
Si 7.009166753493039 8.5346275341172 8.852792978023862
Si 7.535326853894079 12.4830040603096 12.506736637364757
