25
Energy = -116.61124119 eV
Si 7.927994592400378 11.944299383440253 8.409797515755184
Si 11.469997215203147 11.076697842432662 6.642389240905017
Si 8.376723634220753 8.082153904895952 7.427382511860506
Si 9.967560653149965 12.70655604526089 7.501560808890562
Si 6.975780884308674 9.768406863044646 8.278419101817667
Si 10.048420126740817 6.948223864567691 9.40927610669586
Si 10.5483173773782 8.99099487024908 7.4830872040177026
Si 11.457824264456368 13.96912963411097 8.976959519850677
Si 10.50593847932027 10.759879292531974 8.998590333358964
Si 11.723764076256328 11.857702417687292 10.82150885312188
Si 12.806442233096487 11.81000490688734 8.662994196607974
Si 8.121989204198304 5.848336258878643 8.403256260224412
Si 7.365908763266533 7.596402899540325 9.80355217816541
Si 12.06093610934176 7.2674327838335655 8.070005901908107
Si 7.245726179187411 8.426545424811502 12.084765865911912
Si 5.516415667617872 9.219667901901104 10.09421473165724
Si 12.410879929667598 8.21304078199091 10.151076347461737
Si 9.650724463061339 12.830227725017785 10.177338746847317
Si 10.612163025423813 6.855104908323802 11.790933243851214
Si 7.291562252250435 12.946823027726 10.50318217180434
Si 9.321287089191213 9.012423127578579 10.612608812444144
Si 7.486426980701931 10.574648393906408 10.696732501207725
Si 11.277138341641743 9.575752119692465 11.949236704128703
Si 9.458131830470874 8.46229531307146 13.138364108793423
Si 12.802924759810963 7.688228440981731 12.343745165075502
