28
Energy = -130.65686713 eV
Si 12.342369998900823 10.369472416159647 8.34160776120853
Si 13.259934391101654 8.251250160188627 8.960912712675585
Si 13.488740205205676 12.168231315344489 9.480847166964642
Si 10.993878985337245 10.779041643883508 6.30828423172702
Si 9.859461360509913 10.609396661935737 8.431313061099763
Si 11.334380749771992 7.356506372137103 10.00830653447841
Si 12.929436518469915 8.98364036782582 11.225964577619639
Si 10.27544430265683 5.434525674600928 11.426700034505387
Si 12.687288353215667 12.584529050943898 6.988819481401825
Si 11.974706420136014 10.917427304219299 12.230563967310859
Si 11.908374167761524 13.9320873209371 9.051906407453927
Si 10.309169579008442 12.881192735467188 7.479160770145518
Si 9.474757085096629 8.849491526008778 9.851976531604322
Si 11.068784810248385 11.84358252172402 10.16192573259502
Si 12.025087066190434 6.969013548382753 12.404058390552905
Si 7.786619067924969 6.378493926196369 11.470652862143252
Si 9.0979904459292 6.431927500096247 9.378578642028549
Si 7.671484065669173 11.56632466943748 8.61631717134641
Si 5.921017564442991 9.88935012356746 8.553334846670783
Si 10.515749518111935 9.062910212254149 12.073444435111982
Si 9.713172131237728 14.206588838553156 10.331696889891882
Si 8.280102292755002 13.903603367920082 8.243535025378735
Si 8.336064696886252 10.138918856986669 11.78110828382399
Si 9.704141014800621 7.057071582474056 13.254106452192541
Si 7.167042037803695 8.539126191317953 10.22504673408444
Si 6.2643968336425635 11.050430842615212 10.651714478026179
Si 8.337341683386642 12.314705852220968 10.870319268999369
Si 7.598703533671087 8.215739962080441 13.076784034393143
