25
Energy = -116.16375563 eV
Si 10.846549446037782 7.963238504973927 5.778564473605886
Si 10.731010329509557 9.750137883957642 7.466332275659856
Si 12.931557911753544 8.918164398113067 6.795914226816356
Si 7.4260835065266235 8.032998998963247 7.487959157151341
Si 7.714743650026184 12.474646913685108 7.022236075913971
Si 8.203908410758906 10.204647827839722 7.242578737221254
Si 9.753481853639773 7.509686035135177 7.914574655576052
Si 5.386809387201749 8.699477461522715 8.8523753798459
Si 9.844344730748512 11.848900768846956 8.240863417922585
Si 11.947110349430922 8.40612115474711 9.033480819079054
Si 6.121638147898595 10.96262445714472 8.512735009566782
Si 12.282752984715861 6.575486755223495 7.356325004874081
Si 10.933455365902692 6.047035528757817 9.382782307507824
Si 7.594725760174875 9.249030055575966 9.612257516427178
Si 11.009617949069533 10.687864994737321 11.407831487847782
Si 6.540665723389307 13.18281401199832 9.123616082987184
Si 13.055060362506836 9.639061365068338 10.81342842890173
Si 8.199465001322183 11.666997548920232 9.964021305752528
Si 9.066816442982631 8.994415733641127 11.44419484706744
Si 10.73804975389061 12.356078554508587 13.106895820535138
Si 10.952887668652998 7.649183064829765 11.183905520898676
Si 12.097059767459973 8.791495965035475 12.875149301698201
Si 8.669683824930798 11.341979822526792 12.375291248121707
Si 8.021567496053208 9.344303730498922 13.562758588736658
Si 10.33519520638153 10.10784949471292 13.848169341249902
