25
Energy = -116.69117385 eV
Si 8.887934483559578 10.346567241916064 8.659842221195028
Si 11.143486195643215 9.982021298363344 9.59074755213596
Si 13.226340666054094 11.145989839066191 9.3283132798516
Si 12.175114712534851 13.178539292932381 9.911850931642428
Si 9.829278740489597 12.554594014665222 9.935024291894631
Si 9.80636683731581 6.861070137193833 10.574034137526771
Si 12.805023121900359 15.371488843322116 10.642561689018313
Si 9.099951034402368 9.164502264991778 10.839127159531849
Si 7.769734274684647 12.571197299460394 8.774701608672506
Si 11.09987439755568 16.416005992146033 12.03496678826147
Si 14.976162552932193 10.252386134368423 10.71796467092723
Si 11.797840380110326 7.645776823809697 9.344832030254105
Si 10.751053132109178 14.067586258981038 11.763322538134247
Si 9.942156818762184 8.035455830977428 12.923925316286361
Si 11.933055684414432 6.79397800788666 11.790609446072644
Si 12.612424231888333 14.936402995954758 13.202652622416936
Si 7.7220202485186125 11.449577695753561 10.830553012226552
Si 14.479669630756463 14.250758530485873 11.908619087338735
Si 9.56670509157285 12.037231376924378 12.457701496598647
Si 13.089363819651266 8.848796339638888 11.058759434482235
Si 7.945586067507727 10.185265363462467 12.821295257009242
Si 12.298703512569158 8.762593287623309 13.41173310707074
Si 13.625831496221535 11.989884535506487 11.682324748747654
Si 11.954360232653158 12.532056253177489 13.377503186349582
Si 11.081052278167002 10.239363983367179 12.036124028329152
