20
Energy = -92.304434 eV
Si 9.749239307365224 10.898256727661275 6.39623479045906
Si 10.115006941192588 12.215698320107522 8.46958459622457
Si 12.007287671154508 13.313356787566068 9.651292570353098
Si 8.611786449669601 5.058042127827663 9.568234845247442
Si 10.977557000052755 9.65444538825861 7.866304375041521
Si 8.567652240170005 9.347997369586503 8.079267835741753
Si 7.836693400738887 12.583133426518401 9.429698847567007
Si 9.632459504560622 14.189535953054264 10.18919697662663
Si 9.069170105302954 7.311886459579387 9.434749981311546
Si 10.804973392416752 5.622578951321468 9.97401008623181
Si 11.328334633914558 7.875769566270566 10.249804240213265
Si 11.010880934930242 13.253598269718236 11.90982351271548
Si 12.89334948130911 9.215866947603685 9.094731203216126
Si 11.637814688613364 11.004322484229133 10.12278701141328
Si 9.027696744677904 10.615846137069795 10.058829073587747
Si 11.50253869304145 8.724088034952597 12.492458967674398
Si 9.116811520387298 8.641849664351504 11.508556603851877
Si 8.502795521735417 12.58898222980306 11.805337602635912
Si 10.304155788489329 10.94742690128222 12.181197762486768
Si 9.540741641339693 9.174263914299813 13.754844778463998
