21
Energy = -96.88511502 eV
Si 10.185699678555363 7.422199731993146 9.333860999913123
Si 11.867038144335021 8.27010883501307 11.12230166465271
Si 12.337251759924499 6.402849592320018 9.679244857831694
Si 8.239026405937325 8.573024781101802 8.747407723546761
Si 9.734718032994593 9.462860875093618 10.792889931565588
Si 10.196935716843797 9.253383547180887 7.544870522308498
Si 11.589068495589666 7.341927841405571 7.244245652172424
Si 8.187902773814724 9.761303391020373 12.522446121321837
Si 7.569723545694479 10.422356891694195 10.170183358426439
Si 13.002976712804363 8.587638936804614 8.800262760120512
Si 9.593703072694817 11.68115130853743 12.899546912320014
Si 9.372128246962353 11.73693372341918 9.387278430870905
Si 10.9236538066274 11.563019458142795 7.621913545428555
Si 11.675208005264668 11.638613554186737 14.1704764425522
Si 11.658234949318242 10.514804309792064 9.653010752305423
Si 9.900359267036446 13.429140519048573 11.01669292985471
Si 11.767643739873638 11.875070686089902 11.63220054601132
Si 8.753939378565807 13.885445563233887 13.043759294231164
Si 12.169040381358041 14.303406495605794 11.247788298368308
Si 13.334509478411098 13.011201225321939 13.040126166395268
Si 11.170010705262502 14.064672903852085 13.569626531509005
