24
Energy = -110.85297303 eV
Si 10.8273381805812 13.336938565227813 12.177181281386657
Si 10.273315934538838 7.466895326182628 11.933673424265438
Si 11.808427214156918 7.270846900166806 10.009982900291844
Si 13.952355936032799 8.300240374134503 10.058908820861495
Si 7.852133044990698 8.719776287231852 11.848592143112441
Si 8.06671428093273 11.119198313447983 12.127861619434634
Si 10.276236017354309 14.387922503675618 10.086670061656204
Si 10.21358474627119 10.212654022303157 9.08603257377946
Si 6.624469233816322 8.052393920964436 9.766184214544221
Si 12.213326055116786 11.42144774027973 8.10959222681571
Si 12.520639806588115 8.890286765449014 11.96777469690312
Si 8.429386818968705 12.877817328195924 10.509745930680497
Si 10.145655718181894 12.622531049895645 8.252858519676563
Si 12.446375512810619 9.005779311462247 8.236731556391916
Si 10.326604162297963 7.823088180435299 8.058756104313188
Si 10.212212220726494 9.882845173274562 11.430651342690993
Si 12.397368677662358 11.38194843799107 12.203269703563972
Si 13.802777192029913 10.846466385209544 10.192451487994221
Si 12.18902665925436 12.826992230328312 10.093900663434589
Si 6.600116931121629 10.472336541984372 10.254500134016158
Si 8.133277198477243 9.153108230449325 8.099974356029085
Si 8.893096009939542 7.359985347340559 9.947889888489831
Si 8.004869363412709 11.549487268704718 8.508524636261988
Si 10.130577544921588 11.358898195665496 13.378176053220898
