21
Energy = -97.49578298 eV
Si 9.500847988027752 14.932648229756808 8.739562885026903
Si 11.165273007760728 13.779890653487818 7.467695876442062
Si 11.627426496544397 14.175822362142943 9.807694204673522
Si 9.790505392603377 12.422722527985346 8.857605211008819
Si 9.095911435261458 13.560367250920537 10.85776698400632
Si 8.187250835761198 10.228850067915054 11.396802485188523
Si 9.906901314171837 10.234506682649744 9.808833401678099
Si 7.691344510526981 12.381208508568164 12.31278682939896
Si 10.072180165591451 15.73387683370964 10.887622546232066
Si 9.042291997966256 9.008797276332027 13.234389126082872
Si 11.334936346065334 11.920344948843294 10.955122166695032
Si 9.659735445869135 11.347327821281178 13.084606078191603
Si 11.033952074071108 8.31660089000781 8.980793851108281
Si 10.700301190988714 8.35773492024366 11.660105770222009
Si 12.526856404398158 9.920992132316377 10.355227709128581
Si 11.98079607653944 11.812337630540817 13.2360987051038
Si 13.268933844297885 7.571562423122999 9.55075218040832
Si 12.550213687350508 9.460977307629413 12.742260607317299
Si 11.208220146546227 6.366124349546991 10.523756745690084
Si 14.51458749306223 9.035216618247611 11.25715597917842
Si 13.039845300184622 7.16555738438916 12.135431282076592
