25
Energy = -116.06689415 eV
Si 8.493099693028753 9.272244321351742 6.512349629093231
Si 12.322479605900327 11.054672517515309 7.690987976422102
Si 10.43644686806871 8.04620238202304 7.198549173060514
Si 5.97604753618681 10.82387379396417 9.563848808127984
Si 12.745315151136461 8.853203598431403 6.791294986889719
Si 9.691855180899084 9.718827338775945 8.763036353935414
Si 8.662249722490381 13.468456838543043 8.298211103407873
Si 7.935634146194839 11.30701381908966 7.911894274763276
Si 7.196914805628081 8.918097143561152 8.515613220012158
Si 12.792013397878494 9.0804708116445 9.13494963422697
Si 10.850648454962347 8.131652968813016 10.097287424691395
Si 10.445804573968251 11.999914421337818 8.814056504586649
Si 9.980739303355138 6.258321711281022 8.875012738572153
Si 13.27024922962641 11.389023748513207 9.999748576732319
Si 8.334916140811695 7.592690838425417 10.059917071645808
Si 13.48436393624746 9.264421559244257 11.414094890642208
Si 11.411559738588375 12.86051178644458 10.952632171378955
Si 7.374701703118203 9.835637452081011 11.179717567719818
Si 10.831106197862407 9.107414003708957 12.262400243227342
Si 9.674087162966453 11.260069453951548 11.409925282129578
Si 7.617858832560115 7.758854246817447 12.308522788081735
Si 7.805572363201359 12.370270669351058 10.325686255307286
Si 12.277786081401484 11.090578130211782 12.388352474476074
Si 9.44584081753209 8.033412237139682 13.905483563721335
Si 8.57630565817316 10.137760509566379 13.260023588934951
