24
Energy = -111.04696808 eV
Si 10.834551340843358 6.3450688747643245 6.395039195646461
Si 8.795440357538478 7.63827556115835 6.3696116344213
Si 6.425399770153862 7.111273119423902 6.468592455118767
Si 9.11280802968971 9.969194986135758 6.698254539892038
Si 12.186947141137248 7.784725815286366 7.893687575539548
Si 9.834982229523337 6.478684488649054 8.4908187276783
Si 11.134488569720524 9.953660774255274 7.963196962328837
Si 7.20663266935048 11.443449260527734 7.302144692286406
Si 8.956146809226423 8.91882737566067 8.861180224022952
Si 9.212631969399416 12.765230351494198 7.668573716689774
Si 6.618267182421163 9.129732154051224 7.751462180792742
Si 11.653137029304206 10.396955825432793 10.892165305285177
Si 11.054193556428375 11.97379967105497 9.256114933275514
Si 7.35872484216707 6.953449426053993 8.690953269874763
Si 8.874445031435311 5.502680128058726 10.541959199338658
Si 5.898446934814882 10.759725847923304 9.463871133540597
Si 10.988709524102294 8.201069841538187 9.980693000283496
Si 7.828738886399438 12.341712755430342 9.59449616168591
Si 7.128461778653386 7.132903772593281 11.101278408093544
Si 7.688206353364069 9.511197954607347 10.742979802966968
Si 9.400316421700145 11.339261742999534 11.136132597311022
Si 9.46755993423039 7.4395456249934835 11.819834836074934
Si 8.761611610210355 9.620572019379807 12.877835843552699
Si 10.68124599404818 11.04963747797093 13.093474217622061
