24
Energy = -112.01916525 eV
Si 9.60855162075241 6.764659115132846 4.874903782640397
Si 8.743573378848717 8.998025096617601 4.696703893664701
Si 8.101450518547852 6.2008322826639715 6.661862101975815
Si 10.459582774716498 7.153139028345499 6.998905802936537
Si 5.86297890583233 6.863368213411805 6.279028100281158
Si 6.4079220809970305 8.81103084541289 5.143386948807237
Si 4.63020943172031 6.929130436455088 8.34000197460118
Si 10.480855154974986 5.389728947139648 8.715162363833299
Si 8.136534625299142 4.381556627397221 8.350656564526581
Si 6.885178137971515 6.3549102986269865 8.945384950475667
Si 7.988334939804235 10.222678583880676 6.59258579281073
Si 8.414102102855425 8.272516505443697 8.147497365700636
Si 8.943725410729908 11.319711591963461 8.531037510529364
Si 10.210412581882624 7.369818859412827 10.238182407917499
Si 5.543346751063102 9.035689783463697 7.654640141455713
Si 10.766069800498572 8.88406446569411 8.556401587083702
Si 8.746871152449899 5.374029957610569 10.533640386745054
Si 7.704067674386952 7.855486156822112 10.642431395271185
Si 5.654146750588098 10.837032731284841 6.106070442377303
Si 9.41154334772845 8.431969793621763 12.208335331885584
Si 6.822248943379767 9.765587759913423 9.546364992480305
Si 11.147255018869597 11.096278927703635 9.309760112669887
Si 9.489893569456555 10.474775488602967 10.934235682242868
Si 7.580694158301259 11.868142040985807 10.359445927180396
