22
Energy = -102.30295573 eV
Si 11.098289513079056 13.4039694800106 12.431475802672923
Si 12.371565251746627 11.393139680728979 11.354941275086592
Si 12.182700086727747 13.00074504228899 9.546796897764786
Si 9.708506559509825 12.921293882667246 14.393196389658085
Si 8.0075167332328 12.374951718645063 9.94104220691081
Si 9.891312383529065 13.737773702780192 10.278813974200897
Si 11.951684960133226 9.054532623282318 11.157523333556215
Si 6.819978303543115 10.873506044179921 11.837088088588775
Si 10.675061850092236 11.048167001567709 13.310061707288483
Si 10.518034857438225 11.22431857079541 9.826847623871872
Si 8.73414142537626 12.289957158089836 12.334769867315746
Si 10.670721683584448 8.664125558115646 13.191365624257303
Si 12.037560801037367 11.474071982089972 7.590259954981364
Si 6.533421721903004 10.682253625517124 9.404832650298053
Si 8.939924576172034 9.702036862727336 11.945474302364481
Si 12.982267668301631 9.527010038703606 8.358079155158102
Si 8.70404965810862 9.614839136890636 9.5553588132697
Si 10.3681956777523 9.70596023890088 7.666905787518876
Si 11.777791217382765 7.769764942493047 7.355358249255851
Si 13.252635370896558 7.573357657855157 9.75088457784877
Si 10.567713603648318 7.910946172412933 9.57488629982903
Si 11.63732428017668 5.919446994806535 8.871534505325952
