21
Energy = -97.29950312 eV
Si 8.979415474258722 14.020912614726015 11.550011837748778
Si 6.871664514338996 12.82680039770618 10.926164320925803
Si 10.62989185158893 12.903971621461654 13.074912362811736
Si 7.899187441111113 12.547907772183358 13.292624596695251
Si 10.979708230346565 12.944791188020245 10.590536619214603
Si 10.065217205616214 10.923707876450912 11.95928543976545
Si 8.855228998724847 11.905431793066889 9.998285764448987
Si 11.733493893699563 10.634994622398446 10.029193625707885
Si 7.6048851652414236 10.675699018641405 11.784782802500965
Si 10.776429442583373 8.667625064912022 11.531475625980862
Si 6.615560772228896 9.129033370019123 10.218115418273545
Si 8.798845498256037 8.346502832512298 10.181250588993192
Si 11.217687073191817 9.694014871060942 7.888117778019209
Si 13.098879170784102 8.221874287422416 10.89226260938037
Si 14.093355024782731 10.254180667946102 10.202844738649576
Si 8.36477209789292 10.094640099803136 8.525682142227092
Si 9.388846708721532 9.692315576296407 6.334265547201131
Si 13.344090150955134 6.4216604530227475 9.280645676064113
Si 13.462419441917273 8.74230727238125 8.40326438140691
Si 9.345277371154957 7.8235429294135175 7.887111861945474
Si 11.324047963767304 7.559961328331862 9.107117727081635
