22
Energy = -100.90632171 eV
Si 6.549447445274407 10.79618749937264 10.518716169197138
Si 10.128341054567425 8.895255807810104 9.795242519583601
Si 8.34791510757278 9.61338168689603 11.718659572554929
Si 7.86766560940317 9.349543212777501 9.172848126965194
Si 8.116616387179139 12.40117570732046 11.956410627885314
Si 6.826068995552471 13.197760829986315 9.883210682596498
Si 10.966737249321044 7.059269512861982 11.136107315186456
Si 8.041546013936292 11.631337601509655 8.353207015356654
Si 11.687215922795438 10.5827772818232 9.033697869430485
Si 11.696329819970943 9.181965696433 12.091219490356494
Si 13.288692942108716 7.700301738052013 10.773504830393316
Si 10.203133863839204 12.395516739119698 9.105942697167823
Si 8.891513074411566 14.427396286044857 10.171098445622183
Si 13.468688869251267 10.053894280022199 10.376091906153398
Si 10.34595458787254 10.970767259524145 11.22355954641091
Si 11.233628700656224 14.468478922289576 9.612706994198634
Si 14.879656192013293 7.20159253071173 12.465940451275726
Si 13.986719435002822 9.418735699616553 12.910378220386045
Si 15.677341751152122 8.988230425866375 11.081496083178683
Si 15.102562924470641 11.203184942812065 11.654332449304329
Si 9.134022994246278 14.613807486968634 12.627845088989782
Si 10.871145763020404 13.236571953281523 11.68129561091885
