23
Energy = -108.78528054 eV
Si 11.697937586123672 11.919332554723034 6.460275731972452
Si 12.986368871815355 11.602047062731032 8.446500863596636
Si 11.20477023775029 13.426787383512009 8.30674055371632
Si 10.570158499772083 10.49819554187381 7.950451063691482
Si 11.03604369247144 8.173372149765452 8.441103805080129
Si 13.233433707961687 13.714016453818296 9.429658873782042
Si 12.531199616554142 9.557798476492831 9.616433648038887
Si 9.111426510571313 14.017065485791026 9.428635447168674
Si 9.209480724042502 11.697875485571352 9.415123531940388
Si 10.99272367802121 10.989798031795624 11.136707440158375
Si 8.643921678044217 10.124538735225 11.054746044471946
Si 9.993709593302547 13.453774840681698 11.624021959436028
Si 12.290554037196237 13.054571225466669 11.479250321744841
Si 10.298850887803317 8.466340285908188 10.695975326278557
Si 9.330191914076204 11.017398924172769 13.107623792035557
Si 9.25705602264459 13.18747204982094 13.925975422723454
Si 12.604127375446742 9.125129289587003 11.962004123450424
Si 13.368249995144874 12.948023482252317 13.565631131152923
Si 11.165833717450242 7.39721582726223 12.650850188567782
Si 10.762059474003657 9.389894466954193 13.965713378540853
Si 11.408413872202777 12.260951028512187 14.634876881199586
Si 13.156869434762353 10.621657059857439 13.75193717055553
Si 11.991465821378524 10.201591106765031 15.794610249236797
