29
Energy = -135.81519158 eV
Si 13.518024655143329 12.585956953143137 11.182796145893521
Si 11.883935309126091 13.383844648895865 9.627449217799795
Si 11.18175415843324 12.557757397127371 7.441623871968372
Si 12.080538747051605 13.722632440918877 12.646817346984474
Si 6.184157174323277 11.44306664274582 10.837706790348491
Si 6.656647027260681 11.27098035523023 8.43755844964208
Si 9.743688722126663 11.727854119720797 12.632747855599943
Si 13.028266106006042 8.108875698179975 9.505340397136743
Si 15.271625399419449 10.948467609460536 11.373927043207507
Si 6.914558544688732 9.22435429126201 9.856902752107601
Si 11.106819281651061 9.834517154298984 13.2986021236676
Si 7.9826977567786646 10.122029926388253 12.016558132039869
Si 8.408166517298422 9.55792799961437 7.937148413624636
Si 12.392747342938357 7.644429957098959 11.701401306309789
Si 11.470683481206375 8.174366992085918 7.715261264288189
Si 7.605018666191299 13.19577484666226 9.770252024965346
Si 9.726941390567927 13.354385629917571 10.969241109864305
Si 14.038661699017062 10.222563748944546 9.487748231611329
Si 13.275193090039023 9.95194312351937 12.268004753354775
Si 12.016382537267546 10.49958882470808 8.375957356320423
Si 9.168116923754681 11.870897048171402 8.547088386550133
Si 11.34800675428765 12.262593296246003 14.288847274823661
Si 10.575359041993575 7.744818354743296 9.916996160057833
Si 11.497031606616938 11.142960395760173 10.810120830991865
Si 9.441909435076077 9.915236768062085 10.131575658172533
Si 12.824927982725368 10.37658941265792 14.724883665736348
Si 9.620346229341525 8.313168457580643 12.221652046387222
Si 11.099271632157992 15.219074984452671 11.08215439660041
Si 10.447099897880946 6.13191997258823 11.702213923760617
