26
Energy = -119.57774883 eV
Si 11.517575762741176 7.991965953922905 6.0150060556519405
Si 9.397335498287415 8.815357845517893 5.180737347025681
Si 11.569728401425635 8.191638812135475 8.492978614736037
Si 10.927293834638322 10.132717318087867 6.905728322792791
Si 10.852665175406054 10.217098337681259 9.645962086459306
Si 9.408013935005101 8.189866347687271 7.494657478609172
Si 8.552883824150308 10.42878135275822 6.885593436085043
Si 12.358248797721904 12.133232503841908 9.469955295768898
Si 8.540077991192605 10.729234825671716 9.302074526590163
Si 13.993677011490362 11.202287929845363 10.959766478501047
Si 8.719330670171846 8.517928396270333 12.213976443298431
Si 12.83694218820726 14.460792022596273 9.28544742897069
Si 9.770989507756783 12.383280870029818 10.481628027127131
Si 8.424269088020855 11.167326336574913 12.080474558162065
Si 13.40936337200149 13.472343910425343 11.449765498926915
Si 11.14642149193476 8.40239886239924 12.442981519992152
Si 7.001612180376241 9.723958817814028 10.896379755269416
Si 11.031522753933102 14.290493307230996 10.924834805217932
Si 9.46506940795408 9.80241442907827 14.00990000123637
Si 11.724361936220141 10.795930947523365 11.85125149600183
Si 8.767276051846311 12.17596807095086 14.206810914934177
Si 13.490152167751582 9.14977545195199 12.417263028158638
Si 11.996442671275467 14.374001008175737 13.116972989939214
Si 11.993434925722232 9.514246702762513 14.332749163032581
Si 10.735913683641144 10.957330265895528 15.741470212217578
Si 11.100862705324046 12.224651287623134 13.652054097300557
