26
Energy = -121.28822179 eV
Si 8.643667082494565 5.113464884907029 7.502413715165186
Si 6.559436723412824 10.592738136881692 5.867576209855441
Si 9.065057531853537 7.293291307738117 6.884870261693921
Si 9.395374399599756 11.72868628773497 11.030526020446512
Si 11.054363053192507 8.467013867685788 7.781216333922346
Si 6.1396908619578685 9.381500530423498 11.242876980452357
Si 6.845620428118361 11.582861567769699 8.238578301470534
Si 6.579542344049189 10.004601816933475 13.552177980713928
Si 8.866929956746453 10.525887403359373 9.014497004007383
Si 9.009618367611754 10.720307386000714 6.6077913094105805
Si 10.169250027890312 8.814956131515322 5.470660102073168
Si 10.911976285320616 10.034981176810769 12.152511878945864
Si 11.452155402448772 9.761307759402495 9.763732349314212
Si 12.710310644474363 6.654009094489218 7.470648710733958
Si 8.53090268518961 9.679542934210305 12.266325130518435
Si 7.990986817836986 8.486028084907954 9.967810450954527
Si 10.673468953650525 5.938318653164634 8.533294080618004
Si 7.657831905793871 12.696128731174865 6.308615041589182
Si 10.088375055046031 8.020092181026651 10.981482747250388
Si 5.415432980238849 11.418622244426452 10.169844119206596
Si 7.2942067909816934 9.134946786339196 7.5129814943363575
Si 7.067719963353685 11.662278992118079 11.832502450205528
Si 11.119855796133512 5.883124324073299 10.91838798129113
Si 12.41804243935169 7.488680478044936 9.757086188880072
Si 7.073791780371631 6.957941558506851 8.374886450192738
Si 12.544197900089925 8.575844358117573 5.94967551391316
