29
Energy = -134.33181583 eV
Si 12.64150287667162 8.528257585017274 6.613215285296939
Si 11.28382013418802 13.015221678789272 8.04600370704318
Si 9.79086626344054 11.479840627673124 6.630645421759359
Si 7.055690877048884 10.416137411897488 13.042986720162025
Si 8.397132986104447 13.06478065374195 12.02082218469362
Si 9.504102394231424 9.733670035509087 8.439676752385596
Si 5.455596881300632 6.232962237341548 12.343349111004773
Si 11.509448182908628 12.5918245746488 10.583873521312187
Si 5.995632640745255 11.349312056363251 8.680584311154623
Si 6.894826407104644 11.52942915335496 10.90000064027768
Si 12.598920115440936 7.899662245562691 8.982557100278207
Si 7.062859922441127 6.798725774907266 8.367459555566397
Si 6.44544885793894 8.16619574332704 12.789465473417792
Si 11.716286118762506 10.46923074195251 7.627488063663898
Si 11.512710707795625 10.006811619352604 10.052101461151008
Si 9.558236686200743 7.134382448761125 10.957854894489707
Si 8.325921810479551 11.956901380871136 8.52024190774856
Si 9.448974044678014 13.769663452292646 9.783410849153103
Si 9.430425994490387 11.167793232939006 13.376791242839971
Si 7.209261089609858 6.756303994964438 10.829763872642902
Si 9.414933187327971 11.363899977575418 10.627275543730674
Si 13.861530836982842 6.509718418006994 7.560985404665298
Si 8.01533688345589 9.188880795628936 11.08549983347971
Si 10.282416792275832 9.231780961516785 11.97925487923072
Si 9.41523192597594 7.357579023912005 8.573273619102457
Si 7.121237088861924 9.205624892313162 8.86468712657516
Si 11.31573296896631 6.599643596223029 7.385331982050983
Si 13.203190955903658 11.659450207398317 9.097525067621108
Si 12.499386986866037 6.538221094828632 5.371579166323364
