23
Energy = -106.68066641 eV
Si 12.731345561377665 10.1472460241734 8.001943691761054
Si 11.525510705628028 6.844995768726147 10.134802253366171
Si 11.080989657252037 8.391523735310756 8.29755227942468
Si 10.574957187981953 10.63684488014903 9.13906188532177
Si 11.264038875945236 12.431725935637418 7.598860678326247
Si 11.121140314551381 10.385576776555796 6.00319816349655
Si 10.402730440958035 8.748987483522365 10.790030386254719
Si 9.077425493255452 8.265717883551831 7.133199644547574
Si 9.068036645737267 6.601571936248731 10.063370865005806
Si 10.000642967191029 11.014989020789677 11.499261818166511
Si 12.993035716635903 11.673557581769996 6.082871864851419
Si 5.756911991502552 5.2699475697917055 10.678600815454228
Si 7.9378478981577185 8.578329926094243 11.14534116570244
Si 8.108959565095756 6.1745757784261395 7.910543328623079
Si 9.012421854232256 11.378566495291029 7.412987048074821
Si 8.837279580554704 9.93092257107607 5.492707255791731
Si 8.535542182851513 11.966662702756858 9.683216416048898
Si 7.46582042360567 10.974066569424282 11.620846773319464
Si 7.588066188076189 6.364794581754324 11.998205173470796
Si 7.1245013286530146 8.25748521995191 8.54179340551366
Si 6.1408898309378825 9.855776640108079 9.884560053495173
Si 5.69288587641183 6.3458203006452765 8.393695992406649
Si 5.662741925237114 7.551542709627803 10.684860881544177
