28
Energy = -131.47271113 eV
Si 12.943101881207381 8.602084167966419 10.222316075396831
Si 13.20064215221514 9.514502206662984 8.05702639033082
Si 12.960796243160782 10.274053810429578 11.903230044676947
Si 12.410521382998416 9.520866465851775 14.112868952393226
Si 10.971659932608876 9.63861753838391 8.823829660192644
Si 12.410013497130427 6.4662415497377586 11.076510486982539
Si 11.389153197173446 8.184981473268815 12.39566482207177
Si 11.580160277615256 7.827714994694521 7.23956093318125
Si 10.576070910262226 10.57519674298638 12.966262762532972
Si 9.811790623195213 11.568523702443274 9.545530672045594
Si 9.381857139055366 9.33971437565259 6.9536814252118635
Si 10.800364705756468 6.78173164223358 9.301421057186708
Si 11.567680496666275 12.098023257798276 11.170953300278043
Si 10.216190705577963 7.814697814566173 5.284399601232527
Si 11.352373969966855 14.349451493652506 11.938118668550704
Si 9.443327793969049 13.744534594914514 10.652059328477025
Si 8.464344402359288 6.127782799269979 9.298204890093974
Si 9.035657395470196 6.843774785764548 7.115086605004082
Si 9.006203528101674 8.814719264606532 12.49897675834837
Si 9.268158249617274 8.467653928398223 10.116740236966779
Si 9.800453337896887 12.884246712891217 13.070711177247087
Si 8.753186691435403 11.735310563356634 7.428786650214721
Si 7.552524863612682 8.397747428021713 8.3663274238876
Si 7.2359803637264095 13.272207042159067 9.999842054857245
Si 6.465989987763873 12.723570093692459 7.828984149574179
Si 7.450716529828432 12.766247460358663 12.364128605679582
Si 8.19216810324967 10.865347627321306 11.168281691988145
Si 7.1229779571457 10.790936255455623 9.05622482866512
