23
Energy = -106.19390037 eV
Si 5.3271058627179935 8.178936946838235 6.680794053779345
Si 10.201312020926952 8.213189745764579 7.418621574635239
Si 8.786318542304956 7.754535705315382 11.183299345686319
Si 6.810147261309877 6.911043328724249 5.114428169134679
Si 8.363914382765941 10.007611293010976 12.039249399148712
Si 7.312389708518649 10.939326165073844 8.328397335266029
Si 11.002297468120668 7.702601291292628 10.179819227073203
Si 8.583961008630643 9.889073721081372 6.566029376771569
Si 10.987630643243321 10.313575506963256 9.042617035215772
Si 8.735283399381087 9.123893607516706 9.187939714337562
Si 8.90692786022069 5.5374776248564 8.794782997769772
Si 9.473942867732763 12.03984868250725 7.350456021400037
Si 11.15967389368021 6.210616234819642 8.368913580544119
Si 12.519206091319404 9.444271504161666 10.71522163557314
Si 7.03064480165835 7.382513135350111 9.068181797135372
Si 11.078094797581922 10.328316466735215 6.563998736369768
Si 10.594382832888122 9.259040416093836 12.096221536237026
Si 5.534920439368366 9.193997120151373 8.856361499527585
Si 6.791385932478644 9.2784104499842 5.090756097740046
Si 7.487446901965678 5.708716438309885 10.727566873369936
Si 4.876937957137762 5.986237637586751 6.127347065627354
Si 9.035431432996328 11.369585133989894 9.983218419286047
Si 8.205738431614044 6.711130008229767 6.929162749538231
