26
Energy = -120.62099267 eV
Si 14.917638941660918 9.86504561543929 11.180577163296805
Si 14.185205369813177 7.692715993995616 10.31463337793125
Si 12.524301358474796 9.422346192588797 10.39721114379018
Si 14.675907929620136 7.704920724939193 12.768484225956048
Si 15.051217360151513 10.027884684276996 13.62421624524251
Si 13.108760568939703 10.955496973825555 12.594142295539662
Si 13.379817489367262 11.671234975666504 10.34602011345165
Si 10.856651509457018 12.04908937302389 10.157713871397021
Si 12.341419313747894 7.31067818019245 12.003363494606823
Si 12.890346857065978 8.78356488800862 14.125904036878708
Si 11.260782484757167 9.430799586885504 12.461935938445153
Si 9.816444419373802 10.730368228783584 8.432316087345125
Si 12.470792590698448 13.682087193314228 9.20552001301851
Si 11.411785210960241 12.541533181229084 7.466568128677858
Si 11.019325637103638 10.473750036638089 6.44926596633159
Si 9.302187987250313 10.745220061198168 12.039222332979039
Si 7.402546845395882 8.955584527403747 12.038575103710464
Si 10.29499997955025 14.454786593361161 10.031576818705819
Si 8.044976350442866 10.341596103644205 9.997644006089052
Si 9.175247019411094 12.312953772621327 6.506505366900792
Si 8.819686620421379 13.087659780701093 8.704831689060926
Si 9.547058663602321 13.1901622522853 12.046606508657838
Si 7.376575314994468 10.698704029090303 13.617456000835354
Si 6.022990183564327 9.102407710641259 10.113758127511549
Si 6.017092647968751 11.025357761487152 11.63512562633968
Si 7.578956375008936 12.66546844290736 10.713401706464419
