27
Energy = -125.24973204 eV
Si 13.260702265608678 13.949697211112204 13.695807627625538
Si 12.82602917008731 10.29476973934705 12.625782456204051
Si 14.668941906127115 15.59473931953395 12.630067575886766
Si 11.937004308949772 9.025140167410543 14.460371931406371
Si 11.026604948069254 14.532434567555375 12.882533380856119
Si 12.37307392921483 16.41983429893038 12.783386672395592
Si 12.683110625424584 7.1893553548277 12.990276767293368
Si 12.151978611263997 12.455270004755462 11.957959354176577
Si 13.518722544692102 8.588491567462114 11.16874834824366
Si 10.243615966280691 8.949025323132572 12.775567814388152
Si 13.015210998871266 14.664730825588842 11.23642570879483
Si 11.167469022609087 7.4073623619979365 11.17894485691396
Si 11.465722128359692 13.593941983238029 9.750475929796318
Si 8.983222902280364 10.617306400213133 11.163160627748262
Si 9.846452569142231 12.984058983641415 11.469094670171234
Si 11.292390733192143 9.946280568069348 10.722661404800116
Si 13.015712027441387 9.271513672181731 8.885002804846227
Si 7.915489232214569 8.627721562465647 12.051212512605053
Si 10.53227874273928 8.122640147788248 9.050672757548538
Si 6.379564629804832 10.617237909193534 11.060628356698672
Si 8.882630822552624 10.700727614610791 8.595743510667031
Si 8.25849023917225 8.442116197283847 9.735143528507885
Si 12.031692087495117 11.414925823523692 8.917946273874636
Si 7.7068797844181045 12.282015570481272 9.91136976728859
Si 11.739724100307297 8.393460093434076 7.069514556039264
Si 6.616142343550504 9.876716466531638 8.708847864157786
Si 10.71592524580637 10.677041312448894 7.090781078933005
