22
Energy = -102.33345327 eV
Si 11.318328705218057 14.839352312544513 11.32682486451648
Si 13.124637293325977 14.657415169237419 12.66560714344323
Si 11.673137365517691 13.739632624014009 8.936220787534138
Si 9.55487705254385 14.608375837314899 9.7956751042549
Si 13.63361945920874 14.303078049727528 10.187041476714793
Si 11.981618151361245 12.522207974760754 12.471967150037605
Si 8.795012272616797 10.401580555211172 11.746494922709418
Si 10.059463340335128 12.556094380406385 10.868738952497287
Si 10.239897604771832 11.389776085742568 13.613704509471523
Si 8.95545867156169 9.426012484155887 9.508838326542762
Si 13.009509825524862 12.036456252459875 10.45989274576917
Si 11.324494117620254 9.197471061131866 10.215381226205364
Si 8.686663204271785 8.197395126101688 12.663338481334847
Si 12.832939887880434 10.35372786723567 8.823232613629656
Si 10.965327911122236 9.406098236256485 12.571501616523802
Si 11.83943824509295 11.939685790474497 7.182438167987539
Si 10.56311475524749 7.345393152533542 13.7721204002453
Si 10.444142880083536 11.175909158833626 8.89166189499341
Si 10.066054989149844 6.099599765688789 11.665413536772785
Si 10.365898321888464 7.144706547761649 9.468721039825716
Si 8.212062310311524 7.500335516387908 8.347647405141128
Si 8.150392914621863 6.928889617059047 10.673972910182119
