24
Energy = -112.91591995 eV
Si 11.990534437738237 8.326927440265546 10.571697249074349
Si 13.174390764767415 7.7697488740902845 8.410041863655008
Si 9.679948594365985 7.324767329685305 11.18514718531947
Si 5.725701064505537 6.400628175241959 7.706136419926442
Si 8.388976951375287 9.314955099943168 5.797816308080624
Si 9.61613144480034 12.753874267927747 8.130757105338668
Si 4.589022227878814 8.542309991723076 8.03706224709267
Si 12.6562792302668 9.500042680781645 6.653819018382291
Si 6.7137526861427155 7.9610370724315285 11.577382075089345
Si 9.119618174696896 11.513271640679642 10.185910187739339
Si 13.393395609761974 10.146727909890114 8.947787082022884
Si 7.063239531325558 8.406841146876163 7.563165484091794
Si 9.939299829997536 9.21756782233585 9.50987019804227
Si 7.507896770824399 6.931543950201289 9.409860723539172
Si 8.261481812455886 10.99862741482852 7.407261083495773
Si 7.522509050910005 9.521133765644475 10.00421125611137
Si 10.855276990973271 7.061929908268515 8.643287168135393
Si 10.324967214864353 8.83355098986846 7.097394807002043
Si 9.407432277104519 5.480299428375425 9.709600884499375
Si 5.024008811754527 6.986809066290649 10.016209292608064
Si 5.9820155623123705 10.518230749242257 8.45415879034926
Si 11.192156582313459 10.934889213764139 8.05069518914947
Si 11.55854393711485 10.725712172766405 10.550813645884453
Si 4.8588215473687155 9.415948745256333 10.480165151857904
