25
Energy = -115.3901694 eV
Si 12.703114105971204 10.868441306348895 7.149795821969473
Si 10.915271742338803 9.431600947367004 6.199332228005644
Si 10.49627389764271 11.912273479747599 6.627888579812122
Si 6.747858660957338 11.076524070264815 7.653600065643685
Si 9.063746827420408 10.31358057447394 7.661130946752399
Si 9.246290528810691 7.810334610817229 6.9509435270858795
Si 10.133858803860406 9.453876640149113 9.797617788811536
Si 12.464297835148779 9.167870161159287 8.829633752462758
Si 6.83557864726366 11.405945329787857 10.077313137746907
Si 11.171660463821423 11.516965548028635 8.981639530333885
Si 7.271915331081923 8.77571936134855 8.205828351118612
Si 13.542214266219741 9.612619299157506 10.945679027927886
Si 10.913249676010388 7.34488667368019 8.741261107717445
Si 9.94212940948932 7.300284370750099 11.125938599272937
Si 7.875269035459859 9.23191950385754 10.533556787148518
Si 10.84043927236807 13.070493920668358 10.69554359418914
Si 8.981889593564084 11.604764701741846 11.007084646450567
Si 8.05113063777561 8.089507579320836 12.59510207022392
Si 12.157291556906008 11.585500323076223 12.069326498838732
Si 14.328866493119385 11.77529954604618 11.25852831879698
Si 10.412741805420763 7.930040736456798 13.525163422179151
Si 11.422025553198292 9.223299215844596 11.798547286970992
Si 6.877909786856488 12.207009554375977 12.328003366149884
Si 8.499157056798245 10.502861466292977 13.041880006201952
Si 10.758233351174038 10.440795417915245 13.85207587686611
