29
Energy = -134.85243757 eV
Si 18.06253183133531 10.776449111290736 10.904076336393391
Si 17.061321174423988 11.481695601191486 13.02895621006608
Si 15.877697459666221 14.360638524979347 10.480841033008069
Si 17.822510368440213 13.151414048474702 10.96785748010061
Si 15.707141993028026 10.689469217564625 10.829646387750504
Si 16.82524574266677 13.967124495325894 12.915629558129583
Si 13.326056193957623 10.790820459466813 9.283549356723038
Si 14.205740450108467 12.674422912658041 10.56317137088828
Si 12.295704996347288 13.854232456647877 11.420676107614018
Si 12.841036309570868 10.427670986929398 11.691130237193919
Si 14.393700649235004 13.955793567342058 13.321165780921016
Si 13.281897973510002 15.897792781103709 12.24842199021492
Si 14.618242007110663 11.63902872986589 12.849138047913545
Si 10.418400100722726 13.500207346800948 9.908636629255943
Si 14.167904851469553 8.855532421518255 10.499545464643328
Si 15.72736808867966 16.059571577656502 12.121440592986794
Si 11.737264497705125 13.959446035648506 13.6958549638632
Si 11.041263873308479 11.14554929840065 9.923636499143882
Si 13.368959953949464 15.375114123950317 14.874086672575842
Si 10.503958122503592 10.381220793058837 12.233102072640866
Si 9.581090866775758 12.533791109611828 11.869686476319478
Si 11.48774342372257 16.38028282597329 13.786919395014738
Si 7.653446145183113 12.310983080257477 13.160203437550397
Si 10.154105826190326 12.24840645123026 14.244031540104903
Si 10.5875775142743 9.824449614899692 14.547568301307383
Si 8.056425508832557 13.092768115796451 15.415400377975708
Si 6.0781331153278035 11.322789984154054 14.55870903641907
Si 8.327886855189412 10.536281957922238 14.885381720221622
Si 7.119371752706905 11.382740762309892 16.756658068004665
