29
Energy = -135.48390292 eV
Si 10.31259565479907 8.128456048469467 12.500791694741876
Si 8.484258359899977 9.317874666501474 6.536151640207935
Si 9.922162387249253 5.836898170033341 7.338579916853492
Si 10.809324750450179 7.849983806979085 6.34081119794285
Si 8.814833227623584 9.078290610333282 9.111983439145886
Si 9.853731119086005 11.272546143419076 9.827422490529813
Si 7.905952131691243 12.307278009829554 10.991102875730268
Si 8.719350251647839 10.486480248807352 12.32312531007934
Si 11.206811985117158 10.239475262800136 11.50862207743044
Si 12.501436242297745 8.041125229417649 11.580346302263413
Si 7.124827990853403 7.7045249970799174 7.765256938082678
Si 10.452962347146887 10.171344115133596 13.86389470777971
Si 10.979511817679871 9.683728544490572 7.8941230984357045
Si 13.117848151223548 6.711405172819506 9.685620363415838
Si 7.919813566875997 8.482530877722752 11.321832912420485
Si 8.60973397460719 11.644094917402722 6.9293366728786
Si 10.841743563310775 12.073408947468351 7.777433093334395
Si 6.24441820585088 10.259058432029226 11.179403038920231
Si 5.968089469516226 9.323564656085848 6.236279120413283
Si 11.003577809689743 7.388009095663184 8.944017078212335
Si 13.581764391261176 10.17109916084406 11.394992648329278
Si 8.69923807462272 6.382566451356245 12.073636173238398
Si 8.467678971041392 7.024154597775351 5.785915505699501
Si 12.952770280136207 9.083721262836386 9.314119068538895
Si 8.85606999674478 6.652873999114928 9.644979184042574
Si 5.548693922930398 11.47048030842973 7.399361385506832
Si 6.842333880456065 11.387863210967135 5.2706256582801565
Si 7.39441492249355 11.117231288801772 9.00468263034911
Si 5.65292917103407 9.403549854139838 8.793596162736087
