29
Energy = -134.93179463 eV
Si 13.411906991341265 9.411696184689786 7.761129158021627
Si 10.845316133795265 8.530932666586432 12.58629509878624
Si 10.945885693868274 9.427827305356615 7.133449385549838
Si 8.192783298724791 7.903812833574352 11.014493068381928
Si 8.53680933974377 13.071798915856698 11.746649934708596
Si 9.997365956568279 6.491787632846422 11.667897994611806
Si 9.852428457866912 9.74499911506769 10.690937452593978
Si 10.219236986066527 11.28021122091368 8.81335669993161
Si 10.326107071306375 11.716212675463586 6.2048022195722705
Si 6.19603618106778 7.555326754254717 12.450895759402412
Si 11.648307607974344 6.398678081542956 9.884393444436228
Si 9.456430028671086 9.54286398996794 14.339205030112597
Si 8.87482639472865 9.751843820513706 5.843562878704283
Si 12.211547048720217 8.673973624359258 10.58425439492813
Si 9.006647757223453 13.135415364568424 7.810965226306468
Si 7.452072488453223 9.520819486603864 12.924558467944307
Si 12.539686507526918 10.52944425801696 5.725985555358644
Si 12.501985087185256 11.775947890797163 7.863256817446472
Si 7.638472684177146 11.024930698712303 11.113856952169725
Si 6.317905455154899 10.135801010932525 9.33672541767712
Si 8.008255116614977 8.513315379895387 8.074102827559754
Si 10.246433420558624 8.05102028477387 8.933150176364554
Si 11.528011213421838 11.802370736888498 10.81813282598489
Si 13.451120167366957 10.594495088943253 9.868855139088764
Si 10.140260948212491 13.577956108244589 9.99234078907161
Si 7.937916302364362 10.936318022106244 7.7853407372371715
Si 8.464697374120165 7.159824726238558 13.431136373420367
Si 9.926575023461819 11.32709869918855 12.634053658611398
Si 6.21461656102361 7.730853568656447 9.632016789187404
