28
Energy = -130.27368163 eV
Si 8.748721030731051 8.143415463625253 8.052221436803176
Si 6.997536802573504 9.146770273749208 6.5223115556854845
Si 11.527737517406612 8.94213295726158 6.771894071863062
Si 9.799173844878307 7.030607475668982 5.9363591797245725
Si 7.825816837909685 8.1726255761761 12.72605866709704
Si 10.979225368597568 7.896945437547337 9.111986348312168
Si 10.018730979690647 10.196316745512814 9.688008705653184
Si 10.177473014745575 13.753689443618413 8.398955364023994
Si 6.816763640497435 11.020950685155455 8.021593981842456
Si 7.970340173296789 9.383017627576951 10.6480881634358
Si 8.921050191596086 9.252265747523957 14.888041632395623
Si 5.906555729489309 10.850609415516118 10.202813102362898
Si 9.62749296900125 10.032845245945992 12.781131424447738
Si 9.362640183763025 9.717686781917187 6.263951291069725
Si 6.439297568739621 8.567860217288322 8.888766846098
Si 12.570109584060596 10.132495962558552 9.170692766705388
Si 13.366329436374011 9.856878132874963 11.411368595205017
Si 9.667141443884493 5.918920523808414 8.066998474537078
Si 10.177526233862052 7.699876768458432 13.367388689911234
Si 13.206999287782809 10.590882571782208 6.868356768027519
Si 9.13411786274969 11.619520009821196 7.965499466150458
Si 11.359948493498818 11.165861204654504 11.618390991283809
Si 9.820404260296414 12.595131024640848 10.466268140020084
Si 7.401632268773572 10.61607243937854 13.598721781381862
Si 7.7896153748269725 11.716583572884923 11.354488289802424
Si 11.623037002694101 11.921943758813997 8.020911265392618
Si 11.376779964649584 8.536759498346559 11.384158610850326
Si 11.911921422668911 6.630210134274726 7.231177072518763
