20
Energy = -93.82749025 eV
Si 10.974143191072853 11.14439159900889 11.551560766062748
Si 10.191384634450433 11.12121564318179 13.966141955881156
Si 8.771311236128962 13.158886586733027 13.982192410019211
Si 10.278757172821773 13.185474591861052 10.36893414648142
Si 10.96744453985397 13.145100077743757 12.810438169557184
Si 9.28834679183042 9.474261450792806 12.1764443281685
Si 7.820436236999925 11.237794135471074 12.901889740398794
Si 8.825476426453896 11.180373201165954 10.291343957577606
Si 7.860128014059201 13.113216597171851 11.340647516961107
Si 9.338133749191785 14.847871058095826 12.107293510148516
Si 14.119818994328618 11.123196365884947 13.988260190812147
Si 15.041665460923955 9.47818507096429 12.188908646075598
Si 14.063600978703628 13.192476283615202 10.391240104277522
Si 15.519586985676778 11.192741439035048 10.322774333056325
Si 15.540203875273486 13.163413821859406 14.016909479915451
Si 16.496452474466686 11.239983062303901 12.945794102323095
Si 13.352813973169429 13.14794021751172 12.829212865640603
Si 13.360194711209761 11.149768593045371 11.567061192105944
Si 14.984890556693228 14.853567924927852 12.134538371340359
Si 16.474800978887135 13.11973324401878 11.388005213196527
