23
Energy = -106.8436617 eV
Si 10.196039073071788 12.286445389844667 13.59218796619055
Si 12.564681082475689 11.718645520641944 13.776045731153667
Si 13.999574650960962 13.295152305397359 12.747917657123217
Si 9.436271379734771 14.50631230516553 12.32713333498796
Si 12.35766056954939 12.823745001235652 9.770652407196055
Si 13.438068666239353 10.060451807962188 9.111656319991488
Si 13.857469637164868 11.366587319737912 11.226492164974967
Si 10.50949222174858 11.46583255933375 11.312121602820598
Si 8.59844878949382 10.53914800430837 12.717375601782843
Si 11.69810701889693 13.576128951361168 11.952543999713289
Si 13.387365446702036 9.697186453488033 12.9037727855396
Si 9.080830822356079 10.272206427462587 8.105794880833583
Si 10.154317647559784 12.164089071471022 8.986213735060591
Si 13.371443579615612 7.738335754728824 9.991191000701916
Si 11.186327682393753 9.146194287478837 8.65302018005083
Si 11.800419243422404 9.560189641223655 11.001829895036103
Si 11.871830893678007 6.816564687129615 8.411962326551011
Si 12.569502133847116 7.481362599118855 12.220423672733522
Si 7.707582262382695 12.720906760216838 12.205558475344484
Si 8.742289354661494 13.701017640928708 10.11540816529587
Si 10.771305095145605 7.39523992583846 10.473562501062027
Si 8.178122263511701 10.996210328873412 10.286850550196396
Si 6.545016973628502 12.760139060557075 10.137039808287845
