26
Energy = -123.74390356 eV
Si 10.717931735995112 6.553751831843059 12.442316038791764
Si 11.63115911657838 12.309474585229434 10.300898866005186
Si 12.06155487811288 10.186491043375677 11.30520748631483
Si 13.7342641016394 15.32188776300381 13.94961126148746
Si 13.149518445401478 6.81648952600877 12.480691832283531
Si 11.607164085791833 15.44996708507169 12.711723443234261
Si 14.32292002403793 17.56382656032314 14.476803820051167
Si 15.510363556285869 12.087832668430204 12.629136350402353
Si 10.950524143761298 17.73991604239298 12.653064047090993
Si 11.850815985374226 16.53281680208037 14.884610819832602
Si 10.204465118326981 9.063435015039126 12.478396865777533
Si 12.012386143847671 10.132287108105198 13.778977109669254
Si 13.389687963568107 18.635372425134484 12.235715619037446
Si 13.71990648698277 15.277697947099421 11.534287041121498
Si 11.564247980890555 12.241739119825 14.819175642521559
Si 13.970328953844044 8.321463699767232 14.161801849040737
Si 14.179836485902463 10.132687652205131 12.587643054758068
Si 13.739116224564174 12.912091533305633 11.255136334579051
Si 15.156717525675603 17.044714079528067 12.271657882704801
Si 11.680477651506864 7.932231037802396 10.613291679505014
Si 12.275871295929011 18.974912586216366 14.404786696888467
Si 11.407748059391754 13.023401727336456 12.570150203974267
Si 11.615436650323021 7.847642500988194 14.3499165404502
Si 13.683035226433395 12.887763124862158 13.923645381108889
Si 12.315981452779464 17.079254361887216 10.752033914080458
Si 14.026647388842424 8.408958854924954 10.907426901076228
