27
Energy = -125.67779367 eV
Si 6.51468404798615 6.909802170859066 11.63369561040084
Si 10.215510682131935 8.539631507820435 11.144820738338568
Si 5.3836942851915035 9.245788464991492 7.089831166133441
Si 12.884943849060909 11.209605224586946 7.412801509861468
Si 10.451891485447147 11.215485779451953 7.700258905823321
Si 6.331335327746468 9.432444874729642 11.590136095705246
Si 12.596587414441585 5.809660551041288 9.365319787956775
Si 9.491550036163067 6.057819475214073 8.154360105719931
Si 9.947138047414107 10.138506045232816 5.617220546550623
Si 12.226744301785237 8.02385060790063 10.161661040801128
Si 6.276885532637651 7.76307717831407 5.523919776711605
Si 8.796950743330855 6.691653274738943 10.777916062331899
Si 10.320833774809271 4.905005269440001 10.031978689464244
Si 4.667771420501188 11.444223118799052 7.718796106917517
Si 6.054436471636058 7.627892786241767 9.450798668071148
Si 8.039867014063173 10.291370236623234 10.125281380546566
Si 7.0895657815017135 11.076881732538613 7.794109813254681
Si 5.360620463217124 9.971421319729675 9.45970609832545
Si 7.235264429538919 6.829131373906327 7.525418178918005
Si 8.758071843554207 12.342309380376513 9.015263214997109
Si 7.938121875810849 9.17487779117397 6.537197417805118
Si 11.636638381276544 6.937985598882438 7.45156044577594
Si 8.513489584240432 8.330140147073433 8.953010202895186
Si 11.927446618987231 9.027361095867308 6.390569063190166
Si 10.651350988880697 8.916181796351468 8.483759998484249
Si 10.271465788916307 10.955532715538359 11.244813727572113
Si 12.105301366584502 10.454492599185597 9.588094838152921
