38
Energy = -175.78779717 eV
Si -2.4588398164550966 14.37663693840691 15.414975688820817
Si 18.756962951279558 10.361809722027525 15.856102827130433
Si 16.86640047040452 11.966543303691074 13.60777503018266
Si 12.697449739511212 16.010581521424754 16.820114637686597
Si 16.150441456040557 17.111349131181026 19.203444766288218
Si 16.158843153529396 15.826777280501506 11.276156784842744
Si 14.014875545294823 13.172698483547027 17.55007285072939
Si 15.580754412816747 13.589448636457945 12.416026652111427
Si 19.113530333118472 16.045800418732018 14.198286090159488
Si 17.05122447813112 17.01130696771293 13.33095850730367
Si 10.003896847678599 17.522690175689885 14.521941226610465
Si 15.382178629055485 15.408116665104632 14.00039362544476
Si 15.663715190192448 14.847098165349806 18.48690407665865
Si 17.668168246869673 14.636035200203942 12.83776156776032
Si 18.990449212096937 12.454782988302892 14.59550467339067
Si 12.85153644073552 18.340114806038677 16.755018402165852
Si 13.994319057546235 16.57503629611524 12.248889629433117
Si 16.18640217001191 12.500978027559958 18.34878926840605
Si 14.811730247218765 18.84252394979428 17.892929724089765
Si 17.12768544154347 19.058586150335664 18.015352981096765
Si 13.094427851316386 15.007652552142204 18.92357255735933
Si 21.38712960730619 15.647162542095614 13.640100227887553
Si 12.78917234431247 19.265884768738594 19.109514538633277
Si 12.785193451546847 18.716480817506145 12.251346902661846
Si 18.199232833313744 18.043467931467397 19.735992983748215
Si 18.44639973555256 10.204282017510891 13.402657925601316
Si 11.072712715084617 15.45211669786843 15.175166690891514
Si 12.50154807587792 17.218642187215792 14.190951236954762
Si 10.840620424909895 17.23504716666995 12.27651121386062
Si 13.615438644778163 14.261607610588342 15.427582348010175
Si 11.739581293237379 13.371491009514486 14.130346861615983
Si 16.064701347142666 14.276489573923767 16.286461553977265
Si 11.609653313359903 19.333363456168883 14.895402837177896
Si 12.067634676682855 15.234835654756061 12.661976658783738
Si 16.503296830997222 9.905001721538202 14.960220984621518
Si 16.990174339405545 12.067498677962034 16.062507662981815
Si 19.996616209347195 13.976334899675239 12.816076184919
Si 13.809108049107047 17.236926885028424 19.601341027735486
