32
Energy = -149.26370375 eV
Si 13.154317095629924 18.595665092625048 13.464442249752343
Si 17.02975201217104 17.610026345353056 12.995498650396279
Si 13.954750274663459 15.999218083863802 10.20374874946852
Si 15.364246955477759 18.44339435918534 14.44757643652351
Si 14.757981132363483 17.047219762003486 12.3572625251681
Si 12.95940451488594 18.160892662888443 10.97114666948181
Si 16.43681408589948 16.023030567090714 14.659107698664812
Si 15.286722783721034 14.298178630290327 11.499357297547958
Si 12.933750002271672 16.942985969765743 15.192291933870337
Si 15.504440417880184 13.940165562921955 13.949139827682954
Si 11.886480110541834 16.147702201339 11.75604307079912
Si 16.679644489331967 12.691614379237526 10.469184690423036
Si 15.21627875244653 17.085157081371914 16.351483713003987
Si 13.479823071940896 15.288169640149892 13.353943710212464
Si 12.82849977515477 13.822582014578375 11.011047442680548
Si 10.470668277438829 14.31122223007795 11.019170420517208
Si 16.09784646832723 11.929497581439309 12.751662228506143
Si 11.38312536308166 13.524659847482926 13.069724628624407
Si 13.158711274954923 16.955313625706776 17.551690647577093
Si 14.410569620355817 12.037592077893585 10.615088410368692
Si 13.956824366121666 10.84200259105273 12.711648481198138
Si 11.873068195948537 14.757585218448515 15.142298638528937
Si 13.984502683772554 13.529234017217352 15.725776968296175
Si 12.747857997778159 14.510809268397033 17.413874220213795
Si 11.729490686133715 11.182610772378919 13.317981288398617
Si 13.30476226130827 11.341992562092456 15.274412545948753
Si 11.340014144708869 9.836245087564375 15.287620507565645
Si 13.703566672851311 9.053542846624246 14.326100384816309
Si 15.437372115864898 10.13637188406686 15.845091746964032
Si 12.389775881840075 7.608088489990234 15.821942347513255
Si 14.8689994624027 7.814865890872776 15.992670692138747
Si 13.342455373808225 9.52154607507126 17.136359130990538
