38
Energy = -177.49298075 eV
Si 18.8826462346188 11.370725126039378 18.207059224912566
Si 15.973895636706612 11.056983290418081 13.429427856552046
Si 18.027075213831314 17.734134266463027 16.448587867765653
Si 13.976233250444587 9.837283232328133 14.430731850031446
Si 14.145693494589112 20.618929598283504 17.671019177733154
Si 16.4093863785581 14.655041396329969 14.765772293488522
Si 13.334868573843352 17.148784747517844 17.67488235300794
Si 13.041693244187176 12.86594146546642 12.709145773996541
Si 16.572809621096606 16.997417132497034 14.705618482902935
Si 15.68501582835027 16.944672080113214 17.10449125922189
Si 14.601405188461525 19.932790597762462 15.390263960610714
Si 18.76193717736132 10.915493815631429 15.741574610074213
Si 17.486318569658902 12.594970953929971 14.44193362922998
Si 12.683417895635282 15.518523515747496 15.969835015770965
Si 12.318209303631264 12.012278405050266 17.338121410934757
Si 13.943353800039374 17.389933476090366 15.254953507218978
Si 15.62198999790565 20.34286928064054 13.30956950693664
Si 14.912659043106482 14.463328820965177 12.925776429134423
Si 13.948528352176027 13.563051228205545 16.343523056787845
Si 18.410038616769498 20.123043051188525 16.95325240711805
Si 14.047329402443983 16.351009901491054 11.684324237030001
Si 17.156556034759642 19.688515432789494 15.046472743649687
Si 16.192252259843755 19.400044449082777 17.4011506793903
Si 15.361597209155802 11.655124422230692 15.743069743521476
Si 10.778881994733874 14.89326158013026 14.714083676136866
Si 15.988094639973502 14.51902206111952 17.11084279054107
Si 17.193468618916015 12.421373228390804 17.001738270796313
Si 15.069800231233874 12.411332863016517 11.615120290231415
Si 11.834776768520323 10.474064061061263 15.372090964593491
Si 16.77976540068393 9.6284432441101 15.19346374737692
Si 20.665415032534554 10.591859104983955 16.975311743161164
Si 15.011698971393564 17.961192908051704 13.224214558217517
Si 12.500200983808208 19.163702672443137 18.566346850897745
Si 12.492927431247507 15.137558703597458 13.012155693792833
Si 13.794200834534752 10.1326759841587 16.87612838895209
Si 12.047845205075069 12.803476403567569 14.884678514143046
Si 14.913257295887654 8.156703251779888 15.88829972323385
Si 12.420454794842325 19.12315867906828 16.17947154598507
