35
Energy = -165.31542632 eV
Si 11.33800913116536 10.895255956683098 6.631611415016546
Si 13.551391412971212 14.10865670104026 7.141211648510358
Si 11.440575647519491 13.046916680034757 7.698760465867303
Si 13.595874102515175 11.707741739848025 7.075040869218578
Si 11.22238689075115 10.142311471066892 8.885669703498541
Si 14.961900438290682 10.707916623044047 8.69953747996265
Si 10.051269530154356 13.858500970364828 9.435711316692661
Si 8.274867900126829 12.686215230272722 10.624778359203157
Si 14.002079799921136 12.98597086607183 9.225292085137335
Si 12.000649058491542 7.770711448299257 10.190020414781888
Si 13.263151366115189 9.791695232857835 10.047558310269443
Si 9.775506087889331 10.834767999783214 10.631839702224404
Si 11.872829517865735 12.220295427308397 10.10409774882223
Si 11.133325831095227 14.971757132516482 11.23065908491712
Si 9.65332490331364 8.443668184558762 10.83649983367314
Si 15.921195972840875 12.17317422807422 10.467040761610347
Si 13.283228824176664 15.187263377741631 12.847335844915877
Si 14.081024882077818 11.252216697550494 11.769937950188897
Si 11.749051738259066 17.045937664592387 12.119382747708435
Si 12.406426033223942 13.020876207469927 12.287669520487285
Si 12.01153156461905 7.8473242301619415 12.628730002159163
Si 9.542078129506967 13.626515063657926 12.453521643230888
Si 10.90192893513231 10.111376619210832 12.645556957002077
Si 13.212099331169927 9.794771472215924 13.424567720077704
Si 9.404035083136462 16.00018744651269 12.884336586704736
Si 11.477071945718766 16.21282002914895 14.401695168010983
Si 12.400901348016651 13.997901491949984 14.906444520020923
Si 10.834774002041785 12.284381056373375 14.027712308787699
Si 9.567620339716772 8.22383650348239 13.39730501337173
Si 11.106726500643997 6.641866620207032 14.498774640911995
Si 9.800970162349076 14.465807865314554 14.891716801215086
Si 13.10297522377151 8.09235881460216 15.134084031674861
Si 9.599759257305944 10.300805466734182 14.769647360452673
Si 12.229681129830011 10.50405454117896 15.533526109817661
Si 10.801021255019824 8.615386216813834 16.023969150599758
