39
Energy = -184.3857776 eV
Si 14.130496372622838 8.063873362374013 13.1738544342801
Si 12.442828832819794 7.225479632945294 11.794760665905837
Si 12.854722254528378 9.155305420300337 14.849968365110604
Si 10.481324696665586 9.038856226070354 15.127697530994801
Si 12.504542925703305 6.548644345116025 9.546964598611844
Si 14.108366087145406 11.048518363209618 15.40140661947254
Si 15.14195450804621 9.899797513876868 12.076155019998666
Si 15.54297550964194 11.72031520087644 13.594326302372716
Si 10.600413067699726 8.123989524978532 12.896334191139921
Si 12.480698466159993 9.73438545258975 12.260184761716593
Si 15.671696668951647 9.943715570826877 9.769031588732812
Si 13.914733069282386 8.47221904300896 9.030589389782456
Si 11.300571947603572 11.029568115204185 13.953446173695552
Si 12.777756919392706 14.749623995040258 14.683002766230038
Si 10.703520565282915 8.117870213208999 9.054440803354828
Si 9.368889691966988 8.687384681035308 10.994940853907822
Si 13.407821885038155 10.524102460875547 10.224456811780765
Si 13.332816718315364 12.528964135008337 13.410744261774752
Si 12.266731096779251 12.561290256500893 15.616507337594223
Si 8.785164406059893 14.216133446403976 8.960074262267751
Si 8.09459855058566 11.97771325802621 8.747489771365512
Si 8.29347088525244 14.24065791714551 11.281053623817893
Si 7.307704810685739 12.397628540116155 12.56145799349412
Si 8.76116684379663 10.877106510951979 6.793801003017513
Si 9.940279818437697 15.689294929193482 12.097620687706916
Si 11.18372363030529 14.526762487163957 8.9479961552633
Si 11.902622304901346 16.03156105438786 10.735546273566568
Si 6.395849564879973 11.33252471321424 10.344159243948523
Si 10.110922205533276 12.626671410592081 10.28024551209448
Si 12.505779663621425 13.477279540979797 7.218885759786184
Si 11.081032599558293 11.522168496350261 7.048953825354642
Si 8.638479502283369 10.885501840563647 11.089691660077554
Si 10.399094066363336 14.640802849907688 14.177758719677808
Si 8.694356865718442 9.108817074472732 8.323999807932669
Si 7.132507170614183 8.903009202326258 10.128530049293381
Si 12.100936107534285 12.138939433369677 9.146909194271881
Si 12.036476271736833 14.23742743120804 12.352236119188612
Si 9.864920757331689 12.765940063491316 12.707874292135
Si 12.154928521957425 9.647032117892408 8.01377940008717
