32
Energy = -149.83948323 eV
Si 11.32291814902223 11.059068110059162 16.374434999050603
Si 13.229440820131074 9.98933255525357 14.85284164154078
Si 10.889383348760083 9.142980178002702 14.920269384341092
Si 8.87190270981605 8.201175396856419 10.56484522630334
Si 12.103616277307102 7.166028076531979 8.52389789884432
Si 11.105513532025979 9.00335116695591 9.89484528830888
Si 15.507759700275642 10.727818478835394 10.320276683621715
Si 7.185131067757349 9.766793084472308 11.59699706877139
Si 12.604362145445434 12.283485860546998 14.472236305438718
Si 9.873600424653416 9.753403023514656 12.753368639038491
Si 7.6146751966881725 7.33605430223097 8.77740118568471
Si 12.482494611812031 9.44281760957152 7.805003573364352
Si 10.494969249446347 13.193993975767892 15.338246339826036
Si 13.817976274154129 11.16038176812397 8.764426147020934
Si 9.2457596094061 11.063108356419358 14.915399353095237
Si 12.136565305130077 10.496701537257339 12.773803696398675
Si 9.83152866783486 7.75924362431585 8.02418339621892
Si 10.25214227507666 9.998024038419098 7.534070251071884
Si 13.441600252484443 11.692696741418985 11.201901202305372
Si 15.576176283507598 12.957717265872704 11.315198246234406
Si 7.405720500190046 9.758646196168465 9.269509523512376
Si 10.25256790195198 11.381610998365689 9.632586841095284
Si 12.217684715682765 12.829233162891999 9.362387034682065
Si 8.405572976950634 11.50842399288347 7.902205077749766
Si 8.712139961685063 11.5762874392422 11.57064080537526
Si 10.533694814449895 12.378932756691611 13.046816008829548
Si 11.395281468932863 14.202711592612742 11.61053921064934
Si 8.436756998174582 13.121438270733622 9.70037586192478
Si 14.003938659345968 13.583091728095797 13.00432935372373
Si 10.402119443508264 14.43277258057031 9.49485645271754
Si 13.12442310359884 15.68282080536885 12.24282320990752
Si 13.81420712581681 14.318830262305756 10.420738775979157
