33
Energy = -156.81426335 eV
Si 10.412721311744933 11.585819398065388 6.193052759583697
Si 11.760843172531363 9.907627115318352 7.084046468524514
Si 11.677185839717042 12.695641152850111 7.914251588609074
Si 10.804788819850547 8.081209485978347 8.120881794332568
Si 9.033020761886979 10.844874132709004 8.02639326791516
Si 8.433327115202566 8.558482427939529 8.276046190374066
Si 14.057991583202186 12.927170146463354 8.245777899140228
Si 13.70773223292123 10.529727161684422 8.187736833340683
Si 10.147732532860838 14.138059916811802 9.067343673451914
Si 12.31716851832761 7.245077763426408 9.834978984652087
Si 14.28842056258539 8.737704766091861 9.69959993158907
Si 8.132938085102891 12.750743052760507 9.155789005878889
Si 11.828163784641875 9.715946980296739 9.688477485031251
Si 8.632666337934644 8.666382302630637 10.591598419984
Si 10.261055149355062 11.75928820634703 9.937913996244149
Si 13.707080911563926 12.745755019260335 10.673980998192295
Si 8.133147484598092 12.058402682602628 11.422851177576275
Si 11.786653105472556 11.314960953558781 12.810176467124702
Si 11.501727355762002 13.504908633661662 10.979231007506502
Si 13.616543487656555 10.445111000541763 11.210654173898835
Si 10.699739512384225 8.04378521987414 11.492057006411116
Si 7.192822247591631 9.841058295100337 12.08227847463255
Si 9.732769674645777 10.257937814918417 12.240647152453736
Si 8.492770044302727 13.617227537475996 13.1678261287006
Si 10.915093764075424 13.752049688374138 13.196916905382428
Si 9.143049865622812 11.743911354682133 14.365398154949727
Si 13.77946760416139 12.982672981533048 13.150230495291638
Si 8.395154520011406 9.488370428020788 14.19549769871301
Si 14.087405700973 10.664762134236534 13.540698859654343
Si 12.225548962828363 9.9460273133301 14.840351179829899
Si 10.595472304994056 8.48264320885329 13.831086219690928
Si 11.32076270221843 12.085348889326571 15.212770330973878
Si 12.50437487121081 14.20665276321498 14.888799198304847
