33
Energy = -155.65400382 eV
Si 13.49291700786916 12.156673888391717 8.282836894168776
Si 12.36145756766091 10.081065575918503 8.442327678245745
Si 10.357210812685034 9.96036457747937 7.212432198869455
Si 8.044231015132782 7.648367790773006 10.64794543670697
Si 12.901297343578257 13.767839241773368 14.114706007834334
Si 11.839782958016636 13.945208274825125 7.977275449859462
Si 12.71661233073885 11.576183330157932 10.51663663409981
Si 9.088697336883982 9.858329521095676 13.865838789048306
Si 11.986818895073514 10.413657240923008 12.429002961842366
Si 10.537296635797555 11.97283692151281 8.565151424270894
Si 9.099038191605073 7.747612860634124 12.782269124815631
Si 8.255255568458894 12.29653502789899 9.286684413198909
Si 13.415287551129046 16.000493853656934 13.406858008909687
Si 13.699616546177202 9.306985161389333 10.2054307872882
Si 15.04403715562422 11.299307618130857 9.901645141059452
Si 9.931103021502052 8.847826040499848 9.249721656251324
Si 9.78513044358813 6.469463564947633 9.419892918807959
Si 10.107659498095643 12.53883983159433 11.198269783104545
Si 7.777892047919718 9.992880721498588 10.17347562208709
Si 15.662914483978419 12.645755110511871 11.804755295592921
Si 9.231100408710798 14.496347769650168 13.238883414349864
Si 11.407488001483134 15.170869619450432 12.362059415856635
Si 7.832562310258939 13.463906742801582 11.454321492656419
Si 10.927962229748694 7.521437093005315 11.248843543561835
Si 10.812845646479921 12.785202307402187 13.615228805349998
Si 13.91920757335237 14.349549710559257 11.75023105684995
Si 13.140129959538061 8.137004145049733 12.192637009137155
Si 11.997881932191119 13.941385019381812 10.385104726340213
Si 14.018142296668156 11.854127699003064 13.222314316436377
Si 8.02334115846548 11.197901335327655 12.225052631451948
Si 9.94283089035059 9.82024876872814 11.501493052015402
Si 11.05740705499912 10.749913795907128 14.790632234555881
Si 13.346843889941182 9.747879603824439 14.292041839078987
