38
Energy = -177.7820597 eV
Si 12.050578093060828 15.249396496782918 11.402783212946318
Si 10.752311632060758 11.806883345757193 11.27126675083339
Si 9.756495665095562 13.905248384173564 10.89068032379301
Si 12.177751476760758 13.21374228576725 9.386380660111532
Si 8.769036517027036 11.58463427484807 9.723628948144171
Si 8.361721483899233 13.941912017913225 12.973525513079824
Si 8.634181329534895 14.061148378399801 8.558481358270175
Si 9.233573057649528 11.648141711815436 13.078822464767176
Si 10.829608226980879 15.258988891559804 9.21825373476621
Si 9.618536969151519 12.050118250791034 7.524633445788545
Si 8.204551227342279 10.091671244819244 7.299550942389713
Si 6.833342311890602 9.775414534325419 9.511605553612657
Si 7.192779770271117 11.243443258710382 11.496022928998343
Si 7.256154031423958 13.587081132105952 10.695677092762192
Si 9.498232428691326 9.560800439180838 14.167782081736618
Si 11.209939565288547 12.581970437310423 14.6119740546773
Si 12.471942726989052 12.893073547372493 12.421227628250804
Si 10.765235454614778 14.575449646150451 13.305402862865623
Si 14.033980972785024 13.918272820024818 10.818058551882498
Si 14.361064666797356 10.310407640610658 10.057825652241005
Si 12.32027137941911 9.905709187505463 8.47502611647231
Si 12.055639472950306 11.992976952017132 7.386087501823638
Si 9.081901710079599 8.660777351948399 9.132620952988551
Si 7.519863464283463 7.635578887077696 10.735790837138627
Si 10.343904871779793 8.971880462010636 6.941875334343668
Si 10.788608982453566 6.9784012531704365 8.24844571837386
Si 10.801532805007728 9.746967553563675 10.282582638187426
Si 12.784807920041303 9.969216624472972 11.830220440876944
Si 13.19212295316911 7.611938881407642 8.580323068159688
Si 11.935307467916818 9.503732648530004 14.02921513545097
Si 11.797348771972768 7.6486025151474735 10.663169065228113
Si 12.919663107533442 7.492702520921075 12.995368030750651
Si 9.50326795957077 6.304433400217381 10.150987821262264
Si 10.724236210087456 6.294862007761084 12.335595654254927
Si 14.297691213426017 7.966770574996571 10.858171488477153
Si 14.720502125177747 11.778436364995466 12.042243835408462
Si 13.349293209726213 11.462179654501961 14.254298446631108
Si 9.37609296030789 8.340108613553806 12.1674687289096
