38
Energy = -169.05606175 eV
Si 14.560467707612533 13.573972178115088 18.09299862429481
Si 16.964876803511547 15.182020197990239 16.771181919846654
Si 15.367191406990926 14.749093852337154 13.570959223034494
Si 17.13840300846164 13.18056844036008 13.207818797591765
Si 13.262410318972389 15.283459211778686 12.59633146311883
Si 17.919279364772763 19.25276803994055 13.551779104447826
Si 16.83766297752368 19.627384350673022 15.65813166388319
Si 19.832468194654112 12.342226588520157 18.444034993047293
Si 7.052671722822346 20.9192978346174 16.63647632185375
Si 20.017147772485277 18.199648730493617 13.797420167094456
Si 19.245736461149153 16.0154905786007 16.598129646846626
Si 15.636411028867318 19.8479679288586 21.835327410636246
Si 16.706899587913423 13.978579318301694 19.066505724455336
Si 15.283516894604121 13.48033736860496 15.694368957951472
Si 17.323480648386514 18.719927862759818 22.881404981119303
Si 13.724416340217955 16.454274086415392 14.678382627045309
Si 16.714212947740037 11.61083457580416 15.074378617301358
Si 20.242591646054517 13.531756156902837 16.508545422045763
Si 20.52580273730253 15.122403457518127 14.722652800900784
Si 18.285197777377874 14.189790080161051 15.059326455286046
Si 19.17741098376655 14.565084363945378 12.64293147555993
Si 13.492587061960826 15.506003285725363 16.88648740369447
Si 18.919979265766035 18.28390167558135 15.930127743197101
Si 16.974235467815994 21.485432595442827 17.013125439907384
Si 18.38177250488641 19.792031543373234 17.634015279576737
Si 12.188636266991434 14.002401898789145 18.277064139273318
Si 15.356160590735756 16.010053821637662 18.342678124133407
Si 14.191012233130104 11.315205237827255 14.91496553627028
Si 12.88079039072872 12.851491190772375 16.301776206503956
Si 14.947211188626012 18.537805643710957 14.485172632904256
Si 16.31275193252269 16.61478207846063 14.802856990234886
Si 8.474238706337243 19.96283337546849 18.90773664930752
Si 17.82318357626017 12.673568705908588 17.09795577280498
Si 19.31038288274809 14.76581743365668 18.621664430308563
Si 8.780270218572943 19.583109237993245 16.77398462024495
Si 13.336595658239071 13.383954409422405 14.057297986440204
Si 16.189126605801537 18.04563779531937 12.404836348216397
Si 18.09697817796095 16.72110320693242 13.234650494092127
