36
Energy = -170.4994322 eV
Si 11.376235007268635 8.152659305654268 6.037636993063952
Si 12.135743917282968 11.55766114238682 7.113196402313506
Si 10.258124040600313 10.266065904389494 6.6320748384717465
Si 7.953815301895307 10.873162460292896 7.085536720477206
Si 12.723665401131113 9.33691388868969 7.648085463434624
Si 11.92600488235315 13.044146037514338 8.97857833720408
Si 8.864762888646018 12.10222908516031 8.993763047130928
Si 13.947926940285917 13.903321911216741 9.975465333531277
Si 10.52409616931151 7.752623997056492 8.204632618031829
Si 10.86808743630551 10.611254017938892 9.218955991311184
Si 8.762599657939132 9.20943056259314 8.598054901603254
Si 9.874006431539744 14.264874894629058 9.15106711133903
Si 12.784955002004706 9.340372988939475 10.001858835236357
Si 7.523540970258269 12.048247778513767 10.98462252840852
Si 15.660084529050078 12.288235864643289 10.699618845247542
Si 8.761474905052324 9.038731392710114 10.947429354551693
Si 10.865867883868672 6.018417934329697 9.869577940349808
Si 9.781211349378228 11.041489458948584 11.82499499031674
Si 12.498455112608367 7.270856989802145 11.044870797556497
Si 10.022120607373205 7.264615954287716 11.700241735510737
Si 10.387854538902662 14.45324852549623 11.47482183997238
Si 7.149837076016609 10.088461646905575 12.24183530972088
Si 11.806361463031587 12.290353143894063 11.232817132213874
Si 13.742477660679537 10.868941270841615 11.586240511430212
Si 12.722824902071439 14.875551605349639 11.75762010961608
Si 14.42526106617679 13.09459985252829 12.439528565080007
Si 8.288681185820959 12.617132002527562 13.107962724337334
Si 12.001706396351665 8.117991588349712 13.13983860935626
Si 9.428199623861516 14.662043090606947 13.621564156418984
Si 9.394335644909319 9.821250153819028 14.11211987941833
Si 9.968932926008696 7.410904968308924 14.080924009097798
Si 11.42598548055888 13.39695247192914 13.721159665600412
Si 11.377862813696165 11.020351211146414 13.936448364460693
Si 7.290337227780884 10.894353301500638 14.504435344062227
Si 13.49558319203802 14.554686029197118 14.024074325125385
Si 13.422233688678649 9.889120888638567 13.749599989735025
