39
Energy = -176.66501476 eV
Si 9.333748848300985 14.504692267428256 17.89505585034635
Si 17.137421368435373 14.90038499079015 13.55288397446747
Si 14.132462709254588 13.112702612611772 18.48454669477958
Si 15.855060978415006 15.198426618279784 15.542432884864766
Si 16.415555066866364 12.205891791844275 10.517586194267595
Si 17.115001981746868 17.89584521062858 17.046576178913508
Si 13.00025383513981 20.155392079706502 14.522212440491664
Si 18.93744876433455 14.990017843729715 15.072594915714056
Si 12.889464018416962 17.823666214073878 14.88368555550333
Si 17.054497310635337 12.45518163682342 18.720237428733448
Si 19.537391091804746 11.907735642172144 13.061306928574385
Si 15.59123222081972 13.136056405893687 16.667885610746424
Si 11.825987950729475 13.850916500083503 18.169801995422873
Si 17.277208290614794 11.350642352003531 16.368245804119216
Si 16.022482768950074 14.592685869834883 18.685367008849322
Si 10.873171664073093 17.00776266528832 16.414090364513118
Si 14.960072193430225 18.323504788194146 17.87497570123181
Si 16.424439850148815 12.856945091805164 8.336083971055956
Si 10.272345025538046 13.488947104982692 19.931592233882384
Si 18.256196443149182 21.192028066109078 14.917343803913653
Si 17.862793978418512 14.028739953127465 9.657966587489097
Si 18.160722664913987 20.010749310115852 17.35420991671045
Si 10.833322616682027 18.866792434287877 14.954293079325778
Si 10.86329195462043 14.639118737219361 16.05519156921647
Si 15.300424992377508 10.957514618237035 17.88907434237218
Si 8.029958038265772 14.07108169171038 19.642221115891804
Si 16.519522516663617 21.540101815484793 16.50983902232171
Si 14.188361368911469 16.602707874116827 16.427017398472238
Si 17.9389136419522 13.329371199713748 11.911469060922455
Si 20.413915052513047 22.065275738042953 14.423528209760375
Si 14.758928842707153 19.917915329480827 16.099220333186295
Si 16.865256784149217 19.314242193298437 15.076744911887204
Si 18.902769651912273 13.154408149818638 17.15984221525925
Si 12.438037610669115 16.050969800585396 17.866329468816637
Si 22.230713659485865 21.15029443139626 15.566896493766157
Si 17.690474499107225 15.604049157137318 17.06314125227029
Si 17.846643847239573 12.785433265339071 14.547321596474282
Si 20.200226012441476 20.460895968533425 16.243721318619333
Si 20.31058055668317 13.052602276759371 15.079839501966218
