32
Energy = -148.19594397 eV
Si 14.29458079619922 13.109808072718508 14.92986028790978
Si 12.301689855564426 12.417390232565126 10.416873900531282
Si 9.106169137784436 12.594908264568247 11.442551272540825
Si 9.278658249398628 12.837856558049971 14.420116387346415
Si 12.722797581289692 14.671271823859731 11.389233740570678
Si 14.811437589535746 10.1031847206118 11.111969348856974
Si 15.090503384419948 8.324289034593823 13.047822568513022
Si 12.860523012735348 11.34369670994834 15.68804182634812
Si 13.099998033240352 8.586845562811575 11.731024407936399
Si 9.458928410855181 14.94201515118456 11.253712173802707
Si 14.806652678233649 12.331962842099218 12.714372969044184
Si 10.184707026386338 13.047872317044055 9.349665337898166
Si 14.514254861562375 9.550430612952393 15.040771878010368
Si 7.495832562252224 11.929623280968357 13.083644457366816
Si 12.730390537995639 15.455055839514076 13.68970123863312
Si 11.544327106035535 18.55459057295385 10.656937627942972
Si 10.458873763773466 11.041549903584562 15.29765649307492
Si 16.954270691345318 9.324336396352598 12.006863646635427
Si 9.423254256619577 10.507316775532027 13.249594643737534
Si 16.28637299286886 10.825924292512054 13.737139393288807
Si 14.672748430040429 13.496371300554559 10.656802935884492
Si 14.218878377726526 10.11429676186274 17.282517671044666
Si 11.620510851929513 16.27876914469724 10.086554346112363
Si 10.854010082661983 14.105061314492087 12.99693696086943
Si 12.034326447360032 12.090030517339315 8.029796135844236
Si 13.219868887785376 10.54449077394412 13.138493712454226
Si 15.80062338700303 11.53770263202491 16.008299857866415
Si 14.143564539067345 11.699310212002302 9.124129318841579
Si 12.230343019818712 17.264255988296743 12.327059772568875
Si 14.030637003775013 15.318880028983308 15.609722949167422
Si 11.329916173700761 11.774133377240332 12.466007742586022
Si 9.701389309182677 15.37347820744393 8.93288982019572
