36
Energy = -171.56631001 eV
Si 15.420259329835698 14.208573613160805 12.628435435632603
Si 13.13739234411597 13.905909588647546 12.225631559518249
Si 14.815563878865511 12.4357014856333 16.334105755543316
Si 10.987225489446365 13.789194334042941 16.073813433262274
Si 14.766324057938238 14.362882332579037 14.924648108382883
Si 12.574671916818556 11.737101811747632 12.912888754180688
Si 12.170372894761176 15.185414830058182 14.515490998484545
Si 11.665816312919576 15.743820164460091 12.185829858784258
Si 12.753253294353776 12.53546356752444 15.139391674909447
Si 13.803895794593272 16.311323841063494 15.851752634765164
Si 15.137627729151971 19.564695087352167 12.952131075895334
Si 16.288163604915354 18.53382648999695 11.074923141382065
Si 14.744136455363305 17.423629935034104 13.990675079344776
Si 13.897444184153121 17.768327250854536 11.686858484623043
Si 15.902618704166057 16.46734880884949 12.195869192544563
Si 17.10565224961796 18.108178946188396 13.525465001990927
Si 14.531358439326235 10.479077519413444 12.653753128293408
Si 18.201657112818964 11.592065816564599 14.018047347179127
Si 15.986346641270591 10.116968741792428 10.752077211676779
Si 15.844389437561816 11.107821463909419 14.642471626792592
Si 17.172108204087525 8.533323784556721 12.161518702533677
Si 15.325468420607258 8.49774238941117 13.703910874212008
Si 19.259399553916186 9.38035294017575 13.166647952751807
Si 18.17832138417919 10.851578796024743 11.476037517871731
Si 17.35554961028453 9.235729558818958 14.69535509629308
Si 16.382538776662088 12.079662669674567 12.438871545434875
Si 10.259809080822231 11.665651017227502 12.520032445537904
Si 7.851366500966895 14.630765137916597 13.572208452296309
Si 8.820564987174134 11.56152267187724 10.647561625151338
Si 9.460766478032255 12.959502279415316 14.451836852422103
Si 7.085778529587605 11.29488114426967 12.243476736851992
Si 8.641139728735709 10.574122104474554 13.999191658394173
Si 5.812464287883616 13.355390983363913 12.644343307151164
Si 7.740894631324913 13.607321732684628 11.187434586555648
Si 7.1096312459713475 12.365962692562702 14.583753365681721
Si 9.854863496353094 14.073999257257483 12.268394566258015
