30
Energy = -143.06476839 eV
Si 7.835853723485501 12.290178341979868 11.66472628490468
Si 11.299661614988837 9.70936894056816 7.84492292030974
Si 13.898398174819793 13.036661117673649 12.234534947290351
Si 11.450946386997984 7.789941956553398 11.621315426573684
Si 14.30848774131638 11.34317113724226 9.096639299493395
Si 8.813980588689352 9.662848674959859 13.693025550058115
Si 9.9587917385907 12.424171104019043 10.394139593699036
Si 13.190884866583373 13.296481723307618 8.143148237267216
Si 14.28336386347061 9.44534357210815 12.138013759107912
Si 8.054834778143148 10.89627760458011 9.181439852849874
Si 8.837416218974017 12.919664572034097 8.192872228854485
Si 12.67704504939047 10.400981954840661 13.531501508900233
Si 10.725676027248978 9.603273880265201 10.24671899740883
Si 10.593942269744275 14.54743867222833 11.43388064370359
Si 10.806412481585886 12.942795643044652 13.232132038538165
Si 9.311051248712072 7.322733395444752 10.496222231025246
Si 13.741255640731866 7.493707225957149 10.793832903182466
Si 12.892272738770048 12.643995999844327 14.388470911439562
Si 9.163318241155647 8.888455079924233 8.575987551290908
Si 8.388058266639517 14.289412564041864 10.30174225227966
Si 13.172123789386355 9.302818229267867 9.312524531920939
Si 8.130043455484882 9.12372380875298 11.521725250611322
Si 12.528716735500286 13.603622909901604 10.405918113427804
Si 8.611834589517406 12.125337883771605 13.950320937160114
Si 15.37914461835197 11.413721384961272 11.244526791649138
Si 11.13490697066713 12.063390745172121 8.313849156942927
Si 6.390447685821627 10.586673718856272 10.774515779322725
Si 11.05036445642593 8.704176215114211 13.785904766783238
Si 10.314032523093058 10.809908184939054 12.2486983470844
Si 12.88718750366739 11.150177746600745 11.067203174874573
