37
Energy = -171.88319789 eV
Si 11.099890147876538 18.042967020712833 16.005891673567717
Si 19.646840427101786 18.184825664339648 16.021883319106323
Si 14.455029290888339 16.565265186906018 18.520983610942025
Si 15.766394565816244 14.005330035257051 14.98441888208258
Si 14.91138414613408 18.096076052138315 15.208489858106878
Si 19.31334248736774 12.923279874247923 13.983240741698305
Si 17.743025245499506 11.087421070332692 13.759453086142575
Si 14.445374208268078 20.08116868697879 13.915787305695778
Si 16.742800743305985 13.151322385022285 13.046517326867892
Si 11.70186215137047 15.685806430268467 16.01198186629978
Si 16.738948190037906 16.443221588764455 17.715399976554508
Si 17.559313731681723 18.624669032070383 17.34899370818903
Si 19.60309576316368 13.4450031877162 16.30708729460261
Si 13.783769662071771 13.224092463235316 15.894863388073409
Si 13.147663960578678 14.907714777581008 19.857768816771493
Si 16.305846952306336 16.817555469825013 12.667575294925948
Si 17.974523692830957 18.475843206426582 12.533438270965897
Si 18.62593107641024 14.885246772861535 12.942878038937351
Si 18.5637781022609 16.861827219582388 14.216979587811714
Si 9.581359858672375 10.151703428299404 14.11990798293563
Si 11.484658088192882 11.436343215872013 13.523804195319363
Si 17.496395582977026 12.572338260976498 15.684108661477778
Si 19.31536241448697 17.210816549847443 18.232449563800145
Si 18.695043522667763 15.648388294636122 16.51748339119097
Si 10.486596403636325 11.396825850251393 15.942290314949783
Si 13.274837722139273 18.00772058133742 16.931800294737116
Si 11.568091346847147 13.345385649622905 14.986193371088978
Si 16.719674843071797 19.572538530155224 14.203709949109443
Si 12.894049273534629 11.095404707497455 15.538538805113761
Si 16.931696927052915 14.885457360149934 11.35841593539141
Si 13.194054950442192 14.751559837031088 17.557911093821122
Si 13.726512465805436 16.899712303273734 20.740590054353
Si 14.140225195279259 17.93836803710192 12.792438422611868
Si 16.40546953525795 16.265732621924467 15.284765962586963
Si 18.276090637987227 -2.9063763009384145 15.879806854902627
Si 12.743819397736031 17.090587253896892 14.50383953118241
Si 11.643946763905227 9.24176931765596 15.006112217735888
