32
Energy = -149.85014253 eV
Si 13.51007391459127 14.024083993119332 9.452475199373163
Si 11.412396094802254 7.146001972780707 11.716334244754604
Si 14.364628972878851 12.125349533736049 8.267809913418619
Si 8.999749877515605 12.464320262461506 10.74294615890847
Si 10.365391420638353 9.1610431476649 12.551136772555322
Si 12.125503316097188 16.394332278725294 13.903837899888407
Si 12.5992420872111 16.227807273694406 9.394952407590702
Si 12.440136036039164 9.241799202239752 11.055466036584434
Si 10.623342722335249 14.95055123401373 12.75103278983814
Si 7.097978129861564 7.187534581476887 12.458061906919813
Si 14.36380905306199 9.564996654596643 12.540963302119142
Si 7.0126962998370725 9.00949416854298 10.844997217892193
Si 12.029166188813354 7.860084857407916 14.038033926928945
Si 8.529813481060181 8.463937954947347 9.02774923060613
Si 8.136341645008322 9.163587859848738 13.3069462359356
Si 12.476083824367587 10.73817485490913 9.147652822915832
Si 9.068596404224635 7.3630893417844545 11.071790225400335
Si 15.719416813229461 13.39689840149471 10.25911814903868
Si 8.541532872663817 14.750998914262588 11.291156067653137
Si 9.400833896392792 10.054383590344607 10.535167372967203
Si 13.698730747835894 13.101867773040045 11.644786687230699
Si 14.626808842626934 11.066471121007655 10.602734199839059
Si 11.480610473612122 12.512497231264884 12.965249485479887
Si 12.723385825795726 15.730599562648143 11.713803730421013
Si 7.423437811094169 11.059151468089327 11.997143016051973
Si 9.073452273250227 13.03336933875086 13.162258102089666
Si 10.850359786856318 14.768448780615627 10.294704475897166
Si 13.798921956146453 7.235363129733396 12.4229705293051
Si 16.530135473523508 11.459918018960012 9.187115299181404
Si 13.15354571158189 14.102586285890427 13.697311587556035
Si 12.298415339885253 10.340898150147503 13.358473940367366
Si 11.49133176459299 12.448889719351529 10.482867092838262
