33
Energy = -156.49557767 eV
Si 9.733423480027632 10.425930459702942 6.485946728969436
Si 10.012948534159372 12.813402806477246 7.092201338411504
Si 13.782979746667612 11.113886356112054 7.682235008710435
Si 11.819574287805354 9.727271003256375 7.501810050719368
Si 12.061261907741773 12.471293859576123 8.507564797586648
Si 11.982770513153536 7.450689794409515 8.188667540680074
Si 8.636542951183856 13.22880188766464 9.017896358913776
Si 8.353955429251897 9.254257296257201 8.337065809903947
Si 10.030657013082092 11.063310347480062 8.841174810442071
Si 6.532663942104266 12.830396528810706 10.076093591769762
Si 13.571703098499423 10.527018001223217 10.003630209042582
Si 12.283712769426877 13.927553929912582 10.375823148354408
Si 12.60916976916338 8.42214080195672 10.247901843747734
Si 10.135840516289564 8.08207632977683 9.533434358659221
Si 7.938083578783321 10.897297959119777 10.069123834915603
Si 9.984614688298768 14.337393802766442 10.579971092468645
Si 10.261210023113168 6.354112209924876 11.437811621709503
Si 11.574502728454085 11.653095188596259 10.968464113535598
Si 10.70190670263985 8.909724531218327 11.77012157104538
Si 9.450433880140698 10.856800371186997 11.896260826339738
Si 8.006695278957613 13.231344739550762 11.997004237550623
Si 9.133016939361701 15.238201249161628 12.469782249802265
Si 13.943927330493143 10.922712369917672 12.261142343438454
Si 12.606846895352858 6.594987662837321 11.851197376430259
Si 12.632962418760295 13.479614240315037 12.715777283281327
Si 12.55467884202244 9.294630680377294 13.356946070049947
Si 10.77792518536531 7.290147022001272 13.562590141871025
Si 8.419392120556582 11.718157901776207 13.800829758764703
Si 10.480918332561815 12.841398388627058 14.156645090841987
Si 12.341045143623711 11.4617383261024 14.400885814635275
Si 11.143394621632254 15.048321874424307 13.848699146259762
Si 14.487952209518767 12.54666752537803 13.908460480354226
Si 13.100758269212355 7.073093701507336 14.144310498200394
