30
Energy = -139.36052136 eV
Si 9.654043512007451 8.781695679674154 7.690909623092708
Si 11.44437766846498 11.759187522352574 6.010741188290035
Si 11.33883685347363 13.514535472367779 7.622196128002559
Si 8.591042972015025 10.82008129030393 8.270857142936975
Si 9.221755518512198 12.505986170944269 6.614264283462831
Si 7.944765225035067 7.446619764733096 6.666856211308923
Si 11.87216543117606 9.432475244337683 7.089697998029304
Si 9.158433550222767 6.453300303940969 8.476627284441275
Si 11.599216702539271 11.356540460283615 8.669011274817997
Si 6.322814074676778 10.42125119892152 9.068294932494295
Si 8.099151633182231 9.360205750992817 10.472854935160635
Si 9.215050600681327 14.29225314924933 8.283429416036146
Si 6.86345802866397 8.1373717177946 8.682471939876791
Si 12.695654893611703 7.541613040063411 10.675834764108616
Si 13.059364425076762 9.408020844467353 9.171435537251593
Si 11.456258576490248 7.070415646468189 8.524493784068865
Si 7.722742011375979 6.948445885265645 10.58182014985296
Si 9.670872558481587 12.381533510960605 9.755731670471793
Si 13.555764167470013 11.503959295555331 10.20975431613633
Si 8.490087658391117 11.38273054322494 11.723379526497563
Si 11.378009639115158 11.502831387979368 11.357548208183458
Si 6.196950232925164 10.576782353790422 11.522701629395979
Si 10.344068178658887 6.860215849864412 10.806036983140833
Si 10.694733446340626 9.168098440284508 11.37860098494078
Si 13.124855515968859 9.742226070463378 12.071512527723169
Si 6.904092203516673 8.332150691288103 12.479495056888359
Si 9.62219731149158 11.5025025033876 13.83658959007825
Si 8.998998429402569 9.265586063024044 13.28407789498773
Si 12.01835529932073 11.730994035882205 13.686122420977437
Si 11.309063090203008 9.367569520625715 13.883832005836936
