32
Energy = -149.8230889 eV
Si 12.681799219555064 10.74100475899768 12.248164540144371
Si 11.959387306047784 11.787362721475542 10.094160530076655
Si 10.738454557315581 6.656838425958649 10.649811699336157
Si 12.292004667059963 10.150242357274754 8.368864488513385
Si 8.801252921973777 8.76953073681653 12.432975732811435
Si 7.63148666033604 9.245868011430808 10.398164916004733
Si 12.490429712355574 13.353049963344985 11.828995433024275
Si 6.62746627158674 10.8336507676114 8.252497181141614
Si 7.009659671631017 11.555875219490083 10.57283212557177
Si 11.2080462817052 12.468768053352505 13.62989106054433
Si 9.093306555694927 10.039703819102865 8.224316729950386
Si 8.981693294531572 11.80024310650427 12.595458687339518
Si 10.60286267107532 8.72613619085817 9.463992644878767
Si 8.489018637763412 12.274896155706925 7.818844819231147
Si 10.969209838438115 10.275938225856436 6.369773888411061
Si 7.204007348891733 8.532429558085834 7.484304759230981
Si 9.950498072267255 13.8814296157775 11.827676765747906
Si 8.284021906297884 6.394975263961558 10.227444091238134
Si 7.001591737707379 10.431081900200795 12.809071127838239
Si 6.262080567245331 7.492524392615987 9.514856268119853
Si 9.18657138254213 6.364371392898428 12.463815117776647
Si 12.084129650162199 5.549817530299516 9.07919810979954
Si 9.517318033514037 12.22257202635363 10.092815080924987
Si 10.734702964526184 10.07215514701727 13.693212678280242
Si 7.047850557589406 10.084289933008375 5.551270267957941
Si 13.12368114395956 9.21159224240002 6.292396905817869
Si 9.118351874191754 8.853032192049138 5.8092059740759625
Si 10.461566448152954 10.212866552585382 11.259926762242527
Si 9.073787040856809 11.597325432521327 5.54471279848348
Si 11.918565448074139 7.647025189985309 7.703877977905485
Si 9.712927081727054 5.18111391021539 8.747345021108949
Si 9.51316786367962 7.257917766662543 7.636859260957813
