33
Energy = -156.07637569 eV
Si 8.760738006825543 10.575770475862575 6.619998010561773
Si 10.862842591384345 11.59975102278015 6.464614055456536
Si 8.914225279521945 15.245202613640048 6.935791226400899
Si 10.91446608618881 14.00153760455909 6.560776122297628
Si 8.615759636602167 12.904094464399526 7.3068204055328065
Si 10.081781399146248 10.464364021688432 8.661612830756091
Si 12.323715881641162 11.40799590764247 8.382500155708062
Si 12.568337763493917 13.873529442066548 8.322666037056297
Si 13.611694796739389 9.564009748367834 9.108302727169958
Si 10.073668547353451 14.403169177880143 8.914396502046294
Si 8.994886236565701 12.300781154788572 9.620669919036185
Si 10.834781964610256 8.603637003635384 9.871743101735445
Si 12.730056529108408 7.361949618183547 9.08788862240103
Si 12.232090431554568 12.553020917566569 10.554184358476686
Si 9.138886341428393 7.3769273569066645 11.032714902611312
Si 12.048377584489032 15.01269737704872 10.390512567980004
Si 13.653605565742636 8.03219106234315 11.200341088503604
Si 15.268685541822942 9.722051650677155 10.776420176993032
Si 11.684229991323246 9.790090855700567 11.79605874574793
Si 8.09228003727786 12.950808123200755 11.689324604869713
Si 10.349428459632234 7.150337854932614 13.027431170390003
Si 10.466899267087406 13.429068830889632 11.857383984302125
Si 13.746220576989153 11.25623619913935 11.792154570855764
Si 12.53272970491368 7.990836507246355 13.234423085393448
Si 10.001995709868858 11.09801314538888 12.772941686542413
Si 8.420678808159424 8.797559188990007 12.775433824553964
Si 12.764210217155108 11.094233918094517 13.859923464508915
Si 11.131523434287663 12.850101706447013 14.118367305474717
Si 7.65007479197913 11.030380782011205 13.205786077361545
Si 8.880692811672084 7.601726519253933 14.804624785447869
Si 12.862336511975672 9.2107566856098 15.283721769440078
Si 10.47146631133895 9.345047059910335 14.920562200363523
Si 9.346970263942177 11.432459084969565 15.080246995845288
