31
Energy = -147.68564997 eV
Si 12.780954640677619 9.936501648277398 7.4710087949907855
Si 13.15446753784189 12.084931940480567 8.391673765109978
Si 11.56881658202137 13.741956713368651 7.689634503190882
Si 9.011228096866953 8.31797433346219 8.638092668113485
Si 10.402713976126329 10.004714701123337 7.870467757885039
Si 9.803403588989767 12.239503093304185 8.142846800846575
Si 13.275750877334344 8.343385507964896 9.18185766737964
Si 11.04787326647326 7.991474143006874 9.92251602967327
Si 7.944572988021043 12.671600071833396 9.514362415095608
Si 14.111680703606497 12.40470264050628 10.47221339800971
Si 11.987945518284949 10.397069655537697 9.812507824022
Si 11.296627654270795 14.008613719828231 9.990781719599864
Si 8.532274069438559 10.067099083496812 10.279375717586246
Si 6.411994882733204 11.08682563939417 10.604567034825404
Si 9.019719837051754 14.422598815742523 10.691782286037343
Si 13.234187311279047 14.451042453283304 11.255916910159272
Si 13.917164403068536 9.358570210115573 11.248891971782719
Si 15.539278321552766 10.996952284342271 11.792538078739518
Si 10.057317140431508 12.045988762282608 10.871341969749208
Si 7.708169557269938 11.425391387775932 12.597104954012037
Si 11.796383225409505 10.6297072874338 12.375330467865634
Si 9.762200683506077 9.186908627198804 12.24611890999823
Si 9.046676454049633 13.288406470188475 12.757528855695217
Si 10.769665602594788 7.052525320766308 12.05845982950043
Si 12.395634299852858 13.122996083481805 12.981563992212205
Si 13.874973811729623 11.432180339101992 13.481584126548382
Si 12.608845776913888 8.305508548758569 12.875071204369341
Si 8.369330105760517 9.73591585933835 14.127325212168008
Si 10.615009422096868 13.367151762523608 14.528251132856022
Si 10.39281318079893 10.993601640617888 14.415754448299397
Si 12.535219785649737 9.861094557166215 14.686422855381101
