37
Energy = -174.24052698 eV
Si 12.634361173381633 11.762861263191663 10.67634079434418
Si 13.941009730253889 10.773044538635483 12.531214447155707
Si 11.953247042142534 9.712099727096481 13.748835315492055
Si 10.923491200855329 13.27639267181944 9.938851910747587
Si 9.770255238849177 12.978773210965832 12.169246367324055
Si 14.606035040159641 9.097319934589374 10.748974667252243
Si 11.5929333871262 7.450127281903345 12.828687026312824
Si 13.531098537666624 10.421516903153227 8.974544331588191
Si 8.54156348927118 13.603046402280484 9.925259599777991
Si 9.972288420351166 10.617545301579609 12.703157035311722
Si 12.272511315842701 9.439933611197036 11.312621879811266
Si 7.424424316362618 13.776410015815891 12.061571743959858
Si 13.215087474054116 7.022555030702522 10.96711045489895
Si 7.927018124707623 11.563210772120021 13.533160200122547
Si 9.227607007598493 7.36779422958359 12.327304431154042
Si 11.103928700040793 12.922366555376072 7.433188680176762
Si 9.332789055382356 10.046624648264498 10.394155178909042
Si 12.096673627305302 8.835036283600914 7.8119584221893845
Si 10.729287613362061 10.813410988754807 8.63366258664027
Si 6.855843448484858 11.684885946017932 10.951608998435892
Si 8.2529304756023 9.151024401147922 13.805080557385548
Si 10.598908248944173 7.945047437644532 10.434834389915748
Si 11.858952797877405 6.684391415270382 8.818104978776953
Si 7.26788633344848 9.460314651327339 11.651741162360178
Si 8.020076090985325 11.602728416428377 8.76325340480163
Si 12.302597221170041 9.268616229284834 5.52380380056767
Si 8.169891004963487 8.436887402504729 9.057038525945778
Si 12.821527085728267 11.245025863351335 6.844401519715649
Si 7.874894223512467 6.336823686680437 10.422277798909818
Si 9.206727602863555 11.529258583272508 6.686651341800659
Si 10.11815270266412 9.379398782267026 6.422971671104234
Si 9.451504100599703 6.283592090722774 8.556337806100094
Si 5.784352808580165 10.589185807581584 9.049851361102707
Si 5.91429181668423 8.10254085524857 9.873418839604135
Si 6.538954867078901 10.98073190512995 6.7924824450000925
Si 8.541206237994823 7.646468604019372 6.777110849096375
Si 6.350761407348603 8.52120003248547 7.308064923949012
