37
Energy = -175.43801054 eV
Si 4.164365609158473 10.082540824537482 8.498096380643958
Si 11.178043157535564 12.729217156137006 7.849638187144771
Si 10.169899958221977 11.80040544430291 10.51861904387044
Si 5.868168678889844 10.856650985704539 12.636051527052716
Si 9.0691936621533 13.38174961534686 8.604650503252786
Si 6.895455326828295 12.189912245195758 10.905073510660335
Si 9.535079407441884 9.538788833389978 11.58723793260114
Si 5.990188779039768 11.48461048725006 8.883882907146548
Si 5.853862806763372 7.74527478543672 10.980619007582698
Si 9.329058080347945 8.095458132281857 13.517919972242911
Si 4.801053097684408 9.760951407045168 10.787177099804023
Si 7.218644795197208 8.716562159652552 12.656645073854163
Si 12.424019443853759 12.436909711922665 9.88515079118438
Si 12.374531146396652 10.107947782800446 9.484291727425662
Si 5.913178295990616 8.368057362178163 8.16506971427387
Si 10.632546290914242 8.456399469459644 9.657361551756589
Si 10.878790856335899 10.826284332480109 6.450370336750905
Si 9.415920933580708 10.813726667739154 8.456426354595687
Si 7.533377789597625 12.229912473571707 7.2924607078742385
Si 7.3504933072811465 9.809761683075493 10.427236843283518
Si 8.552779195290725 10.468025666947279 6.157772574816515
Si 9.37949904299212 6.8274524190333725 11.49439123551716
Si 5.761643891046303 6.1910711891803025 9.220580238134882
Si 11.459349083135734 6.421693421292008 8.05941986616371
Si 12.862988792650963 8.702323378376214 7.657040958640019
Si 13.06696847465608 8.462665553659212 11.132581591155716
Si 8.416696035422992 8.53690133548087 8.513129155165984
Si 13.754543822432195 7.143970665770971 9.248507958414326
Si 11.42181603854037 7.439644415151434 5.846003175619792
Si 12.598570376489704 9.475410353613338 5.429821302481329
Si 7.3156089465693075 8.404844289614212 6.171151828730136
Si 11.657144623850536 6.557937922481684 10.765130725012195
Si 8.158214313446896 6.3350893845017495 9.496941199805837
Si 9.217076353878765 7.083896160178772 6.5922054198699085
Si 9.41864561410122 5.101051528422659 7.871153707470468
Si 12.833666011578327 4.956625956858582 9.358338913645273
Si 8.756927609812175 13.688284449036173 10.969860625462506
