37
Energy = -173.47070378 eV
Si 15.175873192517225 13.01246934606521 10.886004369569362
Si 10.044889406176368 12.312411884282062 13.466339108185757
Si 11.19251566251726 10.136345784248451 10.623727072870743
Si 10.111799319998406 14.087802527356978 9.917850310156627
Si 10.694410343338824 7.72747963364062 10.831562142333567
Si 14.72114973648614 10.878199412367191 11.861984774265
Si 12.920891073425361 11.94725552347608 10.583695091041356
Si 12.344635142895381 9.231547553048824 8.597317180238308
Si 8.310839339171615 9.187549571959982 13.677507276182755
Si 11.871410949767588 14.993077138432717 8.499514897065009
Si 12.406974996279951 13.137574326150078 15.68036780606047
Si 11.038804233857917 14.416393925283192 14.141094983046086
Si 10.207158202951213 8.958002297165407 6.716015096862346
Si 6.977983795748715 10.504951260383347 12.203417706164728
Si 14.378154781921909 9.864736128918821 9.68341788166985
Si 8.849446911308142 8.645950169520548 8.672797793788344
Si 11.671885498697538 10.492656865207605 13.079195533956465
Si 12.318803369954466 10.708227545391338 15.990537548890618
Si 12.434317064567546 12.700995744452497 8.243940112196235
Si 8.69191308524189 9.171451426640612 11.069964117739776
Si 7.804429666675653 12.726790075841333 12.723064743263006
Si 13.085393515026984 14.600044678517705 10.575968517851647
Si 14.833628152815633 15.003869504181662 12.156226913437076
Si 13.691642857823917 11.292203346861493 14.057987599982306
Si 10.115928387797934 10.266582313035004 14.979247931408588
Si 9.127447503357313 11.649493585770648 11.06644654020152
Si 9.01612816314763 7.197002590349922 12.611265255525892
Si 14.668131754522838 12.043221581119406 8.741554779520476
Si 10.090979322271396 10.810221581263592 8.509368631842307
Si 12.61346011268284 8.45411834668197 12.139093632036321
Si 7.846280732670594 14.089402615338063 10.636773891710549
Si 10.950068293248167 7.240902052192898 8.453318365505341
Si 8.41907150140354 12.407886221514136 8.953626699812503
Si 13.364232791620886 13.607245897029236 13.555721262370238
Si 11.385921251070169 13.581255506525766 11.828269506830846
Si 10.853056003109899 8.191252029071286 13.860687888472572
Si 11.866340884932807 10.828183167078754 6.83649515749281
