32
Energy = -148.58163398 eV
Si 12.215907630426042 8.378040339112355 9.407005059020392
Si 15.017207609602872 10.985897461811387 8.210585951358253
Si 17.630704400410103 13.872523378438377 16.16733518192563
Si 16.17686305217233 10.9773708034652 10.50154587966312
Si 13.32833584784389 16.208575336545454 13.323959606043594
Si 10.58429474807886 14.620684290322808 17.168304868650278
Si 15.884379743666244 13.005408906949299 9.478028516313096
Si 14.47716938653159 9.180136934660107 9.83375869445385
Si 11.728397906396754 11.79910462229176 14.29704848414012
Si 13.926490192315987 12.741910527833573 14.950813326583448
Si 11.874010870075402 15.56197693521251 15.24879631829272
Si 13.33502815191087 14.327717924344338 16.736270337598963
Si 12.072359782779984 18.120740291178404 12.579381633868673
Si 12.138567603714092 13.294408324768044 18.622759633363692
Si 12.285851839848906 9.866910408627536 11.275577233242892
Si 13.568728474657611 18.72231462837085 16.35185673462373
Si 16.030713058346326 15.072288786249333 15.000794117109603
Si 11.6630436067485 12.399062547334854 16.558878110007633
Si 12.74025873640657 10.69716690607045 8.91720868035957
Si 13.925897152705506 18.52706661889574 14.00592511880759
Si 10.132614943729287 13.687078967020806 14.938341288577247
Si 12.221781863328115 12.30285013015096 10.641816318992609
Si 10.486091055641568 11.12631361374428 12.299866394255826
Si 14.405667813451574 10.309453721757658 12.268235179640387
Si 11.949485870642933 13.948193264384157 13.208084918471894
Si 16.154783460214432 8.848960577381785 11.534206148929828
Si 11.67393823948409 17.984822231054615 14.984732279555791
Si 14.279452349380273 16.555363366104558 15.576970326588352
Si 10.345680026919437 13.457487227910159 11.40227156795587
Si 14.588401307933507 14.159089719946069 13.156254495353364
Si 14.418976636423695 12.636188014760396 11.365642573024974
Si 15.508778290135806 13.326077883728036 16.74415366288095
