32
Energy = -149.10240618 eV
Si 16.57250402357666 8.244889684418883 14.148153818967945
Si 14.134524833559526 13.891079291461901 13.43650553725052
Si 10.951591238960484 12.29750860882133 17.448305095994552
Si 14.604314541135265 7.380943613536807 12.809013459106765
Si 13.608386120074467 8.52165991472398 10.983882996275174
Si 13.941662953498696 11.289575923002372 10.506197074394068
Si 11.49987342684594 17.63245822148973 11.544285493040816
Si 15.493712945543338 9.517822277499393 10.088544978590116
Si 15.223833994162224 16.082449238264584 13.1098526205639
Si 12.098683999075773 13.63531937030492 12.298029923895454
Si 9.206034951185096 13.958875028411645 10.200630187600193
Si 14.274986677766982 8.866202903149858 14.498627401966598
Si 11.259106208087115 8.226247930047911 10.542340713941305
Si 10.44361187634514 12.047335961481725 11.408759635371542
Si 15.84242381141431 9.737192968804955 12.551250408258037
Si 14.321030905816786 17.169869891438474 15.153978988025058
Si 12.661571493765946 10.501053455814287 14.042009094865083
Si 10.592194019086717 15.426499119085834 11.589385600467228
Si 12.290617420368749 16.330750337519653 9.538802173491526
Si 11.537527188235043 10.540146857720185 9.911584108619367
Si 11.205601602144757 9.82787390970096 12.338574816276116
Si 8.296276865788492 12.951831900557696 12.405506864868222
Si 10.917427853265673 11.559906331291678 15.251474218396384
Si 12.74057468268328 16.801879987859195 13.489708399750974
Si 12.983900155569314 15.083228948295677 15.112133284108962
Si 10.227757277452742 13.443753395885496 13.747028442089372
Si 13.654105164192133 16.06253767784913 11.384695980559028
Si 12.794421372752144 12.180955184376797 8.655524919267547
Si 11.004218927309102 14.025949727860716 15.911589671008658
Si 11.64504656791353 13.881251477538108 9.933401772953037
Si 9.291941293194693 10.929433642905416 13.420529622732968
Si 14.308744739617902 11.61948818442601 12.821858917296824
