31
Energy = -145.92844623 eV
Si 9.584266136061002 14.764626253331485 6.811020174182988
Si 8.379418398146637 10.749369785230774 7.670604059852079
Si 10.1005622801292 12.486847405270181 7.4982326627460525
Si 13.501494792312377 8.536707625995845 7.943418144133968
Si 12.408647098908638 12.883348546087166 8.237581261377835
Si 9.36152588585949 9.557160434694275 9.499283275388372
Si 11.228210494569916 14.963882184655434 8.601515361727792
Si 8.619462469086887 14.534928461157108 8.974720859104053
Si 8.420779215707112 12.250435231655183 9.497417785005533
Si 11.606997011158333 8.766526369743891 9.559132312217285
Si 12.859811406804484 6.663362138858783 9.41552835598343
Si 10.780497064597702 12.916832521876477 10.019789419911893
Si 13.584321626758753 10.065737460654141 9.836958868738293
Si 14.908381002009078 7.985753571382446 9.910329290352944
Si 13.682997341039888 12.379411522560634 10.308018391970755
Si 10.064673164414149 15.333729834643394 10.669713668606322
Si 7.685467989015113 9.103747811091292 11.422248254000628
Si 8.730860553561248 7.273190016335498 10.505066433994031
Si 10.487327129004843 10.361607933478824 11.618500112185439
Si 10.036546655520302 8.144550071906544 12.362588302365351
Si 13.01499958185758 8.18829569662805 11.431638976474261
Si 8.539997694633948 11.8090787101156 11.817651860845219
Si 10.186178728119247 13.488709709160975 12.325856115163933
Si 12.307292019387173 11.750988512060074 12.216151896146355
Si 6.794555185829087 10.658764314171167 12.988907762210564
Si 9.01444842490907 9.855266757168206 13.642529914752387
Si 13.071457461130517 9.825546489840661 13.472317936894664
Si 12.055622068575607 7.445634589573808 13.529664313635502
Si 11.728354719780262 13.168788020447986 14.078361576607655
Si 10.953876333283002 10.922706533775653 14.550240613379177
Si 12.185919114138587 9.04941453275814 15.469961086354925
