35
Energy = -165.34631095 eV
Si 10.156195783573542 12.31267379781977 7.373802847723387
Si 9.268971543602351 14.504248271109127 7.991357198915227
Si 9.354595586774112 10.433385828116467 8.515871910910988
Si 10.241460442276386 8.361747633526653 7.824246105714413
Si 12.376503991359087 11.637169680790707 7.613218852025425
Si 12.418366842178425 9.278429271622477 7.630552316597326
Si 14.315658631087606 12.43624412446625 8.715434906002928
Si 7.817297153724253 13.427014873318615 9.622053781487049
Si 7.462526789482783 11.111694980511569 9.664739293491369
Si 14.447390430054753 8.307877549139015 8.512420686709081
Si 11.139979575676785 9.696221047769434 9.887200899225231
Si 10.510054351731798 13.300409415657274 9.575682328631467
Si 13.715226465785209 10.248517710573646 9.705850705160378
Si 10.620337215015944 7.236839008799381 9.917595903375824
Si 12.77408472964733 13.452477629669467 10.223048794983237
Si 12.908911912307797 7.734540236336616 10.216662884831537
Si 7.223794956270289 14.258616799864864 11.791513597836333
Si 13.923384909720111 10.09698757775309 12.092058398247683
Si 9.373058266793993 13.09002733885993 11.666762228449809
Si 7.024539786061121 11.968756102860583 12.351475375786947
Si 9.919502963771729 8.415210926527793 11.89017212520701
Si 13.769471430377155 12.537188956882444 12.189558646688603
Si 13.274429039402476 7.515724252925637 12.534879682353624
Si 5.980489797201918 10.18308788695062 11.126047948417321
Si 12.596944939246974 14.864571513639167 12.150427351926503
Si 9.663530537635209 10.905972556303608 12.611414019266135
Si 11.21539081533076 7.437826581936588 13.709604141574955
Si 15.032611411343355 8.675807385423383 13.689693513457243
Si 11.918914384982832 11.142433456762388 13.274649343870447
Si 7.793907672974408 9.191541909070926 12.313415387343467
Si 10.461626952739673 14.690258656668469 13.226861950995215
Si 12.717738972768407 9.200270876492622 14.283586113889344
Si 14.387890652295816 14.292843877937175 13.677397211285879
Si 12.241126063209755 13.32656915716468 14.129036431104327
Si 7.874555148714692 10.647283271868867 14.222177261633592
