37
Energy = -176.36553444 eV
Si 7.39989631334106 12.76943057682191 8.718021278750367
Si 9.803917044908655 13.408488632579916 8.808029407843248
Si 6.729967813547651 10.989683699131024 10.1470628635811
Si 4.822901039991275 10.024514607995133 9.092500007262803
Si 7.327164186369606 11.635249099290936 6.614313779249394
Si 10.613250330269583 12.195382880547326 10.689828698298808
Si 7.5927834260705955 10.691571519407946 12.306931261443353
Si 5.433628774688657 10.208698711962157 6.6885678199357015
Si 10.687032171367656 11.683647047669545 7.281016763714513
Si 9.083204171726795 10.980498360194375 8.89771652552645
Si 5.86309616504579 8.153522923175167 5.406467682396668
Si 6.367833497531859 6.989944375374235 7.503291440330241
Si 5.063929718326358 7.570307191937934 9.429385855741083
Si 9.775452265819325 11.682328522596208 12.866338273838862
Si 9.23135089399692 12.199438693356452 5.1915671993258075
Si 12.81124028770039 11.333798532427343 10.43977219925704
Si 7.111372205153446 8.83751682156124 9.038531459243304
Si 9.877304481400206 7.599808732556799 13.675327431938053
Si 13.477581727761006 10.016903053469303 12.433334815683283
Si 6.681958060158136 6.971990741768419 11.139897212574775
Si 8.935498142236096 7.652732774652397 10.106422153483534
Si 7.593264183573766 9.076893240006351 6.700458346153353
Si 8.454793057684663 6.12000007379072 8.253716870816309
Si 11.0993983356852 9.587410851512487 12.93845319538276
Si 12.207870758271918 10.12736738266019 8.476735132103938
Si 12.197302591740064 8.960002098710927 10.83963076299057
Si 10.695996477400653 8.074576378770008 8.07001865394335
Si 8.003506496538181 8.39713820346281 12.433565754368665
Si 9.65914543143165 9.900378506461843 10.988982824937747
Si 8.197399154735644 5.2132644727301605 10.509274532413677
Si 10.14057040434779 6.21958415514838 11.69041179380537
Si 10.287708147011994 5.968578599532822 6.693441002947079
Si 10.99830818019152 8.097016824969298 5.641231169814242
Si 9.54057587675353 9.981184200545147 5.820580901921042
Si 13.000254365961485 8.384066403187708 7.006795863018824
Si 11.675867827112501 6.831921017840328 10.096501904454918
Si 12.419957475132762 6.211840981155806 7.967959071462451
