38
Energy = -168.99635211 eV
Si 16.93154424743374 18.337376328484215 17.41294711324352
Si 11.80860877731446 15.015461287371613 12.93266855824927
Si 15.529887504530615 17.308256831376273 19.292389003238245
Si 13.440968946639256 11.70197088802859 14.07095159275921
Si 10.52300147336881 13.397416134052792 11.68894917283529
Si 14.08481262455644 13.590772134919304 15.935525315042563
Si 19.834921067604053 11.746269139505413 11.216697372963635
Si 11.889060146284976 10.710824380081917 12.460260298482925
Si 19.23368145433731 15.632803269732072 9.61423793197223
Si 14.092335121846089 17.721140413276643 14.593348646742847
Si 19.765624893704874 14.088322939265023 11.32991481582079
Si 13.353950960410796 11.769466243231825 17.714981221259038
Si 15.487504561406496 11.702701839741811 16.34734907061826
Si 11.29468407758122 15.341098754563513 10.43709157441405
Si 18.95738281849615 16.257675531027008 12.02827218646703
Si 13.155858499200361 13.215794229403727 12.171265806800127
Si 11.826487968172161 17.073191039282463 14.320136686325563
Si 16.681733605380145 13.451900000015659 17.55824849638706
Si 20.92656528470903 12.893411242987286 12.944657254379624
Si 11.864712966373908 12.729541113839577 15.80607746017762
Si 12.658098986244813 10.225707312517056 15.959350406166028
Si 16.325787341211484 17.207419795683382 15.293176778906192
Si 12.557989290569193 16.8193056094381 11.536372524636668
Si 18.169117099425925 17.562448313846133 10.35501130549654
Si 10.792047044420716 10.94898079327071 14.553191827670405
Si 11.903944507382151 18.115507159741163 16.807922985173644
Si 13.271452831988281 9.24418257080148 13.846583603150725
Si 20.359189394513002 15.132428714616603 13.570872480028749
Si 18.458318154742273 14.755767829324787 18.27670401333494
Si 12.052693381356072 12.021007244240852 10.421950873760709
Si 13.180446689926894 19.832466213550887 15.699942799113769
Si 13.297595775169308 16.86481029579577 18.476670319105995
Si 14.573784054506838 18.392763074133047 16.951642432453067
Si 16.389651367103692 15.02307749769198 19.61055185846997
Si 14.487486990267996 14.808445698522165 18.040413206343324
Si 10.973756006722295 17.03808178789236 18.607885797597007
Si 16.577023711228094 15.889860933927064 17.23678002977684
Si 12.979790849801887 18.783804590560923 12.775496391123118
