32
Energy = -150.04124119 eV
Si 11.594507038120046 8.854913081092741 13.301825221101193
Si 10.881712963213458 10.708311001152392 15.376691339259803
Si 8.925655229811529 8.830514727762987 6.55833401280802
Si 8.202162049543546 11.720572709495121 9.59903075109612
Si 13.623387234288002 13.409146119422802 10.859258720628386
Si 9.570998014047953 14.304804411346804 12.623946207036012
Si 10.847418666474885 7.6180531197255315 7.390380664535552
Si 12.750229785373739 8.620598685901152 6.2831486234432425
Si 12.124354815204281 14.473597981854393 9.399834158623923
Si 8.63805036551099 11.355513004610719 14.116703840841456
Si 12.836994375422247 8.528237178344952 10.852271296994653
Si 8.60942496873224 8.012104918816272 10.636804608639967
Si 12.512234688759783 11.539035295922895 13.250407476678038
Si 10.90792033894822 10.127659163796896 6.681518867793244
Si 11.54051735588977 12.952364862044984 7.496621634887121
Si 12.030702443510812 13.917957967771589 13.45026437330824
Si 8.766949012147874 9.53089954799535 8.820991765957016
Si 12.761025669060166 9.347021231283145 8.506870365076148
Si 8.854403823362299 12.067930531418147 11.85720636165814
Si 10.798654196729577 8.060410255360054 9.772490878583653
Si 10.240588817566938 12.9472918003611 14.883562746307025
Si 13.271096382694175 11.721435010585473 9.052429702418204
Si 9.667670904270627 13.45094677797038 8.889958939459458
Si 9.43962061241029 9.627793575219863 12.181513279396563
Si 13.906793308785348 10.85284151868204 11.285523260596332
Si 11.13498624073616 13.128070004377836 11.264614073404195
Si 10.778699454717756 11.082198668399597 8.966236904448644
Si 11.418489078865836 10.64438372261815 11.19675820016239
Si 13.134601838204954 9.892395714299676 14.876958664148741
Si 9.051243824077991 9.009361915416154 14.487697270773987
Si 11.112004188391763 8.372417260495551 15.690994082615868
Si 10.041103154757913 15.265419738118226 10.36335236639415
