30
Energy = -140.45401628 eV
Si 7.183933061631834 7.859659200310747 5.217178217539631
Si 8.046058519869966 9.82726320108388 6.15123058411482
Si 10.273572316124488 11.88670583027849 7.7608204312171
Si 10.174654321999475 10.939722384185993 5.554797627969245
Si 10.393547140790886 9.187777830705235 7.162827329261766
Si 8.798684548875169 7.434518590282009 6.782959054905476
Si 8.099520428167075 12.444238771324878 8.559538377840969
Si 9.03277520313011 10.136238061537593 9.02693135619339
Si 11.573044569580825 12.369637297322805 9.718260180994994
Si 8.047191503878075 6.340915786105855 8.766506335488707
Si 6.79030640119454 10.606381972161925 8.014119243142826
Si 12.409630557512001 6.5576099138579185 10.482256212681854
Si 13.47006390428614 10.991871686694845 11.64714923240487
Si 12.479118069884038 13.236328044670325 12.32830652458692
Si 11.545954038163206 8.485614062905222 9.14619945992122
Si 13.832565335724032 12.981213883639352 10.357455745789299
Si 5.682643105011701 10.081478473998528 10.139317659762156
Si 9.862489482504513 7.165902400692879 10.119930183368483
Si 7.473113409477803 8.384782689488414 9.899625981154522
Si 11.313432308066226 10.22329184979577 10.694088383456776
Si 14.163323435188298 9.553932728294003 13.371869488125597
Si 7.449934318879732 11.71162579614174 10.722962585985034
Si 10.603557587489462 11.468975396094818 12.773114625337241
Si 12.489959505265894 8.497908724759586 11.991920305075366
Si 10.719454955728454 6.932048199221828 12.379041034508756
Si 12.597876360624584 11.407184270685208 13.980159575305535
Si 9.016557081686077 10.055754139595464 11.584774005131786
Si 10.25435557206954 13.536338814560487 11.433949044821313
Si 8.45749001979244 12.503577654170222 12.749568777107823
Si 8.425374638744184 7.8516840467745626 12.143324138147463
