37
Energy = -169.29720131 eV
Si 18.145354701443352 19.825157402579716 17.202889115317046
Si 19.882081532065286 19.378090185984014 13.929637055137508
Si 13.872913214658643 16.09152377006948 10.730672861659638
Si 14.64749152580781 10.286013648442426 18.8263832445161
Si 16.398096841225797 16.840847125803784 13.214738301973682
Si 17.930759085779435 20.304912468533946 14.87097052675846
Si 12.756367000091092 18.16624202306822 10.76001737823569
Si 13.52830549551561 11.581399021017734 17.11123320108439
Si 11.969159980936247 17.530893830951083 17.70161142619531
Si 22.195317749162506 21.6157414334612 18.364002777362632
Si 11.264285592826818 15.976496238718385 14.24998248201941
Si 17.756742927849803 12.059765144986152 20.50735117353584
Si 15.584759523637928 8.573041545262752 20.169966532339856
Si 20.266403311305993 20.9996815760164 17.356459489156173
Si 11.588854396053575 16.302375093724667 11.914301337974232
Si 16.212750545945184 16.718326299549435 10.741843031388724
Si 15.933493122457822 12.634739193001565 19.114763448446926
Si 14.218963907740452 13.784775571829119 18.00861058773853
Si 14.988593332979033 11.322706245093988 15.134562873502151
Si 18.267087471372086 17.86676565133615 15.416211628422644
Si 17.20806173938064 10.015642554616731 19.057885956288985
Si 18.52989056314545 17.972391299187596 12.59052701567237
Si 20.291649973306203 18.83542448724167 16.234350744322246
Si 14.883942395470221 13.626378058842816 15.774768077085342
Si -1.185987718953267 19.514394763520997 17.387186207032876
Si 13.212948608842476 14.751551882681861 13.050291669217117
Si 14.980014461204552 18.469171869559016 11.66533183590849
Si 15.742544997110487 10.865483753617804 20.91371854657339
Si 12.424318835318513 14.194577134754589 10.916985794271318
Si 13.111292741430079 16.61752489634593 15.730725511881435
Si 18.166562845952452 15.790687836654831 11.83157727086218
Si 11.132087496221676 18.00335712830789 15.51438850529221
Si 16.60165935005915 19.272647016545566 13.153754806278174
Si 14.844676556265556 15.624358247410452 14.469159556460761
Si 12.39219880855238 15.223385799580178 17.5537829266866
Si 16.167461665354473 11.378657915541945 17.188171575609925
Si 12.350145412253653 14.116910047352045 15.41245669582889
