39
Energy = -184.90455977 eV
Si 13.31034197678174 10.46909571576645 8.457181366676435
Si 14.051409766167062 12.59665113737383 7.677391731022032
Si 12.00857649959968 13.844585018423427 6.9154348044466385
Si 10.072012418243482 12.5100752740459 7.4359472157661894
Si 11.03173893933324 10.453167079440068 8.009665527229513
Si 9.716131928024197 8.670439175976465 8.763979974566174
Si 14.514038340319876 13.743382157925975 9.702233380311256
Si 11.867694054842323 14.988184567260683 9.005500664148963
Si 12.017018854772102 12.52192289764028 9.119596630929374
Si 13.125939040922821 9.870736882298731 10.808788878518984
Si 8.993430613565117 12.688864518098965 9.650941868352751
Si 8.821093613841057 10.33896343456943 10.132110131258276
Si 13.781521949483116 15.945416159177109 9.972675302908186
Si 15.845063933850808 13.113747284917086 11.547789207936278
Si 10.918167202613045 8.827074693413746 10.795852317552505
Si 9.864713373109886 15.047758283010896 10.346802604924912
Si 7.488764585319523 14.459091025561962 10.207355345594351
Si 13.19083877900583 12.186604858314364 11.64246060540678
Si 11.031600643925788 10.681200445598403 12.466173761446997
Si 15.57133585168469 11.023406894154906 12.521538059890695
Si 9.715820095639826 7.76146447897819 12.610036190875984
Si 10.488977198713723 12.894796829786829 11.621930427609446
Si 13.384170018390071 14.723411726541025 11.981591950972033
Si 8.53623763499885 9.90154977927729 12.416394530104952
Si 11.071518729684035 15.126605469402099 12.397022324784551
Si 7.918587045752004 13.224029175997932 12.237952635047154
Si 14.906531543293863 8.798594758085397 12.01450813486008
Si 14.300795608447592 12.495447209778282 13.771645644487679
Si 15.283134814457862 14.610563429999354 13.39680095059293
Si 11.371292087518517 8.752951337196242 13.93799887036949
Si 7.15993328388925 11.399553441822334 13.649662882761318
Si 9.546203578613065 13.922298848848152 13.755100335196675
Si 9.466057656385836 11.606589128177271 14.288670908432445
Si 13.683197811627323 8.984873086922493 14.04479240221205
Si 11.017345181564684 10.341628185632322 15.590567225789796
Si 13.340371561242835 11.067760333614494 15.439660545632309
Si 14.20165904490216 8.93750104972255 16.34074733262046
Si 12.396023773019992 10.025840185421554 17.46645628592107
Si 14.617058560517137 11.07052163589321 17.48538863690663
