34
Energy = -161.05061006 eV
Si 12.163852253136026 11.616402319794604 6.031152008040726
Si 13.855938461632926 11.17271424052647 7.626762892729134
Si 12.222173567311787 13.102556834373788 7.9194146009228135
Si 11.310638368475121 10.552613379825514 7.997832157349291
Si 8.973541428990211 11.04315563621164 8.56997858287747
Si 14.281095044499095 12.923900141656324 9.225429497284884
Si 13.211312017678624 9.2420454425795 9.024073596012322
Si 10.552444544832213 12.524653813648946 9.64100293702169
Si 15.062478833440847 14.96953788843872 10.226649982595774
Si 11.887127266349244 10.648264041540765 10.603227782076894
Si 10.538835231010196 14.729097182703628 10.555323404230483
Si 14.462976803745017 10.831751741353756 10.411294509484048
Si 12.886889363163636 14.696332369972753 11.386617379889183
Si 9.399406203039103 10.21577770240135 10.761592715239
Si 13.0442467547854 12.372652383800856 11.787281864113362
Si 10.99432815024497 8.640519096984299 11.590106654673292
Si 15.404819191033337 13.600016597811894 12.183279708329383
Si 11.288335099265147 12.218452937796748 13.464850177654831
Si 8.893099811125406 11.502510739995751 12.694116478272072
Si 15.115654206212472 11.326963575968248 12.68576698968742
Si 9.604818293379482 13.732915453759846 12.500154135295867
Si 13.04189254516546 15.075329508747334 13.804805681854006
Si 10.779255228946367 9.84224500966456 13.739392381093143
Si 15.25351715828378 14.548533256592815 14.342411694602557
Si 13.603252623847762 12.700038018527602 14.39698619207548
Si 8.592094204775524 10.295508118985532 14.718524490566669
Si 10.133875488218449 14.063388157398856 14.768828115553145
Si 14.876194354883017 10.726894147381916 15.07661049073422
Si 12.36870395797964 10.655607464258145 15.356829094545853
Si 9.919286502113273 11.97232613090416 15.752874714037171
Si 11.749534994314192 15.442809370303172 15.758150117924103
Si 15.147769719280037 12.991121617805153 16.253308683147857
Si 12.718251529818934 13.38252978084153 16.568338464873158
Si 11.519863493279281 11.498338591699968 17.434534519467796
