31
Energy = -144.84342249 eV
Si 11.583175398968828 10.174940676184077 15.610407458381728
Si 12.633940995219234 8.651888412139094 14.005479014077517
Si 6.781506619899095 8.674187837089109 10.447498658338015
Si 10.082789419100253 10.927243123411001 11.964177130223009
Si 13.661185873563799 10.04487565736818 12.365404283210792
Si 7.0789760329089235 11.00427480092666 10.331208045305644
Si 7.637992944073648 9.381937926695828 8.384217360499933
Si 10.169190128751271 9.363457372848591 13.86020592223672
Si 9.531868425741607 13.444560706259665 13.768830124820687
Si 10.966470036039778 7.19378135988954 13.161215349551155
Si 9.226010542526534 9.327064233428667 10.371699573858654
Si 10.930780041872397 7.729931923507272 10.814029253345588
Si 11.991499686524655 11.252398151946132 13.518924514236135
Si 15.056600617900758 11.938463916932543 12.304634313574224
Si 8.33164283056266 12.513418317283744 11.747831491258022
Si 12.71660660038455 9.253526340161581 10.317054408620757
Si 11.758895567536497 13.592478422630137 12.913225718752422
Si 8.168021206476782 11.963502460395718 8.436026062037092
Si 9.837930916225053 12.873964968748153 9.936006758732331
Si 13.803376882183656 8.55060874554865 8.284792580845755
Si 10.128050600973967 14.714303070702952 11.540740998208664
Si 8.434708578767806 10.539148707543305 6.499812495813018
Si 7.919376150304239 14.693682854822232 12.649837716437467
Si 15.93793538553426 13.021717933410295 10.407450394673763
Si 14.131736442796802 14.074750658444401 12.828302445049358
Si 11.786880705446066 11.600515012545985 10.06199200992989
Si 10.070356822464536 9.632030276641341 8.043012947003923
Si 11.512748170534472 7.778780217186407 8.515255602042643
Si 14.715338125896356 15.0957562249649 10.675206470079582
Si 13.533492031689685 13.016606303860197 10.746611768066165
Si 12.35061579357823 10.464820278461898 8.084635662544885
