30
Energy = -141.99649722 eV
Si 15.182402192360977 10.551866487710987 9.329313582256804
Si 13.827740961360808 8.284682903374119 9.827203864242055
Si 11.616705122505119 7.953895767379061 10.58555660669543
Si 11.749380250844451 11.146597110635954 7.830664205995209
Si 6.271450511013141 9.834552953945055 8.912204008521922
Si 6.416316680346661 9.231050862203249 13.363091139069471
Si 8.785673887260138 13.042967554095803 9.42518932406759
Si 13.923041163801708 10.780708212363521 11.659864833482088
Si 14.454213498809292 13.117223486509118 12.097824755164288
Si 6.584633384301251 10.562616384898144 11.231152503896116
Si 11.145124182550283 13.064037987913808 9.898849281026266
Si 7.27368253975812 12.88129532061724 11.32610800059934
Si 8.419838806878492 10.320237751849 14.071306788660063
Si 12.123413403113338 13.344005123951977 12.048720956553769
Si 10.80749014108999 10.16235776399464 14.686955345097868
Si 8.174940858151572 8.955627678030359 10.004489976432602
Si 8.276096937120553 11.038972172920928 8.26686184702633
Si 15.659623228624836 9.10595996977759 11.153677449129498
Si 12.270296468235694 10.283659506348892 9.99578999009985
Si 10.723264402249322 8.560030857003788 12.784369872218372
Si 8.395683967898437 8.454315159489097 12.317023917004846
Si 12.629985930018162 13.386208782617176 8.124736664114383
Si 11.045954689530182 11.049423704167179 12.190831022689043
Si 10.26724280780499 9.033505976942719 8.948508989078038
Si 9.041269731417518 11.130963773632823 10.886338645490131
Si 14.185620631490192 12.617486169051695 9.812809149125524
Si 8.830765801149916 12.364032347212545 13.054383386149436
Si 9.908125503223825 10.008060078045599 6.827071874096535
Si 10.927089574753625 12.68570082653222 14.02524782759425
Si 13.60918430252239 9.574209007340084 7.84010569442153
