33
Energy = -155.54072409 eV
Si 11.552715255185683 9.285536000554055 7.3633325874516045
Si 13.909949471672498 12.210012833286866 7.724678406564033
Si 11.67839928432813 11.597484665498236 7.400110807647101
Si 9.398067891337774 8.272912876183991 7.658768613376138
Si 9.512788875768031 12.425723253741577 7.743320013267785
Si 8.413105858220154 10.400864028494654 8.399530519797416
Si 8.696739393214619 14.48174860628543 8.514056688314673
Si 12.628501931358995 13.002657762454811 9.491232197492339
Si 13.791399446451805 10.964945539070378 9.931897139556332
Si 6.431222225989798 10.958423986165151 9.578833418850154
Si 12.652214823135377 8.972074560907842 9.433197001036554
Si 10.193173916478258 7.342555835784774 9.749608835776995
Si 7.705911750918784 12.976064466436421 10.127637418316894
Si 12.498031479702856 6.831428634231312 10.378687156236078
Si 10.275854197743366 13.374185961085074 10.000024864047631
Si 10.321426958317002 9.78064710355184 9.617739633455251
Si 12.012026031951129 15.012823204515964 10.54368844393094
Si 9.018508393551077 12.893300351036412 12.116862729219706
Si 15.275603744881323 11.055019440252183 11.869123002117247
Si 8.777051208316568 7.750767137663354 11.529452054876971
Si 7.647116390382712 9.760384823417095 11.184642071471538
Si 12.276278448572615 8.259105743767629 12.264357310957136
Si 12.660816215299553 11.226708065968484 12.282388505285736
Si 12.241111574542925 13.705764779590526 12.486509382968967
Si 14.241627194839813 12.77668054440842 13.31835703221837
Si 10.238849416804161 10.190581949196332 12.14786979756513
Si 14.012680850007895 9.467055962369589 13.280169950738184
Si 10.233001656811181 8.062016989533989 13.380799207161383
Si 10.33044191187284 13.790179359278047 13.91463798539938
Si 8.041530100137715 10.9810517734522 13.100577886428244
Si 9.43642390713592 9.89882932590502 14.721662552873362
Si 11.032386218078873 11.562433240312096 14.341112527103489
Si 13.305008233865621 11.169995452475314 14.845098515372296
