36
Energy = -171.60985711 eV
Si 10.472109126115651 11.562116052575119 6.378458046239074
Si 8.832009209434721 12.363598597763119 7.94762517242351
Si 11.890923925333428 12.699813715508688 7.862566369091475
Si 10.738038842770326 9.699809568005517 7.870492774784292
Si 8.471579527400255 14.642390793775466 8.518397146035507
Si 10.899183787723208 14.682739223940434 8.552062806511245
Si 8.669169997075596 8.798810368251804 8.446695194916893
Si 12.467570922454035 8.365873981638538 8.782194112107119
Si 7.310955673845292 10.687683983424797 8.739179833097674
Si 14.053189094591806 12.227733010546357 8.737007478602127
Si 10.818747198957226 13.075938389941989 10.3269195000892
Si 12.03909283680749 15.436805716979281 10.545130953294082
Si 13.327429906284555 10.257865672422428 9.94593219530455
Si 9.580558672095474 10.80136847733314 9.732884754396563
Si 13.40388808628562 13.44298948995482 10.676945991251255
Si 8.749271965158417 7.492228615646234 10.449066975525087
Si 8.481919310769351 13.954305387033443 10.822974154672407
Si 11.109763857616638 7.796188568754722 10.605816985090048
Si 12.069618162646535 11.4791327586346 11.592512521846563
Si 10.276149720114638 14.822945649986135 12.039059947121281
Si 7.462887721568702 8.513767152506302 12.272508245007955
Si 7.333694829211015 10.633886844031124 11.105140076585263
Si 12.77609200937419 7.7327072611919565 12.312179345794172
Si 9.57888094485802 9.452005548958871 11.712625300657637
Si 14.202006103348326 12.273130062124904 12.565915848241051
Si 15.105870319181003 7.234152555284569 12.15240509146766
Si 14.311186745725477 9.692630594695196 12.045697034235456
Si 10.478921569072561 10.764716430689857 13.432824378679342
Si 6.972195172544325 12.745333477451513 12.219784796097512
Si 9.045288064212993 12.63020042126011 13.301549941898616
Si 12.34231126202421 12.391937257062533 14.01420451232682
Si 10.594454100569477 14.087491287415581 14.242123118334405
Si 13.888993308053017 6.896104560015132 14.321614820884996
Si 13.084353455743958 9.232503332432549 14.161180233604432
Si 15.469337029469177 8.795135593581824 14.047867908902072
Si 11.659653365352407 10.60125542297079 15.48775225867179
