34
Energy = -160.22705472 eV
Si 7.717697533281924 12.38579764926412 7.204596024686951
Si 11.698811071080984 11.731168871021833 7.366381895655927
Si 8.413261529400414 10.074518644822028 7.638813540197054
Si 10.761362757238816 9.598191901638923 7.9199371977028115
Si 9.840635297394543 13.000291977634419 8.269412988735533
Si 13.89303200005677 12.624455998273394 7.497979930035867
Si 6.82712399492857 8.330831304539437 8.183820520308739
Si 11.25147125245687 7.424910420098995 8.793259315471643
Si 13.232777715541104 14.566515307862357 8.842778724238256
Si 8.887354150080478 7.318636410618296 8.802237919438936
Si 11.200103254796343 14.147839716189003 9.854147348418504
Si 7.9405097975136485 11.811255658738578 9.440710572244082
Si 10.682123102411232 11.169850172639876 9.696256875704014
Si 7.919103174404376 9.314027014939972 10.081674762162413
Si 12.898425898236319 12.227179573138718 9.632424714799066
Si 9.96285028889765 8.057489408990358 10.75064384934655
Si 14.539272226617182 14.630857625617498 10.95261473187473
Si 12.447737834457103 11.216309309568164 12.902834771939773
Si 14.262304326889321 12.387309318702341 11.522852646141011
Si 9.608173963891742 11.09313024027379 11.809994483807754
Si 10.762538496592015 9.227526422164487 12.733089643138795
Si 7.220943101101934 11.078965655101637 11.567610158562148
Si 10.858561777385436 15.167198916128473 11.988608789808342
Si 13.225239949383244 8.85342783218819 12.45807015764618
Si 10.594324129008298 13.012313038892849 12.723662137145347
Si 14.822819341516983 10.65039072998786 13.003227691203683
Si 13.016937891708382 14.396229246687055 12.73291002302563
Si 10.446495011835587 8.573673264301366 15.047203630190827
Si 12.790496623493219 8.753280035484599 14.848212176482377
Si 11.553782862104656 12.60932744521067 14.818680677091368
Si 13.924309242875383 11.714399182147933 14.975710618630739
Si 13.433421166309419 14.06973446067488 15.112324687154029
Si 11.462050789957573 10.528622947797638 15.93475712778949
Si 13.672987074834497 10.023382926342434 16.661598296903602
