36
Energy = -170.48303873 eV
Si 10.438342649031439 11.122869057208751 6.823093863002653
Si 8.945685848400954 13.073080749836548 7.125764055146978
Si 12.620246388875167 14.931092028242427 8.717910922731296
Si 11.17583392485873 13.109228921947444 8.17759937011714
Si 8.373301376834968 10.957671244255728 8.30622365337586
Si 10.59628689216222 11.029505824194395 9.266057477295387
Si 13.292618759940561 13.626379418051124 10.58949685931835
Si 9.227675291603425 12.971661452332357 9.549531494152651
Si 15.485489526242885 12.523914223652737 11.481027928170658
Si 11.913813775974457 10.690259835229806 11.205323470533145
Si 13.853060701874258 11.37369029276342 9.982509023812726
Si 16.117793320066287 10.596600110272417 10.137772537599563
Si 11.281402505750806 15.145324501771501 10.797871051872237
Si 16.81683182222105 14.496594753771708 11.623768894040909
Si 9.211049048804242 14.206598509195398 11.573620245094597
Si 12.593591759394087 16.592366681514548 12.291576865434426
Si 14.47238723864277 15.185924110755975 11.925048013336516
Si 11.179603011209341 12.868350055978985 11.926503633949258
Si 14.372459944911578 12.734066588499438 13.611271906719319
Si 12.93823941326756 9.224355911175675 12.778424943166938
Si 15.182852054063016 10.042757209447883 12.199726320803707
Si 16.8621525454784 13.123414266198868 13.604895584420147
Si 13.244322001233252 14.971586981211319 14.039778873763076
Si 11.773839240172284 13.039414944858308 14.163226663317094
Si 16.76550630103426 10.704655930162325 13.92537377758224
Si 12.909797368726224 10.937373518131507 14.483827604062816
Si 15.653279611953025 13.6503521409137 15.51783395731697
Si 14.583370140452883 15.76838221412307 15.887696627109667
Si 15.160374207641151 11.347221964759296 15.625425591664518
Si 11.048972392110233 13.446796286722883 16.377189949632626
Si 13.076863593836656 14.461923347741969 17.17365901872455
Si 13.509345485401692 10.038183222169128 16.67168522147255
Si 12.676910479065901 12.095198130224084 17.50025697394317
Si 10.928659737187894 15.049654790575168 18.225257097709886
Si 10.49277217098531 12.551403570181686 18.57740422539597
Si 12.540628062253019 13.627505803590589 19.451724895872562
