39
Energy = -185.44495368 eV
Si 9.55267334112366 10.569604203352641 7.1882037776965495
Si 11.904876387527063 10.399662262398932 7.779937015584575
Si 13.245809970319385 12.243870297011837 7.737758792094244
Si 12.54917161763915 14.533870549742517 7.82683219561643
Si 13.111809278567065 8.372363939557307 8.466302557329675
Si 9.289408285225708 12.254455217609546 8.847219922959283
Si 14.832248607799071 11.657518999171769 9.377970013289415
Si 9.47799614066532 9.801869580103606 9.417002150616925
Si 11.186890094270202 13.544455033595744 9.544013445460894
Si 14.114094072783335 9.595924769422238 10.337825241420454
Si 13.994548730841071 14.299540596887306 9.69241586310671
Si 11.620409834702054 9.16596337537632 10.108728338319043
Si 12.465465747359454 11.600288068845266 10.175366709386726
Si 16.242922546611428 13.489950867845936 9.89747789271016
Si 8.112576641731163 11.526777876368417 10.759319458436268
Si 7.805326719787265 8.716205545398827 10.640794768044657
Si 6.036413622769818 10.27972154403799 11.021343105584126
Si 10.58805832382992 14.392433187946263 11.629671778843695
Si 13.502609292769748 15.389493160164575 11.781218828345192
Si 15.63273406725667 15.793604720305073 12.79192383627187
Si 13.357675728231674 12.702793902260739 12.42857595958294
Si 15.667849823944813 13.414437629469402 12.22478449808289
Si 11.436908307093862 16.281594270986837 12.69468870385255
Si 8.308662121558813 7.458500110946202 12.509264583310765
Si 11.720116105437217 8.662982465075533 12.392361289144322
Si 9.245181599564832 12.636487116508544 12.567192398356092
Si 7.157827884038747 9.407384726968889 12.932019738998571
Si 10.752389598078905 10.75131231588192 13.087760647936094
Si 14.12849570881463 8.694064041124454 12.601903745406231
Si 10.448297677606707 7.05054425282774 13.644119666943231
Si 14.38952519346087 14.46632312971936 14.312011694386536
Si 12.06675509508772 14.27616061640355 13.820108087682275
Si 13.624647377221006 10.702214382283765 13.727942398812845
Si 8.513835345196261 10.596916699669682 14.405308531328009
Si 15.360769212099392 12.316975128861925 14.279357267264576
Si 8.319297199060772 12.945296285304218 14.795437310198558
Si 10.20571035699036 9.111069271345539 14.873759111051944
Si 10.671158053261944 12.683738013175237 14.855866284474255
Si 11.878426830872701 10.73320438724512 15.345784933269384
