38
Energy = -171.95927045 eV
Si 18.206034144092932 17.938152509335023 16.901980100144012
Si 19.578294857018946 13.905097652818032 10.185531236276656
Si 18.009757409690096 17.282832236988757 10.98893215831682
Si 13.379261575798177 18.82834392121086 19.923412496098866
Si 16.01994128454342 17.123829408644806 17.20603765769024
Si 13.583655278052547 16.387121901863107 20.676515863719096
Si 18.70456527288342 17.28637764946124 13.660771132797024
Si 18.55772407388948 9.494082863691748 18.279217941591853
Si 17.22112638673669 18.95227957932406 18.847800442595474
Si 11.389035554166199 15.585712695348393 13.145238296812755
Si 13.669968266458541 14.627299138173132 13.363014843205699
Si 20.69765405337043 8.920707194026933 18.83833922328688
Si 14.843620617560635 19.10779404221952 18.100792631338205
Si 18.385775449749385 14.770720190709245 8.35260062481814
Si 16.932317860981414 18.71011514602997 12.563853296524128
Si 21.451229471351457 15.117213481045738 11.090108611570042
Si 12.238492930733285 17.187314981567813 18.543419450633905
Si 11.78351363431412 12.25930598527079 17.379458207816764
Si 12.441195520059853 10.100539376046894 17.716894207909466
Si 13.188570430890522 17.08261830321388 13.572216041517192
Si 15.401607718871965 15.114641842232917 11.769981722472345
Si 15.546579149036516 17.272076223913707 19.571545055201582
Si 13.19041188968452 14.684599647784827 18.956173272095015
Si 10.924275238007551 14.456225639221362 17.715765632752184
Si 12.967049722823077 13.152610695282513 15.143263521339506
Si 17.36023256395073 15.097453026509175 10.476500048725395
Si 11.47698941565996 14.972767084987794 15.482108775687776
Si 16.373406193472153 19.532286982053773 16.426489720481836
Si 13.993555303778653 9.614987995511305 15.931044193705945
Si 13.202031275845034 15.81556173604053 16.857507923009365
Si 19.354135323390594 15.591504367166308 12.078995926968283
Si 12.106259300262108 10.918966434200762 15.296102866800698
Si 14.119785431241969 11.82639436040883 16.812385516383532
Si 10.949920414097624 15.608244128745406 19.76320155552159
Si 16.54142342212425 16.31592866430654 13.520782269184746
Si 14.742541638997825 16.18655010053685 15.05518182280398
Si 14.904987825661895 17.419547762201258 11.943612304333511
Si 19.91979128950798 16.331105245076557 9.622425200666486
