34
Energy = -161.11338833 eV
Si 9.462788875482916 9.399858305721658 6.5842264627218094
Si 10.026459242574704 11.70736471690948 7.052594434528837
Si 14.054528221796177 11.30700565147575 7.784203332634608
Si 10.600521050264977 9.365691480435295 8.702146752296402
Si 12.048775709216052 12.56019091642837 7.882299021349963
Si 8.613725537810675 12.992386451681657 8.35804269025514
Si 7.847658953283158 10.060008095410142 8.24047850713665
Si 12.987903423299247 9.595126107383587 9.029258209261915
Si 6.50180485604104 11.988010142770023 8.68152567639467
Si 12.219034785267505 14.779226505083342 8.608847371447931
Si 14.304052454592728 11.744792680617353 10.074320001872513
Si 10.209984233343068 11.436942839871353 9.80210002640969
Si 13.844136526280563 7.715688361840431 10.247877927390007
Si 9.964090556964917 14.706163074624909 9.373587998533154
Si 11.77046679892536 13.178405345686858 10.341699511245968
Si 7.908683751075854 11.691097347671024 10.60489066286111
Si 7.925419336227532 9.308170133180997 10.524924267966941
Si 9.986299874747775 14.302816525412192 11.681382778297541
Si 10.884442449006048 10.150652655587074 12.098909838170837
Si 10.260258258529513 8.200146892131714 10.7398725067463
Si 10.040009384535171 6.183165131366797 12.152617044100248
Si 12.23826215535581 7.704171776484009 12.027176676959044
Si 7.982233451370101 13.280846700598005 12.416069248057424
Si 8.478831525528408 8.01223447529031 12.424500287924431
Si 13.503110985141353 12.941810441535827 11.98930819098667
Si 14.35938733376267 9.751325592291888 11.261279274524629
Si 12.08662895593167 14.679594656542836 13.018370354294214
Si 9.483710559230113 11.831163223362475 13.382367348351226
Si 11.784259888550736 6.612636288302229 13.974533565960995
Si 13.154436928382994 10.745621059265066 13.015021072190825
Si 11.622095535760039 12.470224367383452 14.049378902476565
Si 9.274618439534148 9.610820713882239 14.004823716257569
Si 11.495786473910426 9.009043385901327 14.324125939258822
Si 12.865036481169305 10.76704095076247 15.336683394027018
