38
Energy = -170.62585416 eV
Si 16.91379841762352 10.790757355029207 18.03500395690811
Si 14.07210040507096 10.0068222408606 13.198729936010148
Si 18.201142926225724 21.326262686975756 20.9417205973929
Si 14.41681889254364 15.40942925074606 11.451315150869537
Si 14.675223515002079 11.223069530056998 17.8214584498321
Si 14.147451191841482 12.73248793285945 15.882424537913993
Si 10.061255369286597 15.139652222154856 19.020840913972325
Si 16.131320486138915 16.2289169133492 10.152442374726501
Si 21.208194957837016 20.06957547998606 13.58829995617949
Si 19.49945217665118 20.33902527824971 19.198228818846623
Si 12.412416556891921 14.724197478618168 19.10772345376189
Si 17.19392899221442 19.587419989974187 19.50848149339506
Si 18.704269950457288 21.68851037797594 17.274901649083546
Si 17.556283660219474 19.510283777165238 14.746216091671359
Si 12.881495154835651 14.465176083654768 16.814717749029985
Si 10.870096946553433 15.613897802781413 16.76410072809626
Si 17.303754752073353 19.80366921438272 17.14871243692518
Si 12.74489848048463 10.685379069324744 16.454203407907553
Si 19.67382526319441 18.377860492945786 14.56722837000753
Si 12.792124820986224 11.618980214046159 11.89252817767906
Si 12.55983721324135 8.983091566141328 14.705496387432053
Si 10.80526835284068 13.349742213363148 17.611388942712036
Si 18.030119899309 17.307193024573895 9.471048882235756
Si 14.645009015541257 13.02844656450162 11.36347752058899
Si 19.061066642688264 18.603712521621663 20.773576270785863
Si 12.044950781081509 11.28949952960119 14.17681293299526
Si 16.997807959747295 19.402686579367607 -1.2871100318241475
Si 16.446121212915987 12.51079235341294 16.61162013917097
Si 14.41099531394326 12.434161161948905 13.608527811488853
Si 10.919801619616129 10.988952069370786 17.977841795543203
Si 16.673855998083162 20.067514290299133 12.581937361444856
Si 16.353131850465722 16.10626583762331 12.658788138656568
Si 17.084990336428035 18.001659502566 11.486657838795532
Si 19.52455925219602 19.074890454898107 17.0253834865022
Si 19.613200271374193 20.872662773822015 15.193223697935402
Si 12.738790460757233 12.278018161566312 18.843939065514423
Si 19.01270160333934 20.35892353305919 12.870946467805744
Si 15.955928302784349 11.121825875503585 12.228359811344706
