30
Energy = -140.08901108 eV
Si 9.835856000014052 12.741253824958951 5.285317934077022
Si 8.44830347472872 11.850798470808423 7.005653918254803
Si 10.425276469423567 8.397909235404956 8.564013230148687
Si 12.184758499164234 9.54847073067308 7.239969179921103
Si 11.057759705029607 11.810967652032174 7.175207144261772
Si 9.554450938213858 10.547695255491224 8.610636024025283
Si 7.780160335982196 13.502695062284827 8.843225559426092
Si 11.832478433256473 13.767952065582811 8.526216220087969
Si 10.943224832441649 7.555262474000661 10.967427755507451
Si 9.666247549756042 13.988952004318719 7.4063249370792335
Si 11.405902725929808 9.87396285422615 10.335616557518662
Si 8.69974567560206 11.791532802817652 10.401178443385326
Si 9.89020459971303 13.977653699665675 10.058812861752347
Si 13.62106754927634 10.244230907318462 9.154298430666115
Si 8.976077317248233 6.8777406831591605 9.911810781647958
Si 8.27263677870407 11.979321328368233 13.829661403204469
Si 14.785465036743373 11.32051105095559 10.921764515892763
Si 13.541907003457965 9.239828187161875 11.362471022935262
Si 10.068814914566168 12.796868122017608 12.277178967790872
Si 13.062657062480044 6.886386633846353 11.77718664423513
Si 12.331153020308104 12.113819200638762 10.190873052094343
Si 7.3661535875048 10.608214316792603 11.941871812949648
Si 12.21595367642812 10.75465094013024 12.68453841159658
Si 8.623014088604958 8.497072250534142 11.682643450418558
Si 11.753606580050251 7.2639319780796185 13.89585949629181
Si 12.579538859710768 13.040882472594044 12.375000518676309
Si 9.762939128391727 10.374381638780642 12.757432181113572
Si 9.473035806329666 8.001790162264939 13.881349201174329
Si 11.497136686546455 9.500320909720566 14.553893817353499
Si 9.230568095331707 10.031037516310006 15.268660957451539
