39
Energy = -184.3753098 eV
Si 10.778114584201244 12.085289458417568 7.622763032353402
Si 12.496267225771703 10.519157556181064 7.350691255133651
Si 11.255240690056551 8.513132846189464 7.0965973457872975
Si 8.646408241871573 11.051783583655828 7.1355738564831235
Si 14.753039312567882 10.855193862891738 7.973573604618566
Si 11.017923479902922 14.402098924501407 8.186626655981689
Si 7.255517067206029 12.550500062710125 8.47153758400489
Si 9.326090037523711 9.141776634014981 8.494867473766362
Si 11.241712610121212 11.73636986953551 10.081397132433649
Si 9.035415766472923 13.81508597078223 9.327316010878464
Si 12.615426016347014 7.121109065047363 8.520886842035843
Si 13.866912232293107 12.231499518972011 9.797719014841759
Si 11.592074733961681 9.23433113920492 9.452461161510396
Si 13.996188169380819 9.026929455512255 9.391361815086452
Si 12.132970567794139 13.929104965704639 10.309808875795566
Si 8.827556122987563 11.263463679059324 9.754412988752827
Si 8.714356241875494 7.5003638859572215 10.252344155037504
Si 6.398211420263733 11.16806378398801 10.268113406423435
Si 11.0658862315885 6.977929499021233 10.364436883907414
Si 13.453851127744255 10.526179305469656 11.404448348568714
Si 8.38627710097299 14.54449098495564 11.471288977804976
Si 6.8480506441387705 12.84692146923284 11.937596711195738
Si 12.426440375633167 8.109227658787308 12.048615363257506
Si 11.138071054844971 10.284744525077867 12.044790109465401
Si 14.764223204271925 8.455151160993802 11.68293565976919
Si 10.492923269428449 6.494518548769145 12.76617369996104
Si 9.363349861557138 8.684087398961859 12.396670855912891
Si 9.225752395987026 12.218736850440855 12.175336114431975
Si 15.113415000893031 12.355311672363454 11.942192193186427
Si 14.789828162283891 10.370462154053282 13.392271383113048
Si 12.34479766488325 15.415775783028547 12.2092980769883
Si 10.317010781213725 14.358555715922941 12.82649424730842
Si 13.103034319320916 13.247256011247995 12.751545893759669
Si 11.354390233160911 8.235725495469321 14.124575814256447
Si 7.520479212098445 12.252364325781276 14.130845904335846
Si 9.033437321013675 10.476581434177733 14.071932771716025
Si 12.401850756518634 11.280118443282722 13.902266592503056
Si 9.67729365279977 13.068228172258099 14.68202513465769
Si 10.719017358136451 11.141183377468588 15.675011302064847
