33
Energy = -156.95066412 eV
Si 9.850400381926333 11.671657286328037 6.420738081048512
Si 12.186509918731044 11.756407872310525 7.108989729629635
Si 9.923543448195337 9.679324194850214 7.7192536130522775
Si 13.546015206366988 10.016889321307373 7.860201592294355
Si 9.615192813429351 12.138029856102067 8.805986585680898
Si 11.878906982487083 8.40751478308001 7.932899720603116
Si 12.834405204329357 12.934387134992267 8.95615360211466
Si 10.876101330605183 14.018460509809373 9.635951061359158
Si 8.421853894162709 8.25288051251285 8.851854610390266
Si 8.163671521229256 9.754505026236503 10.618829374972796
Si 13.203632675015669 8.446853519202826 10.312751173187602
Si 11.497582741549436 10.69055862400647 9.659695408230402
Si 15.176454753401716 9.660000804533201 9.57489915681668
Si 13.740373222389678 11.355753674204228 10.460260907756503
Si 7.657794692034059 11.98506662947704 10.222962668350386
Si 12.255032010164078 6.525131753609044 9.212650245259773
Si 10.204795596916275 7.3064166640384185 10.099022164404145
Si 10.431024812172634 9.539802849946136 11.65409504571671
Si 13.103583274544013 12.191157684525106 12.597404740265791
Si 11.07416180938743 13.068631616403506 11.7996666952183
Si 12.337134268983645 8.22709591271423 12.545200959363045
Si 8.84859693535749 12.369789575982537 12.238323739263025
Si 10.125532269227822 7.106775948211898 12.445772076166508
Si 9.372714822174366 10.641159854066732 13.713634807845454
Si 8.33366187949195 8.720970769303033 12.806599022660263
Si 11.970856319638365 10.32289730450964 13.520913836653799
Si 10.644086085473694 15.602930415117982 11.503426152780168
Si 9.421941215051827 14.434960207923998 13.214280766478781
Si 13.680583843185461 13.714609576794745 14.363378816299603
Si 11.994686469623296 15.120780220236387 13.398012692017696
Si 11.437606924418333 13.16179405317127 15.000879026594069
Si 10.814931591651764 10.901370141871128 15.541977650651216
Si 10.377083985130694 15.27588860106788 15.203787175320585
