30
Energy = -140.4787022 eV
Si 7.741613809373282 13.298239483692921 7.952708917047747
Si 9.558317047618203 11.72710328131649 7.744772362406472
Si 13.496641763657186 12.100102062875992 9.63559972270721
Si 9.574445237352833 14.334875105678385 9.26785602889886
Si 8.745989721360072 9.500547357493655 8.42106360761062
Si 13.170181826300988 7.939453430327206 9.804961614097028
Si 12.053960619378797 12.127602406159594 7.610330239387071
Si 14.598169055797136 8.409107669999862 7.955102338990493
Si 7.12613510081156 7.714366828979437 8.751400038806901
Si 12.78366467034897 9.902199632642734 8.202963467467779
Si 7.858929001970438 11.594080095049069 9.628793638827805
Si 10.953194903419002 12.350975424128958 9.787047383815084
Si 14.774339856216818 9.99615603695612 9.804757800155762
Si 10.841769566287493 8.931739030527433 9.380232367007297
Si 11.160355827608303 6.656478110606143 9.99697908995322
Si 6.5366863476268655 9.666301513871517 9.938771443260482
Si 10.460845720104183 14.047443397364981 11.468405786869708
Si 10.044575320373202 7.989633015712245 11.604565264232098
Si 7.9713489292378314 13.627344163677735 11.172700889486707
Si 13.68187623068566 9.312235894892908 11.891153205808243
Si 7.715708245459256 7.830856153100165 11.15035062786433
Si 13.003847724878147 11.795644629667423 11.957064511395217
Si 10.47031596588854 10.523806087611792 11.21748071311431
Si 6.517892655103881 9.578498003080831 12.294606396710167
Si 8.34216237250317 11.209031987988999 12.046108336998266
Si 14.139475627954436 10.69698661637864 13.747616521760552
Si 11.618948636520425 9.19075921824706 12.997758669410334
Si 9.10352885493632 13.106304579132338 13.374608710720173
Si 11.16378176477548 11.80579642605426 13.429331522251863
Si 12.073090189568266 10.318124949901485 15.046701376055156
