38
Energy = -172.47662064 eV
Si 16.667869705508288 19.917345369077946 11.409804160950522
Si 10.786523451003438 19.174397994666172 16.44861974350069
Si 19.74216519344205 18.679531793933148 14.036673974957004
Si 12.517538684825878 18.0563534646764 17.45836418952826
Si 12.991346509541431 12.012890777321957 20.270072012719353
Si 14.582051244341724 10.183615003401894 20.646307260294634
Si 16.264342225303455 16.932866558712476 14.174652370707319
Si 14.266092743487013 16.030402802589588 12.668059740214765
Si 19.15778466433552 17.002958658150998 18.12446070305345
Si 13.534539512174899 14.299525735295154 11.12805720079403
Si 13.9812255542631 16.880369459496787 15.009964633490174
Si 17.942457536449037 15.190663724648857 17.165230679447436
Si 19.581036283678564 16.660931216242716 15.384576408816852
Si 19.345430536270985 13.257479946691433 17.166664230206756
Si 20.567386009507487 15.331409068977697 17.02758824181149
Si 17.01706484221294 18.75117563270504 15.525648615076863
Si 19.201309598314957 18.866278149137017 16.529708530426806
Si 13.515812865634777 10.607639452645328 18.597372497948957
Si 12.940616494258943 12.678746719720477 0.0436236079814325
Si 15.117387196184406 18.381122058203708 12.350299374207562
Si 17.86132213162257 15.168680257242272 14.718021032929425
Si 17.747885666082972 18.256895009742426 12.644441537325541
Si 14.799762724492252 13.697657954413721 13.213357219384026
Si 18.66711749870088 11.630424438177279 13.022793587048474
Si 16.343391931728664 20.566183510492678 13.771690890955801
Si 14.374606874976731 19.244848890703555 14.44779135312447
Si 15.897754092372276 14.925952365897702 11.110801619307125
Si 12.799970590679425 13.622388763822057 22.03565722976728
Si 14.242909306292926 16.379196074314564 17.309258642716387
Si 18.905964841474383 13.066662166020592 14.778683858334423
Si 12.794305834126556 20.19803713209002 15.870213792447093
Si 15.33395038648767 12.591428489271255 11.07819397907305
Si 18.59957863644775 20.64967517969136 15.03986310960777
Si 13.594634745528342 11.348959589223131 22.495125969302574
Si 17.171447583606952 13.384789865383215 12.861319968748623
Si 14.921294318384923 18.658000409094846 16.883849208920868
Si 13.528715050067786 20.209954690009965 18.141190750806068
Si 17.78327853026598 15.824642792513092 12.376965921667344
