39
Energy = -186.55383033 eV
Si 11.0700869026075 9.341268345752214 6.7720303123130945
Si 13.260997506449153 10.12754445442054 6.698829835034195
Si 10.567328678582637 13.320547013455236 7.400033672104471
Si 12.839813558442778 12.350505937753637 7.4661604276795215
Si 9.825269845669435 11.114855388171785 7.766224783890284
Si 14.454500414045256 8.074931183655405 7.472148047248825
Si 12.199779706591375 8.00853351108961 8.3568899705346
Si 14.530439706335141 13.614985639625724 8.566910848415443
Si 12.052860790553222 10.467827449065677 8.951159478819253
Si 8.024572777028826 10.028201703339528 8.876182626814341
Si 10.235610164776249 13.30894902744194 9.886210566708456
Si 14.23334899453529 9.436410967085783 9.403642758725104
Si 12.799238981965987 12.80633768027018 9.938730459360517
Si 15.192165609162613 11.637188010684342 9.763360392187943
Si 7.852628332503695 13.894424438014067 10.376265030965156
Si 10.07465749145303 10.905166154065114 10.355778135223542
Si 10.812044306922367 6.92303606410396 9.965883602264975
Si 9.204448382722726 8.572211019024099 10.350738168191993
Si 7.576663454202324 11.574783967187528 10.578267536259853
Si 10.733170394812381 13.02224426434432 12.606981342401577
Si 14.14348009709576 11.934290980282675 11.82334060281696
Si 6.794248730817166 10.365290871742397 12.490580271821388
Si 11.997018666105715 10.355749822975033 12.105415817799791
Si 9.11590402487972 11.019675636665426 12.649990802801534
Si 8.279673845365213 13.647018710070299 12.703066751418717
Si 13.68974401600786 8.603607793141558 11.607722302228009
Si 11.39604198189409 15.033854345247562 11.447398070217302
Si 11.670980495888772 7.584421773021536 12.058840126811232
Si 8.255798091064719 8.467800129312538 12.521251519302707
Si 13.301536936062536 13.997100921016251 12.604546337928006
Si 14.317723908875509 10.079333792151495 13.329053172064713
Si 9.83249787381206 15.257219292601357 13.495129670089769
Si 7.366294709641467 11.946424252553571 14.1997939306054
Si 10.353321553796562 8.981459440105963 13.578724473806657
Si 10.359239418763053 13.580313255292081 15.12253778651783
Si 9.49480013051823 11.335993752058897 15.093836896464985
Si 12.36935704939521 10.448107374725188 14.593555461726137
Si 12.374325555552522 12.798504030623167 14.436285628059403
Si 10.683002338174566 9.368497030934247 15.921117805448237
