33
Energy = -158.11161443 eV
Si 10.312618831048427 12.590671464254589 12.711117957306568
Si 13.184832522401425 9.096637188558669 9.357777599624383
Si 9.854973504612127 9.23388980310137 12.928815025150394
Si 15.304962396983294 11.566720887439658 11.051457708960651
Si 7.9736042179896485 12.745005895642624 9.111075775465865
Si 9.800404134174636 7.329298808725406 9.204590798109143
Si 8.614583707066245 7.571925321040569 11.238011831229166
Si 13.694537306951021 8.540704285177114 13.00820224711337
Si 6.4872197850653315 8.648210635268809 10.719368857233546
Si 11.02380393083158 11.415523692839521 8.111928326072082
Si 12.43363358062378 13.92419046869279 12.129451222213646
Si 8.182651899876236 12.243565479340813 11.647254985744368
Si 13.231341115514333 10.657069676056004 7.520662413680597
Si 14.072318048778552 12.376159619924655 12.9567945975622
Si 13.678320727084428 12.10525106061359 9.351224342759837
Si 9.446737431829167 14.710805736784788 11.06744087922724
Si 12.769562631210011 10.575035996683146 13.728070021685697
Si 10.608986887645715 14.383772967942363 9.096124561581014
Si 7.659841060926734 9.99973915151121 12.219651075887889
Si 12.052239080115765 7.070217758258904 9.930674456875947
Si 7.111492037676783 14.163404192998126 10.809306792645478
Si 7.73087657619501 10.473996287668587 9.698533174544876
Si 14.955861568757161 9.13504132992006 10.998896530765037
Si 9.562254172480294 13.156282178180431 7.332180694172008
Si 10.541905287747996 14.934460514423401 13.17091186621529
Si 10.551202137312876 10.937699211845125 14.436210737490665
Si 9.640216368472789 6.8725263452199625 13.33901369932135
Si 9.652247562835194 9.636136206156861 8.657705293921534
Si 12.86507591723984 14.29997492994046 9.812805863668597
Si 11.741441351293975 7.408703327318216 12.257774113847287
Si 10.878987630494391 9.167295937781512 10.639050787086093
Si 11.320008297774088 12.382575716839911 10.40188787386481
Si 13.054011387638166 10.640261020498079 11.34878098562039
