35
Energy = -165.16613649 eV
Si 11.417341048026655 9.10914061472032 6.447626555025084
Si 8.986913747280383 11.89630972020689 7.186957386402416
Si 9.246072847596375 7.9287822348823145 6.314405040284304
Si 11.259518866500706 11.247364508921082 7.553382563509874
Si 12.94832425676277 7.448561314814109 7.160691764033135
Si 13.144643570340104 12.465552829499474 8.340286718298676
Si 8.842677581259217 9.606445950787013 7.932328999824436
Si 10.654178826585499 9.701226573640078 9.58100696325045
Si 10.714771657880654 7.231280973657418 8.021095379365631
Si 14.364728112465325 10.752267673114643 9.638719392782535
Si 12.99539114788935 8.940332053510865 8.982193515759798
Si 8.963538088549086 12.225107844285713 9.495559058314704
Si 12.23663847137832 14.648218307673519 9.308601585060334
Si 10.157469379239911 13.934340482699003 10.39295795060166
Si 11.507580242005249 11.969673606750725 10.046171562734134
Si 8.304967152441336 10.06158831012588 10.316663670872686
Si 11.519945033507717 7.437120509469806 10.24669368210178
Si 12.887557370198063 15.086027771816203 11.716120287899676
Si 13.005064981708706 11.024677467398273 11.584649640203883
Si 9.906257621946802 8.43516592715778 11.747664808295951
Si 10.701233657088062 14.313946941089192 12.629185751764767
Si 11.323149395833655 16.58056860861394 12.90619575396694
Si 12.901939768049168 12.954258743832392 12.907179955309147
Si 8.104741634763883 9.97041702162116 12.856289577470452
Si 8.366446041644572 7.601372768085887 13.38188527870671
Si 11.652955921599387 9.63449840747298 12.91609562272962
Si 14.664129057345718 14.500166566815007 13.330574872869676
Si 10.927321985913816 7.396062961576531 13.957311157648602
Si 10.03852769679688 10.864487734263353 14.114780031726568
Si 13.166004581936228 16.055712808602475 14.604451072903117
Si 11.051583892092129 12.942856361694961 14.541596989125752
Si 10.886113501372138 15.306847370314062 15.051785968996429
Si 9.320237945520436 8.815544838538024 15.359563194521003
Si 13.24893845241801 13.661505854910963 15.27808784257429
Si 11.695630075802287 9.36510194917704 15.263774016805481
