37
Energy = -173.27012825 eV
Si 14.034368937643872 11.402378762514227 11.467100433113087
Si 12.770167477330677 12.149311895333096 13.334889203857704
Si 14.578275237251242 9.124194930318744 11.751564606412707
Si 13.523577988210574 12.690193133098866 9.591512486919488
Si 9.976977867531613 11.662586146958516 14.17201173441633
Si 11.959289769164188 10.673409672459197 15.06719426028643
Si 11.7251603215071 14.334219861338234 10.256397662268718
Si 13.034422095802478 10.842545929053957 8.19377458937035
Si 10.793971887386222 13.685594454532312 12.808131484150554
Si 13.0756536315298 8.675150004302903 9.976233060531406
Si 10.310097065280075 9.20024968919789 12.192622304030479
Si 11.214991153158328 8.280587140971484 14.46395905283477
Si 12.86803544792838 8.532147495979403 7.636658843830632
Si 11.576887038003258 12.039199748491837 11.084429757124303
Si 11.136437299754741 7.547290652848174 10.747009739951391
Si 10.098148453304322 13.209729134576632 8.850689991976035
Si 8.070080566818307 10.927003137876465 15.376849939681504
Si 10.83488089994768 11.349251300955952 7.70512318849011
Si 10.618068047523208 8.734411042011619 8.623942712044645
Si 8.869177776373695 8.94867276310432 14.217859646879663
Si 8.121209617470976 12.468471967055123 9.804509872616796
Si 8.576204451917658 13.01871426571556 12.029636044986312
Si 9.645709117669984 10.357089235782874 5.902104930953175
Si 9.992536306935445 10.670995731273145 10.067902117792988
Si 9.797698012080676 6.420524646431169 9.142050171189135
Si 9.317477632132091 10.159679134095116 3.542596264203185
Si 10.129547098931987 8.156919770578593 4.935236920959854
Si 7.568401016487711 10.145484391431113 9.934106003556465
Si 7.535597968865436 11.284351234628613 13.138150577149005
Si 6.142282124494853 9.956670279714233 11.770846771529609
Si 7.7658153411328055 6.605794662479658 10.415066469939019
Si 7.815394385778518 8.378915034275144 12.090390737758984
Si 7.339275379564523 10.664215460064353 5.110254612956907
Si 8.130142377295156 8.63792709705635 6.323395888890212
Si 7.72751376169395 8.398803980922882 3.9902093022590748
Si 8.047329089556161 8.217112560955105 8.65278258597956
Si 12.497709749263228 9.668716044337925 12.851318421830147
