37
Energy = -172.39847263 eV
Si 10.037494294022851 14.84839727538479 15.104525568933704
Si 19.47080953824894 17.457091988581585 11.607709924080957
Si 20.449192950454567 13.710064179610454 14.471654742764562
Si 14.002688037647516 13.499595730183506 19.233550580427618
Si 11.438085831263281 13.126671987590473 17.450667429712293
Si 15.081228417243816 16.859764565624353 11.642784012806699
Si 18.299964868001016 14.337088214271617 13.593006574856476
Si 10.926880550553516 11.074217723392966 16.03114149159819
Si 19.022154420307455 15.121010145105107 18.594836250046562
Si 15.867961827845683 12.19273966401741 17.911366424205067
Si 15.619792780013928 16.414146473802994 14.068048454337857
Si 12.769308379137865 17.327992405072962 11.227371440375466
Si 10.704695475623 16.001712080721614 13.167899247992601
Si 13.231809206189286 15.970634420521906 16.234511895199184
Si 15.407572770999677 14.548196750353092 12.220363260811304
Si 16.464642452437733 14.321275960225954 15.054993556286039
Si 12.747567080736045 12.495263404206309 15.543180090615765
Si 14.703221830377043 11.369392354646296 19.79411092441193
Si 9.222919480100204 12.750324709993599 16.044552991209375
Si 12.597452669921816 17.386264278685953 13.5228678959829
Si 12.42074834080081 14.629161257975175 14.489988789791852
Si 18.281204405825086 15.369695637853134 11.444933469779393
Si 19.948786982758186 16.031193842845145 14.539946365915855
Si 16.321391601075362 15.353833683847585 10.046712511933224
Si 14.136174993982733 17.929770216914513 15.220718139181045
Si 14.815259106296391 14.572435418064039 17.29081352791927
Si 12.178211943940196 12.079313009857211 19.469814281561145
Si 11.034334954616526 15.511645054283528 17.229019875891073
Si 15.063388090813282 12.569490912310428 15.755633577839676
Si 17.16456666680536 14.197986905933071 17.45386757567781
Si 19.37297405109039 14.598741776052133 16.43882259562848
Si 19.748612169332908 18.269403009510498 13.922878925905824
Si 17.86381614044488 16.876238880488284 13.491653278643932
Si 17.13635184393222 17.626588358874017 10.71425861290756
Si 11.147610584398006 15.463842906222785 10.809330858232475
Si 10.751092198123002 12.636467393282226 13.987033553356888
Si 13.000891623840797 14.966610696883109 12.176608795969006
