34
Energy = -161.79632442 eV
Si 14.565720373231976 10.678129449703915 6.213402264556588
Si 12.77892827617107 12.05860894358345 6.985897198852579
Si 12.707447327286783 14.479356616686268 7.337958229986863
Si 10.861894692731985 10.8913538488012 7.618870503050908
Si 9.364869830320332 12.728307820660278 8.139927331849384
Si 13.21827475105079 9.319038841202923 7.6639814323325695
Si 10.927020497316686 8.57597441595403 7.469157534731665
Si 14.66642562200498 11.160105326972705 8.575371150681113
Si 13.661402330223748 13.21000556444718 9.06018880716317
Si 11.007723436477097 14.2498730499766 9.037282764217922
Si 10.59647486537126 11.720439224529677 10.022025139236593
Si 14.478173421373059 9.027682856029454 9.636368002906629
Si 10.56651124065719 9.237260130169146 9.766638433408266
Si 7.972333816520685 12.252173858246419 9.983834381614248
Si 7.276659578703369 10.098177621613761 10.506632830813793
Si 12.325210394606293 13.225363094144374 10.97514350929901
Si 11.024869766002643 15.213743042579997 11.243086664242329
Si 8.622435500839659 8.13946129952247 10.626595713439864
Si 7.023512782622809 13.830610371937908 11.48665584841644
Si 12.561005833526407 9.214252965070159 11.10736791739495
Si 6.95678292536928 11.545260333374582 12.246785758217012
Si 9.350597814371518 13.68673133101423 12.018379142634066
Si 12.682128761374942 11.278088453924491 12.266157661211059
Si 10.18953010404061 11.176832458678108 12.430218846958935
Si 9.44763379714139 8.850518675153287 12.765137525514413
Si 11.745360373098839 7.8939943080718455 12.944476137870772
Si 8.255681511122056 10.880297741813877 14.070164216584526
Si 13.234663262652546 9.315763558516515 14.424535428194634
Si 13.963356656979585 11.559664420771965 14.256829068797131
Si 9.645392140741501 12.78950116339331 14.266061084308287
Si 11.606258804237138 11.427541205059098 14.581191384544123
Si 8.424498236879694 8.706954531414448 14.936905324114297
Si 10.815493053872034 9.17578470546533 15.007967717106103
Si 12.415612766062148 7.343033316499105 15.268689590731862
