38
Energy = -179.38252869 eV
Si 11.027648641147898 10.278884785125149 5.2274515209217
Si 11.345982787501987 11.793241199589795 7.1100479113752435
Si 7.297793762280687 8.559068155447864 5.802363222663898
Si 11.442989941323832 14.118124230083058 6.645265596366219
Si 12.754723814960425 6.860034291834978 7.643200540792672
Si 8.536453522199018 10.389689733983271 4.5340849930386895
Si 8.999534470969584 7.236538785119182 6.808229985548067
Si 11.114931263744282 8.246807825377655 6.4972154076462845
Si 5.711787475944171 9.268613375783174 7.513542812459076
Si 9.119902079406007 10.880472079019446 6.823401012981432
Si 12.62891361969551 7.519113428210934 10.046398114989332
Si 11.178278949983444 10.942392200473428 9.33052087638088
Si 7.56198473681446 12.386326446264615 5.693738515413755
Si 11.256866245524298 5.547069386238323 8.971793302919481
Si 9.301889947663462 13.37015513441715 7.033543673078411
Si 10.762041630142944 8.365335349197455 8.832194348605933
Si 8.92131997026679 6.096834145840022 8.851435899795497
Si 6.40789006193339 6.079077266651289 8.64560744935807
Si 6.683143728186739 11.40324754147371 7.721635383078249
Si 8.012917300729029 9.221709235333924 8.076236761479153
Si 12.44805049758085 5.30349058108083 11.015006648046047
Si 7.398357188055979 4.376167914390017 10.038419360055
Si 8.868190157597056 7.4038650022990105 10.91593495441383
Si 5.257734011215466 8.01144474512552 9.646312105484771
Si 12.603193302622294 9.788417571796774 10.895468231754679
Si 9.179514507904731 9.697390834553241 10.074039213062107
Si 8.748215101986185 14.299624366733699 9.233979509511526
Si 6.080517254725976 6.152267989283345 11.157825007976326
Si 7.013818577373416 12.695935313373104 9.670441818148872
Si 10.3997087645969 5.915019872819405 12.02219603701814
Si 10.568714496659362 9.87930342411222 12.130871316248289
Si 9.725782404742183 12.529725335619649 10.436031844484924
Si 6.85941622205611 8.857181765657188 11.242459274742867
Si 9.880584150159967 7.882067768849198 13.175755698615895
Si 8.073029277079076 5.1978700407669844 12.331103072560778
Si 7.487574076777848 7.488181004764785 13.139663006199168
Si 7.625252201195004 11.14338461188475 11.383418665595382
Si 9.419697650326137 11.947223663257553 12.739566960060907
