31
Energy = -145.95787877 eV
Si 11.468842125214614 10.446718686462122 6.64679900191246
Si 9.908484544866889 9.37058835618834 8.213126641586271
Si 8.694465073686077 13.625085246133608 7.494794443746028
Si 10.480979251457887 12.17239868145658 8.073720247674327
Si 7.634672982812321 9.988299242004828 7.404291872443234
Si 12.818763832272454 8.978357527618076 8.107296442339663
Si 13.26833782445823 11.503807943321894 8.082519831231108
Si 8.064000529021792 11.856989078304546 8.963168038973055
Si 9.892746265215285 8.096103050715945 10.372490955577712
Si 12.809751084642897 10.446891584402124 10.20606177323262
Si 10.439747011212548 10.806894248019413 10.21333704553715
Si 11.199439367508706 7.129361304463264 8.655356009154138
Si 10.322233143066645 14.628367736180085 8.945971379403366
Si 7.626504136500555 9.344950211993183 9.591682029617965
Si 12.14771415369963 13.12944893613033 9.537201637533796
Si 12.45746508422231 8.012120598660845 10.595755486907047
Si 10.387596688291273 13.685359948388012 11.12174465560291
Si 8.654622958108202 12.002452960271949 11.261580333542772
Si 7.736457494951912 7.848131598198319 11.357210556110331
Si 14.146711359921918 11.603256096613544 11.870514381408208
Si 11.95481204877318 10.669961621081294 12.713882836993006
Si 9.105392611198388 9.592061461231976 12.326222087357063
Si 11.144809784802177 8.34904380171924 12.690716369696883
Si 11.108794866404969 14.470531016297413 13.250305591750294
Si 13.082439191942468 13.161035091094057 13.397545499208531
Si 8.19391474819806 11.387248751818314 13.538169531839644
Si 14.149486893879898 10.580876926664118 14.036459942755235
Si 10.454257860821809 12.23194455168021 13.75926404855163
Si 12.50978071476389 9.025412698708292 14.70073972909363
Si 14.088565190505015 12.508897543355666 15.449257205975337
Si 11.986313340551705 11.28550566379628 15.360916556218905
