38
Energy = -179.6907264 eV
Si 8.84514228505226 8.425096730219568 14.09358789354654
Si 10.396736753411316 10.199528568222982 13.194162526690103
Si 11.149832920411386 7.910855462418396 13.142106571175924
Si 8.199647128571863 12.375529874400009 12.040505687129297
Si 8.00733592063976 10.054901679895135 12.473734989591122
Si 10.137741667593776 6.544314282736696 11.407107464428307
Si 8.002186785113711 7.326206528472814 11.979844822575757
Si 12.324017700302567 11.691873999986884 11.206604538710458
Si 11.359704307506238 9.424029676506352 11.068564168281986
Si 9.064913612718101 8.823231083146132 10.3336232715233
Si 7.419293874208504 10.677466330411672 9.860683791581831
Si 10.202379156823298 12.767083738247493 10.898789634157238
Si 10.767621861915678 4.822623033895126 9.993334076019146
Si 12.937641456167835 8.092216062727951 9.752541858469526
Si 5.022510900022178 11.173289287863932 10.108862543680798
Si 9.694581771958752 11.285780537142408 8.86357537501055
Si 6.684529543137337 12.923966213673982 10.366902353582928
Si 5.903972862051 9.39500331132317 11.402913716484099
Si 6.217382969753622 7.212654918052608 10.348690623215298
Si 7.25308239116079 14.240793293356635 8.415014190466634
Si 8.691089759974224 6.3470523317836856 9.463440957235463
Si 12.15024068698294 11.356355018829479 8.84060327061139
Si 12.589447745146677 5.9130828936469175 8.84805599973041
Si 11.193062985513683 7.861264820764197 8.09746517430516
Si 5.799271515016313 10.342704009931916 7.877508946760265
Si 7.243678474850773 8.491074073713975 8.42758080060902
Si 13.150374664669833 9.491394973418839 7.851771901509222
Si 9.538931934813306 13.74440055745954 8.890434628248565
Si 8.978261442665028 4.2521109972312345 8.477259655681937
Si 9.435831476658853 9.277561261338146 7.5113864264845045
Si 7.4942640316316025 12.026293125098334 7.577494948702639
Si 11.025113039765637 12.782380762425484 7.295263353358702
Si 9.566018249596844 6.185929181036145 7.111849745074008
Si 11.88350539598651 6.229693561774848 6.448571983544355
Si 12.108613956656338 8.582135654556277 5.851368043614617
Si 8.017461730924163 7.777476773140314 6.16251351572582
Si 9.315394839309631 11.487378012780805 6.144270162679034
Si 9.718313730897144 9.32406742171841 5.134234480654314
