32
Energy = -150.01520199 eV
Si 15.841531965303009 15.13595158143301 11.693472959510522
Si 16.590925329180465 13.699649479510937 9.701467609441172
Si 13.574318662224673 16.220613872279046 11.554805010712336
Si 13.939865071399138 14.209138785517565 13.132482595371552
Si 15.442212193027993 12.746853275563838 11.72941779113863
Si 14.47513491622565 14.908626613596464 9.542947849859532
Si 10.751526078932336 11.400516786359104 13.191851564236591
Si 11.325809353738634 9.082783202328915 13.588656337231386
Si 12.56708905101088 13.644719660330338 8.991532849666378
Si 9.737818865363568 13.399438444857743 14.046555082003076
Si 14.620126141582633 12.255598989508533 9.412386823494638
Si 14.167946918066342 10.733884316818193 11.403014467370292
Si 8.31267191944149 11.68176722188776 12.845184561854163
Si 12.646865798392955 12.371407405904064 12.090388392524453
Si 7.683002068344744 13.955696107707682 12.802126907753522
Si 6.9959677209492 9.845204436950532 13.627107911409103
Si 9.748628345100743 13.933187287072533 11.62323063402765
Si 11.978346399137083 14.485346361353857 11.136916466802573
Si 14.269713304231466 9.830272487222205 9.181259070120577
Si 12.769382087681642 11.5683543987984 7.833043361078882
Si 9.914562133400446 11.6718421056323 10.88787378214057
Si 10.250732138468873 8.485536291160855 11.512967969476156
Si 11.932427773493856 10.58364501082907 9.840154093717059
Si 8.954814612836687 9.8026046545742 9.799260372188318
Si 9.02837040553857 8.667639834137532 13.72816668267514
Si 10.87748575704243 8.391098939284747 9.146365687946084
Si 7.571482316948812 8.761271085773934 11.582549106860819
Si 10.104689355414257 6.292532990871563 10.236258712173155
Si 8.68891236016054 7.48442341812554 8.39667601597227
Si 8.759687913584322 6.624150958290946 12.282567799827667
Si 6.80678664973492 8.864979495774339 9.268446279023637
Si 7.286674995505837 6.629016030201826 10.297681328116921
