37
Energy = -167.97773463 eV
Si 15.306537826177534 20.646648105986497 13.91892372022258
Si 16.572503924916024 20.682105929248053 18.28384581006918
Si 12.581616376468215 9.788176502406186 13.481628920835668
Si 17.11232356585066 20.380391249013044 12.382603114986104
Si 15.70766315621446 14.366251846353052 12.778524981929499
Si 13.298696929335922 19.53885924704592 13.379529455393959
Si 15.049456524532848 16.52813143981005 13.37776865976677
Si 14.453223624276701 17.837415731475925 16.62519419619193
Si 14.481240807764598 21.802637065272638 17.310959138188835
Si 15.450529513942303 22.458094300908773 19.367426410008708
Si 14.577654630858207 20.163678785473156 19.447364499303582
Si 21.018138934042565 10.961308113788883 16.14729147303104
Si 17.884621066006435 13.557319905259677 17.996294238567064
Si 13.080897063912758 19.755267267976475 17.58583644790132
Si 11.856913419110398 12.131552639082662 12.847172806734214
Si 15.569891297068848 19.88196791681146 16.153415054431317
Si 18.52270113334705 15.838052109831825 18.03020154262524
Si 16.88700527079615 17.139956426919692 14.751970397666675
Si 17.953701142619273 19.29908847743615 16.957492748552692
Si 13.9180754901444 12.95829387314926 12.246325882430881
Si 20.107637698228196 9.814881283525784 18.169167619271402
Si 16.818216511499188 12.040268693658144 16.634613275330445
Si 16.63599259057285 17.24160718446806 17.252021747737427
Si 15.297705508257769 18.705061897550927 12.309169188025507
Si 22.011403200424386 9.142055096719355 17.102501359464952
Si 14.622853444126688 12.055162899190504 15.948394965184773
Si 11.19516211495981 8.131871496565934 12.883103677683845
Si 12.170226751818657 17.530223332822036 17.4518012586357
Si 15.754132908389453 13.909758269468275 15.081344446449325
Si 14.393842892156838 11.23211142262175 13.732542272756008
Si 17.475776671409115 15.2246999424002 15.991434579834692
Si 11.869157481562482 19.333928457935375 15.488385153192581
Si 19.068816803607504 11.688418883521898 17.22257248675168
Si 13.200813526481708 17.297233922543747 14.693700045249944
Si 10.908720764946743 10.221361216705976 11.806261487513185
Si 17.48309989168338 19.39912813077923 14.536418152004325
Si 10.919357709728938 17.145592419093745 15.430774711296289
