33
Energy = -155.80062408 eV
Si 13.707397772635943 9.95907075433694 7.5852641693307605
Si 12.109953086936999 11.676767648630817 8.164796991101449
Si 10.289067259378829 7.228525942917276 7.239523676858817
Si 12.060010504880841 8.40372569973447 8.259083577368768
Si 13.080137993489677 13.263430609187685 9.605135034760787
Si 9.850182818028905 11.40296293786903 8.82415460565298
Si 11.500730586853795 6.221898999951403 9.31577517573969
Si 9.876613749964116 9.048317350906215 8.93552249717501
Si 13.961116924554139 10.637107976848949 9.867688258047378
Si 15.370179112934812 12.591540247176603 9.8298036659579
Si 11.563020857923254 11.63702013941251 10.661545803434059
Si 12.015605009871475 15.289686209474901 10.248918323353928
Si 9.581589519955536 15.169994250568005 10.490203051722409
Si 9.06549100008011 6.798152848978826 9.244535042684342
Si 9.524687805547863 12.754152513104602 10.770456575917411
Si 11.051088355219933 8.131105648050445 10.744550680754347
Si 10.663399060392045 15.040184037798154 12.528432494135341
Si 12.586839904298918 9.768580530739465 11.642500968464093
Si 9.491385077201212 8.74802693986355 12.500074985599408
Si 14.616559751223399 13.296419627059043 11.94991505606145
Si 13.24707031368425 15.58823079023634 12.25713503619281
Si 8.960619092648662 11.101907264524149 12.417951007467604
Si 7.251109045434117 9.582253398601555 13.273984775949934
Si 11.833328282249399 16.263538681631175 14.11294287575772
Si 13.33758888286388 12.316379963170597 13.616354889496096
Si 11.364934572540609 13.61130954345492 14.264031439803572
Si 15.347813962205285 15.193001721857113 13.156178781905108
Si 10.641027122096093 10.244670811217874 13.977519944037677
Si 8.929541820922681 8.715200818039289 14.874356403591094
Si 12.994224545897403 10.001016016742978 14.025517536826202
Si 13.815946266415185 14.300355927625526 14.81361375087257
Si 8.51561223657188 11.167781649993943 14.821588425793053
Si 11.968644867674312 15.020199662871853 16.1534616607626
