37
Energy = -171.66109859 eV
Si 19.834629655486125 14.755694816573703 14.638067212494388
Si 13.395206940563167 15.925810002821118 15.66366409932974
Si 17.453178188136484 15.729195855327573 13.937731171194741
Si 20.35091128254229 12.490311641714134 14.33303844817499
Si 13.094871400452043 10.843152514014633 17.75823505652471
Si 12.939475400246584 11.371049397305049 15.41603078944411
Si 10.74066876903962 12.648264188373096 12.706942629217721
Si 16.99470278390646 18.854002467162662 12.999951390084314
Si 18.016248932344 12.983188043347441 13.80611734210888
Si 11.655937506447964 14.08531477937079 14.35173260335172
Si 21.519846394305958 16.636614767455455 10.704769818571382
Si 17.44806534526858 17.956310187140726 15.158930915787554
Si 17.86850735565604 -2.3397401745061046 14.549301320402042
Si 11.785618696209731 17.010375572172304 19.100161221199574
Si 11.326147739623904 16.46866462542558 14.635137555771882
Si 19.571539928982613 15.091631743035322 10.502407712508997
Si 13.402768452599178 15.495813717265658 18.013228200419693
Si 10.79524721080009 15.175745203494346 20.473959922762603
Si 10.86296262112671 16.238918381212027 16.922495646744288
Si 19.829920607927956 18.150869399919216 11.648859677489446
Si 11.255836491564766 12.219139841830277 17.172769209707816
Si 16.176058970983796 13.88961876574646 14.954755672954215
Si 14.143586017956832 12.960058956071126 17.467203311461585
Si 9.419026972931256 15.83032702710304 18.665569137252024
Si 18.651029854284523 16.134200018916033 16.210001936674352
Si 16.69675973205871 14.885062590926417 17.00949318184732
Si 20.302873682238076 16.052903286422396 12.682830796292619
Si 10.44388752517751 11.946591476278774 15.006656393351289
Si 13.883993935496758 13.574855306228525 15.109786829808336
Si 15.343207663148926 14.352393816803145 18.965742382013357
Si 11.790575626456192 10.634019486837026 13.537341102955407
Si 15.652756440471064 16.473480058981515 15.578324601766338
Si 17.482089157817974 18.606806028687163 10.714018167345978
Si 11.323281615669117 14.28826276778268 18.33615625340897
Si -3.074956385159899 13.529431689976562 12.242703816210517
Si 18.94414391597796 20.20209875220421 12.303931814603855
Si 18.006278104973504 16.4194778737768 11.733075335281153
