35
Energy = -166.11280665 eV
Si 11.655484734286699 8.601922302161192 7.50049087850976
Si 9.281129193306608 12.320809690029863 7.7621725350189195
Si 9.81676141032364 10.020060056473088 7.978906708185085
Si 7.746689632624652 9.027177017644485 8.643538527305648
Si 13.338244579014718 14.4200604848505 7.501835531194638
Si 13.967378819258368 12.285411546539063 8.399725232265531
Si 12.784589991900544 10.194500336834897 8.887289861358752
Si 11.120641904593603 13.712632879952926 7.945894180842301
Si 7.626344241247711 13.019858908923998 9.374836183731311
Si 10.977799422646255 7.778327210273754 9.649646831523585
Si 14.753916257379919 12.078184113531291 10.58043901879036
Si 11.117417315663516 11.851867537392614 9.547540624045917
Si 7.121647536509885 10.801308888697118 10.099321233984863
Si 8.667278427660277 7.167395002871086 9.977015012662351
Si 14.449841087165971 9.764135251072194 10.531784223495336
Si 13.389811833711777 14.165170401820689 10.033545445309015
Si 11.598428444595436 15.717005921757627 9.225459685169048
Si 9.344367855585126 9.534457948906931 10.540748739281435
Si 14.934841456823515 14.065315845864571 11.884246408901456
Si 11.023657824485063 14.063678159313795 10.83424967888248
Si 11.895192890321324 9.572583089777451 11.164126295090762
Si 9.211625625079547 12.26062207883177 10.955859342259672
Si 7.5427533095288775 10.090550321685791 12.312439258706783
Si 12.831560343861144 13.095899692767814 12.563861363564149
Si 13.743103240020513 8.813168834072485 12.595998431935904
Si 8.277685563198899 7.871996698151949 12.245847645523163
Si 12.258286239815995 7.155479137234128 11.596464744741173
Si 9.730943728168349 12.224362589823945 13.203004957759319
Si 11.786969208844152 10.963467337501632 13.055431963682985
Si 10.91217907072538 14.358690357766568 13.189702871549168
Si 10.754208700299825 7.638316756877985 13.329034185943035
Si 7.909070881121366 11.169392834383265 14.361184857589949
Si 8.745505969426254 6.929789956057585 14.35949860773288
Si 9.300123392948498 9.280131831843095 14.616450319725201
Si 11.660799267606993 9.262548378062936 14.828688013488305
