34
Energy = -160.70487017 eV
Si 12.14861952084969 10.401038967286619 7.437245698087419
Si 13.260770865313189 12.509950545955402 7.742026314904767
Si 15.548900441154974 11.654818906706412 7.767494162531273
Si 9.985816547612856 11.19914387396345 7.909594802871973
Si 13.090104161102374 8.469938220747744 8.573938119977223
Si 12.203299514155406 14.644830578655213 7.4049973772116955
Si 8.195168745285988 9.932089471477507 8.59795328471191
Si 14.282979233578319 10.351462316478049 9.366789428163163
Si 10.206227510624363 13.505495130129557 8.261544634704922
Si 11.943544118318913 11.689637840574951 9.756568061509782
Si 9.220605623736635 8.21520679734048 9.97156421838394
Si 11.556785156858822 8.7088964929849 10.406609254681356
Si 15.166264391444233 12.817699084026001 9.726369379699292
Si 12.856726169070216 14.156545756006032 9.703945063381589
Si 8.724606399790218 14.268062517297103 9.929561900491178
Si 6.319567357039581 10.693353234512712 9.985423495067987
Si 9.951327283211876 10.544450432736268 10.470356616410752
Si 10.841398327291317 13.630260074298508 10.791725944973567
Si 7.787546777520699 9.45375442525014 11.381195753544796
Si 8.051869509275509 12.106975994514 10.88739149871196
Si 10.45212836720046 10.774550488876868 12.790356260901822
Si 13.647717417083346 11.464920315536757 11.45426811612433
Si 14.409713392857789 13.845457640770723 11.598081906961706
Si 11.830204861128102 7.564583336552575 12.474172953670081
Si 8.474423782843974 12.356948939008163 13.314026671315101
Si 10.636952121524494 13.227739002020577 13.116969173267291
Si 8.421442412643007 9.741796728661162 13.68591968051272
Si 12.032634724077063 11.762717778082528 14.374029193656009
Si 14.125510009215084 10.80354404107932 13.7350570853577
Si 10.191052281441142 8.161271922199647 14.044146115333259
Si 8.010398016144677 11.272892674147245 15.467031557368465
Si 12.577932488970808 9.031277549124807 14.137519638823527
Si 10.392968648163027 10.535284493355032 15.5350804726443
Si 11.353294991802032 8.401905597973895 16.099547332373806
