34
Energy = -160.17540348 eV
Si 12.01603266184276 14.381446008067483 7.603091800227151
Si 10.810377685670595 10.068605894595928 8.169928257775297
Si 11.261948743364547 12.392124375023318 8.72371490250723
Si 14.209517293256702 14.569013355183557 8.63594752063039
Si 13.487035823129984 11.63906873952855 9.009542443119212
Si 15.589906433500788 12.648357526901961 8.494072882762694
Si 12.177866769203373 15.765013658909302 9.45106243627483
Si 12.612589099940621 9.460463515189035 9.726593749328986
Si 9.80348322015818 9.782463715774345 10.332902274075144
Si 14.410616393557 16.724641476499492 9.609742390492606
Si 10.620808951408431 12.86349626189739 11.004452360483597
Si 7.605519071143281 10.26996427797127 11.221888810755585
Si 12.897691732544281 7.292822307442739 10.813961938762368
Si 15.02816654481867 12.74514446178688 10.837739794782326
Si 13.989632634148526 15.210238951670547 11.431346713017687
Si 13.951380704680355 10.547347388665859 11.379689286900582
Si 12.511796283477628 8.234256015263766 13.020297968427418
Si 10.564877058282269 7.754498702153892 11.320478453030814
Si 8.972708423208715 6.458773132347882 12.593595887791924
Si 11.52591651951546 15.065991758645163 11.65011368581921
Si 12.825684191144884 12.964629740301424 11.86592205142018
Si 15.508969379560575 13.938927043728121 12.89948612601432
Si 11.447642550991837 10.680441420429633 11.8068638332158
Si 12.959003926152905 10.516852016362044 13.752083279547332
Si 9.57177236104741 13.241272391444864 13.099131830780903
Si 8.24930041813044 11.224459823434717 13.255936363116623
Si 7.96422977844528 8.65277276597949 12.93506815953554
Si 13.579660383481654 12.900750910099905 14.069659672227273
Si 10.386957359129813 7.839210283507728 13.863717793930885
Si 10.345075105051928 15.409754134205974 13.788112688151195
Si 10.783543808716376 11.289565706579998 14.23853569705267
Si 11.40169759651056 13.532870615742201 14.991613050358815
Si 9.394984747877919 9.58951692851533 15.08605578773767
Si 7.053368197484484 9.865006546728779 14.837411960523479
