38
Energy = -179.72505915 eV
Si 8.34610424646128 11.018724564540692 13.732942292924896
Si 12.677775433869366 11.04688235000702 13.4641232861457
Si 9.05329699322959 8.779318570544998 13.07743326228508
Si 11.435614722988191 9.009821072501145 13.002327518177287
Si 10.507327103709539 11.957711241486734 13.481210281003365
Si 7.093339022106113 12.629322148514312 12.273859497495822
Si 9.270819077582773 13.768510307198827 12.49470141787675
Si 11.89651147995463 11.356453014438813 11.209122855821319
Si 9.436913446298975 8.862712502855478 10.48903983032129
Si 7.624764076097215 7.598508468005625 11.56939974670948
Si 9.19968930042741 11.160925773158969 11.420617662207679
Si 12.294467554733892 13.060045064033007 9.595425156454477
Si 10.49438616613356 6.917552500635604 13.96741279019088
Si 12.207439309176364 6.852203594757399 12.134407184947943
Si 10.01200249667566 13.243299398929652 10.284652065955138
Si 4.582094194597978 8.02590495028216 8.638476778049089
Si 6.959083321782979 8.353026541896838 9.349215605983686
Si 7.794894363105539 12.458480345981727 9.926399404665712
Si 9.708870886329024 6.363536207453799 11.726324062845954
Si 4.973413604118271 8.682135068130563 6.365056652403666
Si 9.573701037035548 10.103529947405569 7.9068274593322245
Si 10.924616913268068 6.923320218782031 9.700324634820532
Si 7.366302123201494 10.565234354221381 8.531177677690163
Si 12.044258766995615 9.050511886569543 10.642835978984989
Si 6.691240941414374 10.342520846714114 6.266621793301284
Si 7.865567675626885 6.7827469163186835 7.885959899940408
Si 5.6096659106104685 6.402215520740272 7.171277163441328
Si 10.242254194544595 8.042604902277771 6.806627705053541
Si 11.536729932557376 11.384695885406494 8.070341697843421
Si 13.189589666387352 7.634310732080101 9.176311408775591
Si 10.05144612409812 5.852434126869808 7.759304117986983
Si 10.773069988451507 11.523518793044827 5.813016166275886
Si 5.377549323776442 6.872905446059482 4.823919376025201
Si 7.3515355642624 7.8392821500004395 5.815143198978736
Si 12.334909841017502 9.208575615617733 7.515446127315517
Si 8.964855467566316 10.011926063323218 5.457145348358985
Si 9.899885169255299 8.05753144598972 4.430316643333921
Si 11.798561819549017 9.443560170658829 5.22178571999038
