35
Energy = -165.40319281 eV
Si 10.423336213590215 12.92496917412629 6.2094857694167915
Si 12.813414627643601 12.671270013543376 7.0058390962961665
Si 9.04707260321037 11.290641256724903 7.597438602678402
Si 11.414432259603906 10.976027626579437 8.210153389283805
Si 11.486971256545901 14.725605643396078 7.5540711748157525
Si 8.807524324482216 13.794309437053117 7.791357552031047
Si 12.206786745120484 13.064741087618884 9.272287985784663
Si 10.79774078528129 9.811990926776197 10.645850776745302
Si 9.768243089841794 12.158321913414413 9.685061302471071
Si 10.275703989598044 14.500318961332962 9.630203108804924
Si 13.319986184312647 9.864413464758277 11.136823600566442
Si 12.25387261847144 8.821794236849483 9.17420172318405
Si 13.38450888838361 12.913171063571767 11.293266768950122
Si 15.200051279932719 11.412695705512625 11.159909016626179
Si 9.225535444325274 11.091032711801443 11.771697736724464
Si 11.713534583335845 11.535695058560934 12.206438136512226
Si 10.798670759136023 15.104081288413928 11.857218312396133
Si 10.005638869404496 11.930638996282285 13.973165653381042
Si 12.13427137469775 17.09169255588062 12.08143667611462
Si 9.371943682070484 14.290289541460295 13.684455690509411
Si 14.6970812289628 11.14165229349656 13.484036966309816
Si 10.18886229722667 16.836095340105462 13.609963089052076
Si 13.626409443310202 8.850037007695539 13.32142973577975
Si 12.564235570103213 11.553656418311979 14.48821608986639
Si 13.06026747688009 14.902700141142754 12.53569503875055
Si 15.215557393589313 7.0943958277783254 13.843385268500745
Si 11.787743424267317 13.870789508809539 14.392142156537416
Si 15.780701321302441 9.23183729204137 14.673176163094674
Si 12.574513561597174 16.41965384021675 14.50060194898322
Si 15.87838951717733 11.356958315733136 15.63034196662528
Si 10.48042727789853 15.360959235514034 15.633055574249942
Si 11.868873794007007 9.240516251452965 15.016228359922533
Si 13.901300219033368 7.780215777831424 15.672920809211636
Si 13.890227266721398 10.258875627229143 16.38355719204416
Si 12.512756897702642 8.604542727752161 17.35147383654781
