31
Energy = -147.03479235 eV
Si 10.707146324933484 13.24578077979852 7.38700893931484
Si 12.453665318226344 9.693322912271638 7.154058770328356
Si 9.135721514893087 11.465960043280568 7.343978825559253
Si 6.744962049647503 11.339827417443363 7.073338913694199
Si 10.327908756960754 9.352854925964852 8.097851819111506
Si 8.882424075591121 7.47149390523916 8.430570910889754
Si 12.167270706866523 11.673084727230277 8.494504329630121
Si 7.7794912789760895 9.555189082993447 8.235792812031354
Si 13.464397121405899 8.528156924177283 9.013555944700617
Si 9.605525768874367 12.919251411337319 9.4609373327154
Si 14.259547811601047 12.220546947213686 9.540888954754404
Si 7.507897416045127 11.691018953124532 9.371345117688403
Si 10.528461006673187 10.78216788442975 10.21803335204296
Si 9.773942257802977 8.375651782964256 10.465382435718896
Si 14.462221198906017 10.056164800467757 10.45882647469348
Si 12.09870776877685 8.596358248676585 10.86358174527036
Si 6.742353416190175 11.203540628990154 11.591929707040414
Si 9.481561148781278 14.324795407661577 11.399653194564308
Si 8.791513964336993 10.047070388547064 11.816695027298676
Si 11.708240600941433 10.908901197583132 12.267094170463134
Si 13.455324344209174 12.643859424550635 11.661515137875638
Si 11.400978158922802 13.413676875115224 12.342948380970169
Si 15.535919293283943 9.542735893415719 12.573557576412716
Si 8.435588675731898 12.536213038771937 12.588838362611405
Si 13.318206892551407 8.802944118568565 12.864400170773829
Si 14.122524596143148 11.271429316794972 13.45353808291506
Si 9.796408686944762 10.23762735062722 13.967494038322338
Si 12.016423834049414 9.74348546940059 14.59542262785053
Si 11.153593390531677 12.41004694596218 14.467346031329287
Si 8.834401926091536 12.163780532714947 14.965971948064897
Si 13.10691527911162 11.582307248684733 15.633183449365514
