36
Energy = -169.27714656 eV
Si 13.721479472432678 13.188679516261473 13.53165885029339
Si 6.915235216703606 11.85404458994465 11.067000394534272
Si 11.609015642883179 10.581123751390226 8.667254628633732
Si 12.916632525991808 7.395023114901106 8.649345337848466
Si 10.862338554620916 10.269450620489135 14.549931957346402
Si 7.392545573185533 12.825998845577667 8.758284794566087
Si 10.781337738221561 7.7676478430870795 10.035882473059257
Si 8.946352870443006 11.163689559083501 13.535613772809215
Si 14.635936031007539 13.08071150883322 11.241654562216066
Si 9.452359436165715 13.038645225456609 12.231397015742859
Si 8.280395365447077 9.871814924964413 10.46654732595089
Si 10.217746109295502 6.815780562697927 12.144313384215017
Si 7.3831849973489465 9.604455484786405 12.743819863204287
Si 12.927390069337338 9.116993225968267 10.345087368964514
Si 12.240275135834116 12.288130215365916 11.63658571087624
Si 13.46771991566117 11.629522883339972 7.589073739286458
Si 13.559285145716554 8.793371387428955 12.62636814173974
Si 11.091559867005333 9.431346772160508 12.07859910880717
Si 11.463502352050458 14.278639044298592 12.972959023017042
Si 10.168039808162566 11.369396710221896 10.544080980988381
Si 11.856857580844958 7.526127810454415 13.677310724941968
Si 14.060760321299977 11.186440168634013 9.86056485787034
Si 6.331956517532975 10.579783464615895 9.146198288927732
Si 11.825374882943656 8.750072137374286 6.924703260124909
Si 9.200876712678665 8.306039471037204 13.682164244177082
Si 13.198061249770731 13.458475766435896 9.013514297994767
Si 12.884404279431502 10.937886633244874 13.521628342649946
Si 9.722428779826103 9.073260262308958 8.305449389460628
Si 8.110021673390293 10.697370314577688 7.406904723511737
Si 9.84641683130632 12.268359475781283 8.017761082915253
Si 7.61203574981861 14.175394418156433 10.843916752496382
Si 9.772436852847044 13.800038106904935 9.764045619201594
Si 11.900210149080202 14.620667545040915 10.669391765044997
Si 10.666572554725224 6.750236575873015 7.8856812133464205
Si 14.254787805571214 15.19885082749335 10.072900711973793
Si 10.568410371233202 8.15047465340635 15.63635055144743
