35
Energy = -165.65967119 eV
Si 12.95909132502399 11.240160816692494 6.180700933592599
Si 11.019921408976181 9.618816079058933 6.334301037394683
Si 10.963561980078532 12.156014326216157 7.294235576998326
Si 13.119489675120843 8.947912168221674 7.2885333083027035
Si 9.23030687660306 10.485039932545801 7.862232938124064
Si 14.208203398307337 14.148676724431716 8.097395643829717
Si 11.838556673256804 14.031802677740705 8.551800491453081
Si 13.232630107883368 11.732425622478509 8.507774420176483
Si 10.844383161060835 8.640088938287699 8.666803247551561
Si 10.87482161319705 11.032107477939881 9.476697284270326
Si 13.509210513394642 13.52220029783493 10.440714527253586
Si 12.870985350329114 9.615596734926923 9.610226315049415
Si 12.058248413782488 15.531134792534253 10.292687621722292
Si 14.47752650159918 15.59404066822498 10.072838202794197
Si 13.072376766231299 9.140020647502313 11.973541189767694
Si 10.797292884134398 9.683315485107878 12.810671791282584
Si 10.758180645521612 15.567851673363165 12.341459667688865
Si 11.59468273667054 7.303075087004292 12.953766387168809
Si 13.893645610164318 7.023003877404451 12.899810506196518
Si 10.807005274416747 11.715743638022792 11.689357453881493
Si 9.30211000154419 7.845170957163907 13.291094216647286
Si 8.789623908378115 15.690726220177124 13.802333050563647
Si 14.223844250128149 10.663129192073821 13.451831834021382
Si 9.871658281910381 13.448388774923908 12.984018631795262
Si 12.955631299712877 12.33557037110246 12.375368791566537
Si 11.337050252561378 16.508688621138997 14.51022779936601
Si 13.477341175922515 8.531709362613238 14.707759068951606
Si 12.23818056034316 14.190943193488346 13.679057775573407
Si 10.748364748712495 8.579428851121346 15.051360424330696
Si 8.463521535275373 13.41578734684304 14.901811075476818
Si 11.990961568218347 10.738852586938282 14.736189677726985
Si 9.790428955059932 15.303025764524099 16.007474895416912
Si 10.856347917724502 12.865041762791648 15.224659132357901
Si 12.253483477990732 14.6856525581904 16.021228313558467
Si 12.312944659569707 9.210470280174023 16.651650276952765
