30
Energy = -139.3702211 eV
Si 11.997450984370484 9.646198359919898 6.145130028492141
Si 8.959286128921738 11.490347584188394 10.311605154999407
Si 14.466154379634682 12.877161716510082 6.603608080164755
Si 12.235850707189178 12.189161967298336 6.443134225375894
Si 9.988095461488095 12.838909406371233 6.93164011922956
Si 13.927384405726867 10.560257591028652 7.370972925020957
Si 9.82827676725048 10.508426704690555 6.772151171667083
Si 9.43393063421207 13.63783191999492 9.165671180471573
Si 8.78285711641171 9.092059304979648 8.268475327168556
Si 11.024369105879918 11.776012378653062 8.975551848266877
Si 12.58653946172228 8.075477057999695 9.903761901212995
Si 13.308426311785261 12.820420499104332 8.633513245751606
Si 7.148352170862277 10.157347910809941 9.609289582343552
Si 11.106335725274317 8.951363128493929 8.369770964616436
Si 11.70660925198671 14.162692925262558 9.831220864269163
Si 7.72369880860012 8.89839486053514 11.543270311933178
Si 13.080482207575415 10.391541816533024 9.636967873314275
Si 10.951660631032356 8.476666239886638 11.590220381647582
Si 9.364714904621614 11.779515137276805 12.5979273651248
Si 7.84835017808828 10.252549138814533 13.530244883111132
Si 12.035063151125074 12.855064949751425 11.763434398238935
Si 9.095599242239047 6.97580194961862 11.544959411216325
Si 13.510323154342716 11.102855245210323 11.8521143121083
Si 9.223898945421096 8.285920991823081 13.79518133809603
Si 11.554611609259092 8.242361851644342 13.969394454158213
Si 11.532540829233044 10.431697701656375 13.064565750007048
Si 10.996089621740316 12.756989293627441 13.884647282690752
Si 5.811411652276973 8.96646343287304 13.13745406683258
Si 7.2313321300120394 6.918200937454083 13.251321024789632
Si 7.226211121749234 8.56821479802342 15.188707327712917
