36
Energy = -172.58445676 eV
Si 10.831710663604044 12.248550910109667 6.4606177816451655
Si 14.413977168399462 12.748856503617105 10.674387517413704
Si 10.930408452230749 8.565961606826495 13.044814201691421
Si 9.083273883945267 9.453971660276965 14.943676906081537
Si 11.036169455583785 6.690497482740622 9.207282671748253
Si 11.197455575568494 10.433844420881925 15.209321933861842
Si 8.095547113718723 9.774162392472135 8.591985913036408
Si 11.214190488473156 12.783316996295339 15.53062880160136
Si 10.154465816165049 14.018214976928885 11.639433494037423
Si 12.058554203659787 14.624819720077573 9.260757472811267
Si 12.926489330861475 11.547667619519203 7.410681631756845
Si 10.257672004545624 13.373769513773677 8.519970953411027
Si 13.877584561555645 9.343999851511906 7.451164146179396
Si 11.650025344478156 8.593180502369547 7.855607097243588
Si 13.479500879898982 10.743313241404143 13.036765055531271
Si 8.413106329750592 13.812567604086256 9.973841102714259
Si 8.188808827021315 11.495684133225144 10.300987985505104
Si 8.426732287746162 8.329280312329795 12.075122813523297
Si 11.754339745949277 15.813458232622807 11.298562172282011
Si 13.063197016663434 12.8612077412388 13.977704624664453
Si 9.18647158924603 7.204654321994556 13.991665406224069
Si 14.015280992587828 13.478128260738423 8.444891764592757
Si 11.58329257475137 8.563662026806302 10.630521398813546
Si 9.135267510916973 8.022098366940977 9.821466494567435
Si 9.725799981018497 12.840249520610534 13.682288433339822
Si 12.841612406346474 8.95972605051568 14.454689380530775
Si 13.302119650611168 14.205984310608336 12.125983161619965
Si 15.130107763033383 10.594037605486205 11.309424440631027
Si 7.860627377375005 11.325613114953459 14.172413963397057
Si 7.183732885351947 10.335867629955777 12.11463022254699
Si 13.411705376794467 9.969513209935565 9.707238889896548
Si 10.061481366077116 10.195891773181918 7.324145309424498
Si 12.106767217198533 12.123441854926961 9.674737767251065
Si 11.724714254510666 12.144793163138337 12.010000124426917
Si 9.625678575564322 10.625098701100724 12.55002629333079
Si 10.265424826675087 10.368208164676146 9.735856170544523
