32
Energy = -146.5840007 eV
Si 18.87262865290751 11.705208194032316 13.936279076804922
Si 16.805466377699965 12.458494097357633 14.431669848562304
Si 17.086259104085464 10.478539362055987 13.138529518936533
Si 16.74977051800244 9.258067994888249 11.103407337301778
Si 14.521025287257135 13.013296679825132 14.574847669568056
Si 15.457916660270875 11.198510929779799 10.763164360011789
Si 13.79028923321152 15.292755445265687 14.791469108121944
Si 14.570182573304097 12.90316619573615 12.111515310388308
Si 14.671911344182478 10.710377801724789 13.392882092879244
Si 14.205216223298041 9.148597399735785 11.613279332713521
Si 15.391159576540154 7.21164388858479 10.921369686453488
Si 13.423858506782228 10.562169446531351 9.733251989151844
Si 12.124700125450993 15.447630740730496 13.073566641909348
Si 12.034089770116902 17.16729604114927 11.336301745415364
Si 12.489552395558013 12.25060478150598 11.146194527642379
Si 13.912380555995203 10.923100457359128 15.642419310764025
Si 14.038877043173787 8.150874956992936 9.204644640280621
Si 13.512551044501343 9.633055148138354 7.598754226922677
Si 9.04801272394744 14.326314827239065 12.580458235788921
Si 11.743017652602793 14.499336039118734 15.581111336045794
Si 11.564607873492086 11.245336256870432 15.316015970316537
Si 11.115469163859439 11.799805260451981 12.97794457610634
Si 11.163302482687984 14.156878812748634 11.36545172472854
Si 10.024539037732021 17.075033462369742 12.603426751621006
Si 9.996040488293795 15.662789421041394 14.513355957762522
Si 10.544104518721209 12.859179239662046 16.85344392355523
Si 9.946431799802914 9.985776990788148 14.026500164972989
Si 7.986614329720912 16.27714496258492 11.588434196934614
Si 10.160174612567342 16.082202850670207 10.243369025687855
Si 8.674592086454505 11.86980230872735 12.873536048339526
Si 9.79418103936263 13.06458619236281 14.643680930638663
Si 8.090027286141149 16.2220667509775 9.263475719894364
