30
Energy = -139.92665878 eV
Si 9.452261156475792 7.685198983012389 6.748028290684422
Si 10.676556247075048 8.694291831105009 8.538527344542553
Si 8.648390850441588 11.949198728606941 7.3419220007741615
Si 8.163468302426947 9.576471070973481 7.606726201605126
Si 11.001169162108885 14.796672834145237 8.30331080450706
Si 11.076412259276212 12.415956803144613 7.593540604420649
Si 8.611187860239397 7.19082062946963 8.965379904289822
Si 9.795784531474837 10.807457608042618 9.15777034746659
Si 12.387025806674794 13.60996958127439 9.722505381961495
Si 8.159398223832278 10.671148149879224 10.873172971644951
Si 7.878691484984843 12.804989902105136 9.551977624298534
Si 11.355599159861558 9.361999700227821 12.072249821962117
Si 12.736912129581436 8.833800560451754 9.925278227660183
Si 7.915166064455032 14.83641087735435 11.214329430857006
Si 9.889659946401146 13.811303157881714 10.247656444888099
Si 9.520962773005394 8.512009760996404 10.80806466274834
Si 10.860295893088086 11.966679876355768 11.488015419868598
Si 6.983584178468951 8.948148524000471 9.581817204295769
Si 13.09326232254639 7.091746381374139 11.610235486416043
Si 12.244829410290988 11.212632783370426 9.388994676665135
Si 14.49919219463624 10.582266578222562 10.073672551909233
Si 7.275180581966787 12.63231383100104 12.069844902487556
Si 14.219524500604116 7.7770386290735605 13.55504792896227
Si 13.243991594472309 12.219033133294383 11.607370962745637
Si 9.136092843723445 11.214168448637194 13.044922639649752
Si 11.76893168757647 7.742764218262025 13.800288987673385
Si 8.631369902989466 6.320089823277753 11.248779909869567
Si 13.731972817238749 9.805854538592401 12.236921095164307
Si 10.859153460406578 6.467395505419858 12.045737077956128
Si 9.444254889725514 13.722449786497164 12.838193328075349
