39
Energy = -184.65052169 eV
Si 11.625494183417747 14.953164138075142 7.320162033554987
Si 12.6020131031461 12.741154540490482 7.07371369022
Si 11.967221520526795 10.919507304187178 8.598664255093306
Si 11.880746969780171 8.528315800076372 8.678584120192859
Si 9.425332435098174 8.306442942322837 8.925800715104632
Si 13.720520265240253 12.15520417026675 9.46172738172639
Si 8.49205932517291 10.472733182417311 9.544986831528446
Si 13.708017687614717 14.38971770178374 8.354361286754798
Si 10.825321301397688 14.399088675265737 9.518131958460302
Si 10.11405110734885 12.157648882420485 9.299111210460694
Si 10.595605580059845 9.134824810129697 10.86565906884447
Si 15.84611536724083 11.327782884026924 10.023283503871287
Si 12.934619361572326 8.302972696413601 10.909678126186181
Si 15.316300363274946 13.311752397498287 11.251693017255757
Si 14.6183654176582 15.424951037054878 10.317330156365186
Si 9.048225427840705 7.25323269989 11.10457396400364
Si 14.399743297183107 10.188063781377648 11.616806423885096
Si 6.686292331562694 10.669979303536783 11.004515483930914
Si 12.78241862769799 13.903048649771726 10.843012353566301
Si 10.294461834984697 11.355871401928862 11.507023624608287
Si 7.683657932889356 8.894730642596093 12.171953339952836
Si 9.35733009659299 15.061107501401763 11.304423528559427
Si 13.056980336163742 6.43405666816436 12.390262623612939
Si 12.474731444975644 11.444112748281366 12.398097341846482
Si 8.263195571757405 11.394621046702724 12.701012298057169
Si 10.591590850654756 14.773727297612536 13.310444278351873
Si 15.232327530203857 13.76347104768936 13.59225726595722
Si 8.463572050771097 13.77990808407297 13.196640386419437
Si 15.722536707254985 9.434810830570937 13.493414007176588
Si 10.882953525541557 7.348601182606216 12.616233383982168
Si 13.56796342007248 8.495372178174916 13.579814257707104
Si 12.78185194232881 13.770119207698894 13.30617447081511
Si 14.688827577501671 11.502079148590802 13.94688514883408
Si 9.858752560288966 8.432856999479828 14.480649217917295
Si 8.897148376394114 16.389349283355394 13.52622299297043
Si 7.810641896925059 9.68871821547328 14.3497022438269
Si 7.201163932058692 15.46747542646336 12.040024541916122
Si 11.682418843526085 9.773923755570852 14.14741199599906
Si 12.527635892506497 11.88370773278659 14.85776346671024
