38
Energy = -175.22586897 eV
Si 11.470863072665106 17.62557118810821 11.931641009785933
Si 15.484778616699138 19.78406535442139 16.14011915314018
Si 13.11442280785145 10.578903288526405 15.049253677428188
Si 17.134702184223872 18.01612757842465 15.222532455314731
Si 12.973402089680759 15.690310604509005 19.147090143418914
Si 16.614445696197766 13.174426440728004 16.288191163185115
Si 15.543832822578372 17.35291287755693 10.698518754442349
Si 12.025665955233642 16.58651791206425 14.435275568894188
Si 12.859647770522134 14.814106806204775 9.845775192634726
Si 15.078636738966592 14.926361216896929 10.594103956092095
Si 16.502522748943704 10.610239817850385 16.6748785623243
Si 14.135115408946854 19.011464881511845 14.279045116737242
Si 17.01747034785448 11.185845296585041 13.082496804442679
Si 12.314231881990212 14.820496894987555 16.497348648728643
Si 18.090214230942415 9.662044373243996 11.751156317611201
Si 13.912076726832447 13.744275901023505 17.935852355137207
Si 16.439800193563435 19.91102196267734 13.880045929821357
Si 10.79644925002216 17.968923900088253 15.858806094906715
Si 11.237298643144257 15.251790100901353 12.355926371290192
Si 18.441270710468856 11.775590556021664 15.772214157116602
Si 14.623655482717004 14.30886307552436 15.51921431174324
Si 15.197199055670772 15.885522703672228 18.268086558102564
Si 12.646251908173207 17.08853306723112 17.137434806847722
Si 16.38526193637303 13.82716241258623 18.62354616889337
Si 13.251687215895524 12.796888947971416 14.249470126122777
Si 11.30728953297563 13.394360528204139 10.862563133805017
Si 13.572210146866789 16.493299140818287 11.80097832174626
Si 18.10410953460619 12.111599680718376 18.11843702176825
Si 14.961447038158193 17.451567651296706 16.444100342509252
Si 14.430041338583544 11.704903676302514 16.75859349156611
Si 15.821867571065143 17.709793042409846 13.015456573682773
Si 16.52458330627101 8.744647366019999 13.130753217490991
Si 15.388906157902673 10.240437301682288 14.511476276357964
Si 14.399249416494024 16.414301543437258 14.363754188100593
Si 11.237652011139094 14.125366851289384 14.511952244387887
Si 13.392454586915719 14.002474645454004 12.17242498770157
Si 11.805011133346055 19.118120079040498 13.911197879662193
Si 17.55946835177123 12.713498642632931 20.262767393284932
