31
Energy = -145.86234087 eV
Si 12.008303201273371 12.852910466437827 6.839498702784242
Si 13.42071877545213 10.982802966347414 6.86123489854469
Si 13.278981005225146 14.827146850323853 7.147210483235626
Si 10.075270357280154 13.521386142294132 8.078606651709986
Si 9.915520722468928 8.910376513579498 8.37656937566009
Si 14.175001855980925 12.876391080123454 8.13750914511191
Si 9.231172805265466 11.259943750749747 8.71691030717559
Si 12.012823274705042 10.141940410315868 8.589466126232079
Si 12.06541547843503 14.420974620695477 9.170354747615013
Si 10.475360016394934 6.658426687507734 9.780977641280636
Si 11.269665549389925 12.098288741353969 9.816471056290956
Si 7.98968931544777 11.85416483753633 10.61037705895947
Si 13.787717182885746 12.84138047533244 10.454915802374476
Si 10.469950495401763 8.990063039002536 10.779364347316022
Si 12.802497764986711 9.65070752462603 10.74866292882409
Si 12.909632436930956 14.901317652117074 11.386781041094126
Si 12.501696350007002 7.256534965109646 11.128188643400085
Si 14.57453534123451 10.965760644007732 11.695364644195942
Si 7.047479509733241 13.880782414105031 11.605351747595174
Si 11.451960585756051 13.05929557677967 12.025400275002772
Si 10.129905220336157 6.774228896331917 12.089798297378312
Si 5.89831165402172 11.698332882921624 11.987273018304801
Si 9.13020940538402 12.905617154055937 12.457693526223263
Si 12.548376901901085 11.14168248934491 12.832025946255309
Si 8.049505310842704 10.787157142035314 12.720583541821942
Si 9.625452320159207 9.069013740418265 13.126770623614156
Si 12.104358241537579 7.539329613115608 13.463848623205399
Si 7.118499669306238 12.758228643120535 13.88140534244112
Si 11.459919266278868 9.740946412179156 14.36017327803338
Si 9.697471929881573 6.953839888321635 14.395991886678537
Si 11.749144101094146 7.655573824806955 15.709766336638747
