46
Energy = -215.30784538 eV
Si 15.249135432270672 11.66340332059089 18.544674760125062
Si 13.81833196755475 18.529952581980567 15.707995619365454
Si 16.01765453410023 13.05419043658451 16.02036783227783
Si 16.099083759541966 18.648018725437332 17.96672502116141
Si 14.414975752904994 11.483964528305705 20.962160170641763
Si 13.902014798973761 13.755570853711905 21.613722719882563
Si 16.983192949983593 14.720997272640572 18.575446474701373
Si 11.472559400415228 15.394021281354775 9.549059199617101
Si 18.211794425137374 13.135459808045264 17.246478560068727
Si 14.344528927994197 15.449392313573792 11.419988573148544
Si 13.529851202452088 15.895823598088592 16.815817467764788
Si 18.515942636006923 12.23425492186646 11.180106198802388
Si 16.00962738932503 16.48977263047938 16.867825472973998
Si 17.8503289026452 16.979090145394196 18.4802899117555
Si 19.132313857364245 13.152116605384338 13.391019751657577
Si 11.819780829424152 15.115960579415901 11.930263076517031
Si 12.180541130522533 12.525715691238196 9.65962890195249
Si 11.18295274652097 16.51000304226883 16.508122388570058
Si 14.525727925129221 11.983449385949058 9.358803510637445
Si 18.04597586772424 14.410944822444133 15.221563978527083
Si 10.002241617169812 17.188794964723943 18.52698286544701
Si 18.07024260700963 18.102196673434946 14.21413826178732
Si 15.692788240628623 13.50313864573835 20.079005001317817
Si 16.612190814095744 16.200429695784134 14.306803699304876
Si 11.551648779594405 18.382865549771054 14.992020838693398
Si 9.114229788295866 15.60999052247035 17.126167629861186
Si 13.306480483605034 13.15685021012038 11.652092287228946
Si 14.216917985154495 16.408249155201855 14.613572636311135
Si 13.20287996671134 10.597770020224516 19.137614477779294
Si 13.79891318659541 14.3980442698553 9.358587313397962
Si 16.184329798763496 18.673530824290268 15.58065868440554
Si 16.386450405396072 14.598526908998108 12.357404341096704
Si 15.712785753236533 13.659256514372897 8.105027060907508
Si 14.71121222918569 14.051477560982116 17.779040488153168
Si 12.85733340255219 17.143358041040756 10.746999978462497
Si 11.428885475523504 18.745600842106672 17.572930084527073
Si 13.0578692789275 12.997077990847789 19.493670924013234
Si 17.02484493108482 11.090139357417282 17.061513160492655
Si 16.956146613378372 13.709395300796336 10.157708581513539
Si 18.71014232413628 14.793644764677172 11.547889822215517
Si 13.717486745909708 17.977691475911676 18.047728765116325
Si 15.67402430367629 10.866022912010985 15.049998188222695
Si 15.557766730880607 12.293520095505565 11.613600430433811
Si 18.478527189634534 16.610522681303078 16.129176915277206
Si 16.89350222928966 12.216396761459801 13.527612628337677
Si 12.398455660600657 17.043457607434494 13.122326660321693
