47
Energy = -224.2948334 eV
Si 10.898052776445576 9.069875013618958 5.3333050080969695
Si 11.39860618274133 12.981843852201882 6.531218807882158
Si 10.351565669025073 7.546257781808688 7.320432385927909
Si 8.107600552166236 5.926475591558181 5.995769403526536
Si 8.281964854889825 8.409754269726186 6.139474145521583
Si 12.122854780380765 10.776861305933913 6.483901603809856
Si 8.827348671587526 10.157977812063653 4.528786316498672
Si 6.012736730323748 7.281858672888057 6.142378117539685
Si 6.583993909698962 10.77571932609517 5.690275052697234
Si 12.19038564781974 7.068550021040295 5.688684551378001
Si 11.550224251238355 9.293830684553782 8.731984815280944
Si 4.771313872862155 9.340805911434845 6.6308693377988455
Si 9.646948882144043 10.644376584253594 8.458918763538684
Si 11.174067158551559 5.201187923387426 8.690238757444293
Si 11.311039067650896 12.420388361391097 8.898620742114623
Si 7.367604958629785 4.7112933920625135 9.92517223980698
Si 7.378852150758593 13.284497186136772 9.4400819349447
Si 10.650011952689376 5.318991121907744 6.379921777694406
Si 9.317955933869014 11.723683266828955 6.401781586185115
Si 7.202534510656699 12.614269573440316 7.092211587364342
Si 7.288451342756947 6.442670396189276 8.278153067613067
Si 6.401720218268979 10.475795674081983 8.150401193889383
Si 13.767497265536827 10.02180130319845 7.931637476405935
Si 8.081143546711898 8.768657170829798 8.526878791878426
Si 8.412067159470775 11.251468345044625 10.35307570609774
Si 5.5178221934607565 13.316182749578317 11.045863186940789
Si 10.634970665647751 6.922735168209512 10.430194945088743
Si 13.165499008497449 7.719706658215834 7.797760400863158
Si 5.514691028770714 8.122361835239682 8.58216249996653
Si 13.172849873130437 6.132187619827233 9.513911835127363
Si 13.199488273474211 11.264523738534491 9.947970221221716
Si 9.611876467902587 13.617154778455948 10.18705100365046
Si 4.309147777674708 8.998745131491125 10.47376026034093
Si 9.773305646013883 4.533774395120281 10.417847515326763
Si 10.108273611546933 10.236526361010755 11.98415101527947
Si 8.626901594812606 8.331104670343102 10.944828657945694
Si 5.567865315827266 11.076570342010541 10.250932175538095
Si 7.149718132668636 6.33038477339145 11.625072890236101
Si 7.002384024671324 11.797897208474584 12.27028391844834
Si 12.743696197486319 7.149106367052215 11.688222066338282
Si 6.09121880322013 8.388616185507503 11.815590384869468
Si 10.997134420259394 5.417421334831345 12.375216585861505
Si 12.088053053915996 9.420058877141063 11.032214982381868
Si 9.355973786454326 12.48782643776897 12.274603434825298
Si 6.646148065627166 9.816439682464349 13.599864555261739
Si 8.830788631338546 8.969709673547916 13.43530176384709
Si 9.084899203661118 6.731323293044722 12.852270352642924
