40
Energy = -189.8346475 eV
Si 9.938818846359881 11.948804977132546 7.91410783986903
Si 14.080952946262544 11.479969960711394 8.433313238333692
Si 10.461817799230037 9.581177593886975 8.314855923075749
Si 9.316614916542386 7.508878039920425 8.370700203052252
Si 11.965092114258901 12.444901266537796 9.03860971515611
Si 12.884031040943047 9.335581753058047 8.415811838693331
Si 8.234485759764889 12.823312558766016 9.534022255413456
Si 13.570789647160874 7.051807708184028 8.374914919457488
Si 11.364454289363257 6.7785081472657565 9.367120956630291
Si 11.88810138203578 14.176911719211269 10.651660923443911
Si 10.392111214128631 11.033802498064283 10.354448122611043
Si 9.50886308317189 8.60421283580711 10.471925182020245
Si 12.861806531894489 10.478818667395437 10.600582941652428
Si 15.019158269702984 11.610233734376914 10.73502529851503
Si 10.897650550003428 16.122143940316576 9.617170977214903
Si 9.340441728209694 14.644186906776422 10.540799970403864
Si 8.401871772906505 11.619534748998722 11.57672103161142
Si 14.162335779015088 13.943147033060887 11.378479714499223
Si 13.478546927657261 7.995680361289512 10.524389746999791
Si 11.3846355775619 7.689266356003423 11.669835207579434
Si 7.789083623094245 9.354364401973204 11.958527318816426
Si 15.00474668912257 9.406453827002226 11.645414432405781
Si 11.447283774107051 10.084792388739059 12.613960609755098
Si 11.10884679345718 16.811454465956206 11.861552626793747
Si 15.395203248576632 15.576972363248354 12.604042111802821
Si 13.096588926332018 16.054228694800553 12.746831020815824
Si 14.438025868253797 13.71900542203838 13.834297619157912
Si 10.882203698056466 13.130301362286504 12.699739145535053
Si 15.146521862971182 11.606897972862175 13.207703659775987
Si 9.15130741758046 14.961233667232435 12.908012566166173
Si 9.399878264822023 9.305021931199818 13.70529857027191
Si 11.40950230513788 15.36228857419287 14.2277282604016
Si 11.364694823145436 7.938809784634826 14.065389473678156
Si 8.550062036197005 12.791689034236294 13.63018266110913
Si 12.29372830183246 13.215997947759101 14.662432414388912
Si 15.183263630853288 9.453467855390311 14.037850946151686
Si 9.720735396871653 17.04875766960916 13.886532954106173
Si 12.84537833117483 9.991727147925387 14.457367428720058
Si 10.140214358412685 11.299948547534918 14.580027139715867
Si 11.885140920694411 11.42069658148109 16.18760348106574
