41
Energy = -195.45043623 eV
Si 10.011205559175966 9.684480802822593 6.271722584955886
Si 11.464961121968049 13.347808927573379 7.35133988518143
Si 13.42552636474764 11.964428852163516 7.150898462443025
Si 9.68306502452574 11.8760061820674 7.234455533467246
Si 12.307708846299777 9.894762368059427 7.062236843551359
Si 13.642159064128935 8.06927322111648 8.018828901423545
Si 7.684703291468115 12.486753785460664 8.436833037860795
Si 10.178623279437968 9.61121776116526 8.650968422248402
Si 11.234173953340358 14.897404351417345 9.139877668319276
Si 11.742395915834965 11.54234684113008 9.029934805367235
Si 14.095533434634914 11.749575395777581 9.462523867513267
Si 9.371703679461044 16.38032792400953 9.983667249085068
Si 12.015336794887997 8.518517048840616 9.614701318118321
Si 9.041706057055038 11.290356019316063 9.973330690556644
Si 14.314437263193227 9.469003442023924 9.853554407752913
Si 8.975677933540549 14.098379892780931 9.587311108715154
Si 10.746549467194653 12.947463644893887 10.86632817034653
Si 12.853755764890144 14.43831883108974 10.90491259612512
Si 15.029468292745841 13.407748911794519 10.807229510950343
Si 14.077149497903765 9.492525465462109 12.263897087075817
Si 12.293921224457595 15.767085572761298 12.727298593778404
Si 12.150626151461557 7.9284458550583095 11.882292504384095
Si 14.16794910491167 11.959139069614713 12.519733516196446
Si 10.112220260743506 15.192098478936078 11.947916807629786
Si 8.975268940682362 10.628950057716567 12.264873954486669
Si 10.014035882808109 8.436676633152276 12.849500142319133
Si 12.630552297813539 13.567345364322005 13.541876280406614
Si 15.311730722091177 8.949661802622296 14.305525134840407
Si 10.771718029710009 12.070873701433268 13.146261724042732
Si 14.95753846522537 11.354245664475476 14.692206909195136
Si 11.824135472969283 10.004475578227874 13.29929355751327
Si 9.987488296557284 14.206298710027406 14.13229822109239
Si 8.415312761994583 12.114099184507191 14.067189929146334
Si 13.179722664185404 9.462910656831998 15.208482473066342
Si 10.791972484833678 8.659612400376359 15.145609130350183
Si 13.094039613980339 13.703864474377227 15.818847007587701
Si 9.993088001657705 10.874979463362937 15.306404639049948
Si 15.133117978408057 12.692924655372583 16.684112237399418
Si 13.233227979253426 11.274412594531077 16.73610749794782
Si 10.94673706878415 14.676683723689145 16.435816227574357
Si 11.139646707371606 12.328407405973147 16.643692077270703
