43
Energy = -204.23540585 eV
Si 10.397277348565959 10.070414440013964 8.554944995115655
Si 11.720178286742524 14.715699687458866 8.521340018853433
Si 13.36886978189999 13.165138661685635 7.846345395203504
Si 9.457636841982708 14.169738267270944 8.10794266834357
Si 12.62539254933859 16.757319287912097 9.411318557105588
Si 12.572142193398053 11.008521197740471 8.673624177393867
Si 9.78349995129207 12.205120243357607 9.405724219304298
Si 14.771621619296958 13.710223511901209 9.647243528027717
Si 14.447711429010488 15.717629383860901 11.045785675030176
Si 14.456313877419916 10.281628388551288 9.844595351086198
Si 10.931129284890158 9.44994794251965 10.794959214122123
Si 12.379089107721716 12.83998260998467 10.18579758542747
Si 11.830937924612334 7.164509546851688 10.837155108152597
Si 9.091566088946557 15.331888024911642 10.074916519838485
Si 16.128493316351847 11.861550021796376 10.427865545650532
Si 11.972721803423722 15.166887734619669 11.048744599484179
Si 8.050341109509867 12.030312698865691 11.131643618161597
Si 14.054363337821954 8.17738504956322 10.781795801121918
Si 12.937952376851356 10.14542294606915 11.984429571657481
Si 10.404829283202522 17.30824085997296 10.618361158002118
Si 7.1069565380222315 14.344326184869715 11.02752752360816
Si 9.020978687733734 14.003990645789793 12.573662695021557
Si 10.34345568875738 15.989801404821696 12.630316033038211
Si 12.756284473222422 7.513880567491838 12.99301118868073
Si 13.859577037502351 13.508495807978479 12.002152431311556
Si 9.121231855577017 10.184186412975595 12.255505467376498
Si 11.989604288975157 13.131753854984437 13.546744503975471
Si 15.408946672078192 7.808399440523264 12.696083787973842
Si 10.466474924283675 12.177919677730868 11.887873274959027
Si 6.7177589579063435 13.123497871676872 13.043479237769684
Si 14.91726485293051 11.399520605983968 12.530296461613254
Si 14.435037113418536 6.348919686508257 14.238805571258736
Si 12.477829367428368 9.461361735808898 14.317790834542393
Si 11.883689937978149 15.411468293864992 14.34132187777193
Si 8.439424766754808 13.075793160168482 14.811322011808068
Si 16.38576859507947 9.78167477748258 13.604095484403254
Si 9.609278111098924 11.053604603392618 14.385084595279073
Si 14.682415179176756 8.574078313297646 15.155688668178643
Si 10.865689792995282 9.930956545259269 16.005741741950963
Si 10.572810459002733 13.925300235484531 15.537151103874054
Si 14.35720732331887 11.09510862700924 14.927764588572375
Si 12.078933470922479 11.96218611815177 15.623031894913275
Si 16.246719623052275 10.041620153332286 16.046420944532382
