40
Energy = -190.05234806 eV
Si 10.932941534716871 14.304259708581704 7.131739121482982
Si 12.52982278425599 11.426868848594786 7.447309401367671
Si 9.075476249207478 12.930733710324976 6.907836472572859
Si 13.287540193557925 13.684036190454568 6.93119900798623
Si 13.734300026103762 9.423574301685804 8.046811535405894
Si 10.228240389744691 10.949482780532371 7.112406259733374
Si 9.711570939059108 9.121693843114944 8.501007199658522
Si 11.810692489135887 8.339959378454564 8.942185134361658
Si 7.35803992946601 13.895600303266301 8.272167632193533
Si 10.703976498904007 12.520821783441226 9.011247510771597
Si 9.45566062651314 14.907743781346968 8.832872002666921
Si 13.553371203422286 10.282836951207864 10.212877532883104
Si 13.034660167959872 13.455151346185758 9.306370128029073
Si 8.499678174365773 12.600928768183236 9.956095468799402
Si 7.784076930833942 8.260473035608813 9.542603258835815
Si 14.676966591751048 12.284499066991398 10.562089510477376
Si 10.9536276009575 10.137537664357687 10.609984782783865
Si 8.394176369568893 10.312982605025594 10.545179533842242
Si 11.458278516841025 7.7109931137034575 11.192352717140686
Si 9.851255546326241 15.895360414700114 10.933673638156797
Si 9.16753622042017 8.087591624913843 11.558155331791752
Si 13.272185320278275 8.89784856854246 12.112805289873853
Si 11.237180531567724 12.401601153084728 12.004063227137948
Si 11.800916750409954 14.640209023557677 11.032332704820764
Si 9.138935301776717 13.785701559374866 11.953517585265143
Si 7.447215957685218 10.124070520489438 12.722660305336824
Si 13.602866413219166 12.408220609202402 12.637924601530605
Si 14.961747454317122 8.288439673973619 13.649863059836658
Si 7.963499960220264 7.977402048672518 13.638522799237336
Si 13.356592907971255 10.461578041798877 13.93748775655322
Si 11.052296999655288 11.081486021721235 14.081948715707677
Si 12.556497120562355 14.411001862250748 13.325347733759095
Si 16.119543367568834 10.274274594697536 14.19359287863136
Si 10.572714429986412 13.385314098537359 14.22605283529029
Si 16.326248261040536 7.949704661404481 15.450810978191814
Si 9.170912277119806 9.817494682367053 14.584027677837703
Si 8.041049337490062 11.795977479099406 14.19826306601714
Si 8.278534731491796 14.126745271840571 14.173217491897871
Si 14.271326933960298 9.377686429588115 15.875093366400234
Si 16.482781771460623 10.117049290014272 16.50123955662692
