48
Energy = -229.44254295 eV
Si 11.034490951591788 11.019206516739258 6.980735155728982
Si 14.907095283270323 10.723361094155788 7.326826942282538
Si 11.565461241901128 13.400893175321517 6.879418922090736
Si 12.861202976188467 9.560489664674929 7.40794611726288
Si 15.989056663731915 7.209982528372295 8.275479823713773
Si 9.536122501968123 10.075114899083452 8.528917685415088
Si 13.283994930215494 12.369686256025252 8.239419048719617
Si 10.378176740833359 8.096329009832905 9.454452288748904
Si 7.259256785532162 14.606721988737103 10.95131376944222
Si 10.316215177883407 14.064686696677493 8.875062485762342
Si 11.740103358856967 10.980564142682463 9.412572504009407
Si 12.295587637667653 7.3840681835815 8.26263026504407
Si 14.129410197878919 6.337148694367733 9.449505082689267
Si 14.865576043879141 9.677096110812833 9.487169387669097
Si 7.334232111604335 10.5204755065534 9.22075232149039
Si 14.04664449173366 13.564278234478193 10.313415205659574
Si 8.882653341108753 15.889280715842142 9.668395100227302
Si 15.843518363285506 7.789226978219341 10.523275933895956
Si 11.819124712452062 14.43072476468288 10.613423910577723
Si 8.045047251361872 9.19764529903143 11.055568007335774
Si 12.664459310316733 8.932590338551345 10.083381162349022
Si 9.152642384102695 13.774910095093917 12.396318540202858
Si 14.43352390730807 6.381589471320651 11.840611866311395
Si 10.256905564098382 12.368039137170996 10.605852969746444
Si 7.828884917529248 12.308077926505835 10.789678271921877
Si 14.761058163395393 11.453885248823156 11.14083430415722
Si 14.597714211922636 15.531751838491237 11.655472048180243
Si 12.381890517328186 12.25304066184214 11.888928128385592
Si 9.129447691279388 7.096592492281253 11.221243500475014
Si 9.692965384411702 16.022249121542654 11.995305453716808
Si 7.47913703162135 10.876390386532012 12.637956827931022
Si 12.108556742899756 15.788076656383494 12.50057507592162
Si 7.578932609282867 15.574361621226279 13.229362871044863
Si 10.627252771148465 8.234741003313 12.756375897551415
Si 12.949146437218397 8.248702696947056 12.295628212699647
Si 9.931776006079504 10.496010969191117 12.831185801634328
Si 14.628234199911581 13.570795703120577 13.03413661907668
Si 13.542096561559973 10.379533219092426 13.190378743817151
Si 15.722076978971243 11.431124454942681 13.29060787598093
Si 10.385560452128175 12.480654497484146 14.023972905914226
Si 7.8620498447917075 13.449435733956575 14.454809664479704
Si 6.367361368016983 11.512088681548986 14.632664274116665
Si 12.4128116492345 13.820069022471483 13.804212516464053
Si 11.88995642916853 10.600619163868505 14.876586954280338
Si 10.161022150243713 8.888033928412161 15.031693028591574
Si 8.568370224770474 10.690777799019479 15.100542903759832
Si 9.339898766671588 12.65984002863607 16.23175548909537
Si 11.855707213843994 12.721447894559764 15.976058386628893
