47
Energy = -225.03210993 eV
Si 7.569275266434896 12.975273998852062 7.902570305128597
Si 11.578113603098064 14.326464522665463 8.292678727678336
Si 13.123920409595184 12.462360914959767 8.290902080695172
Si 10.162367591449149 9.671630603910083 9.193933486373682
Si 6.936691218499247 14.830054565353963 9.191573964572505
Si 6.320074772561574 11.024872610871629 8.407575677567143
Si 9.562973714136723 13.440959898662737 9.24859634005634
Si 8.346806970091471 11.131142997120119 9.71590249978367
Si 12.231126793081645 10.64356573036902 9.719881992958166
Si 14.874483479316309 12.754571777677207 9.88237479788293
Si 16.02765959843035 10.7392259836246 10.093348003045447
Si 6.1167694110766355 12.776808782551115 10.038890767353744
Si 11.878481430036581 15.604518146612774 10.302639234915267
Si 11.86939092436411 13.021990851812152 10.448167313207286
Si 8.785569567715005 15.155337589342466 10.689920667975231
Si 14.119680646887073 9.336695586491354 10.173798965304178
Si 15.841146957636095 14.658212168814423 10.900176858923487
Si 9.699617333253544 7.564223972614407 10.20664450092948
Si 8.094236927776251 13.0611239925705 11.437992605017593
Si 13.973327060424086 16.128966418563273 11.196176922433905
Si 13.980265198237738 7.096754768696656 10.751696047444382
Si 16.023317604190787 10.385299906181492 12.393896759834046
Si 10.179939062868963 16.92918767333279 11.399451768203445
Si 13.751059402273892 13.702063323057208 11.909854295697324
Si 11.74563557464298 10.106163573624318 12.049283874569246
Si 11.755865366507493 7.749902978700975 11.534902647210345
Si 15.118217264728102 8.210480749396659 12.594544704664118
Si 8.65779165545182 9.394889504034174 11.328596529879396
Si 16.042316933306225 14.037561432296823 13.240721858835773
Si 17.020675925773443 11.907094859936489 13.995951595333391
Si 14.581730468654385 12.075736918704662 13.613457456205925
Si 13.232046571847947 15.599127201333179 13.361096857612381
Si 13.58193209020129 9.895887883784836 13.519313810248052
Si 9.719679414096598 10.222055834791748 13.271446274270579
Si 8.947481412124365 12.44571804758616 13.522495489348179
Si 10.863123281159476 15.482889497876174 13.198287461776713
Si 11.145721575752718 13.14558101634806 12.892746678669694
Si 11.914146280602667 7.873128687654078 13.869743643358008
Si 15.010149487438804 15.454533135979283 14.936203662299107
Si 14.16230094135245 7.647774886808464 14.752942681751515
Si 10.176170892951662 8.845981336799634 15.178785951009711
Si 15.552476231804329 11.616997073505662 15.918768047139944
Si 14.017422834414505 13.39274334843277 15.568145988858465
Si 14.042967527718297 9.755675275830098 15.921589537219969
Si 9.783551698854144 14.19503495701663 15.030695504235542
Si 11.85916725410326 10.463262093524918 15.432003132185212
Si 11.764937468449949 12.802276016699913 15.221435125710842
