45
Energy = -214.04593103 eV
Si 11.44873216142063 13.843583458126263 6.916682023924408
Si 13.19052297160031 12.21986035678362 7.0896679846574555
Si 13.093133352404397 9.814609078109203 7.084538417815827
Si 10.158366437989073 12.653020898202652 8.544271990916474
Si 15.011904010631044 12.896332493349307 8.397193242202542
Si 9.306866526284606 10.39691147858073 8.387307892777331
Si 16.327783458311778 11.088051697438205 9.066123490678377
Si 11.43397919259936 9.2779938908959 8.751688448398816
Si 12.502091367143064 14.039658968144522 9.017005464427546
Si 15.141170743099671 9.052365312407783 8.374599504143607
Si 13.742294051337929 10.866197315102486 9.229623275804292
Si 14.615405300866952 14.887334684383596 9.609418118450241
Si 8.241668126347232 10.335974912321989 10.49656524738242
Si 8.972900595860711 14.013821354872606 10.106979246727155
Si 11.809921939711035 7.216039919116699 9.824574966721388
Si 7.860610296316717 12.445969791584302 11.431622539745426
Si 8.976503436793902 16.344027147913426 10.392787680326771
Si 10.626945400393499 10.59587515329526 10.60856124809614
Si 13.750535822241087 8.532755663339067 10.290049211144346
Si 15.804240876306384 11.435004323180141 11.409858970983231
Si 11.27879994707027 12.914948260006438 10.804154779395812
Si 13.473117119384563 11.838737382380447 11.451136207955138
Si 8.090360789006509 9.22439391532389 12.559603123339539
Si 10.710004351539759 15.261958209273 11.38368303691278
Si 14.917227410612638 13.871265559991897 11.782409430377498
Si 11.083206823294514 8.31700857856654 11.855906790612687
Si 16.831946305487126 12.910776222534297 12.920015824585661
Si 13.418241807366975 8.168875507731832 12.608670476311692
Si 11.337615111597913 12.634807745526473 13.278719974982838
Si 12.239469071868172 10.351004530526565 12.781075212447954
Si 6.566818251557909 12.610398501249634 13.359058055884136
Si 9.486112724948192 7.590280077588621 13.452209219527784
Si 6.5229083445518725 10.26384455760931 13.967091180961518
Si 8.83617393112847 11.569597999412453 13.635371040004664
Si 11.324034490634906 15.444250149453975 13.68557461904332
Si 14.913534699918626 12.075667885231168 14.149654938580998
Si 13.298852979805675 14.04586335514045 13.575809598172842
Si 9.888718460824673 9.568339724712942 14.735154644746867
Si 14.09989114416082 9.7881787305454 14.33801790290436
Si 10.072709643719039 13.736686019524528 14.935879296113317
Si 12.024056315358193 10.350187944701982 15.297696761023875
Si 7.834862354926672 13.052411881986918 15.467937806781055
Si 8.038281158215128 10.613166423030574 15.860333582041335
Si 11.993631910376944 12.637183189532875 15.777396993491621
Si 14.157202906030665 13.658133872315295 15.761674659523
