42
Energy = -199.63688208 eV
Si 11.301416731575157 12.12617670280258 6.065662999845458
Si 12.521145021595363 13.88952448540939 7.08515398252312
Si 13.045539883398558 11.143958850724415 7.351689446572216
Si 14.652526628485086 13.494334411480487 8.147483638663704
Si 11.442721587386824 14.861173377798876 8.934036153647485
Si 10.880408324211288 12.435696783179749 8.448934932530742
Si 15.419296932423796 11.301129335836135 7.793143773578756
Si 9.218113350926501 14.100065452291673 9.124139017898148
Si 13.007333354723709 16.416674853477556 9.885699504900604
Si 13.352545235781255 13.827831264434476 10.27169195516108
Si 15.197876188801846 15.369768665786422 9.619212771839724
Si 12.265318941238997 10.823929737896325 9.543570617452833
Si 14.513995144492991 11.656290540608726 9.994545449703644
Si 9.526673415252876 13.603722899009021 11.45495137466751
Si 11.790462118852313 13.631551669777027 12.103742796877766
Si 9.864633245367486 7.509653466925104 10.614502068478036
Si 9.010506941519706 8.155251362219431 12.716807487677176
Si 15.690111530929927 14.035429836612549 11.564536012954946
Si 10.720923776782728 9.724896903447425 10.950009211434331
Si 11.394339780020905 6.808065377512536 12.302198378012392
Si 9.023232882062397 11.169147273371394 14.232258614495855
Si 12.784467149832961 15.943995290240506 12.243868786947273
Si 9.13401082983939 11.289139660005555 11.765414336359864
Si 16.22702505059565 11.781277643468961 11.780036507244564
Si 13.490287030788307 7.93704693065977 12.491915003963854
Si 9.976005794930275 6.629197134830727 14.22913759786253
Si 14.693821288488387 15.111001661062666 13.336981447931684
Si 11.943606709650767 9.796063659012201 12.958246777247467
Si 7.444708373354012 10.048870545933562 12.856390327282561
Si 12.552258045700274 12.000342357318651 13.582485785967737
Si 12.374065480400757 7.781343662694008 14.51224124264336
Si 11.158302901556842 15.539377085753955 13.781025988416014
Si 8.949864793469235 14.814442726848437 13.473399000585154
Si 10.265341332366809 9.230693863992093 14.61922014296893
Si 14.819900820203461 12.517709951495425 13.636299686342634
Si 9.75133487385943 13.229408875726914 15.003774031371423
Si 10.82705740187569 7.593443064868779 16.289593330602596
Si 14.353430464408875 14.514536762097935 15.532672783011177
Si 12.111793571434385 15.076568586719494 15.89355139229724
Si 15.120293068370646 12.357215169123686 16.116605727729755
Si 12.653540022943295 12.570168264752235 15.85602566212933
Si 10.819708665150838 13.443828537842458 17.12708893722864
