45
Energy = -213.82526059 eV
Si 10.541483910057051 13.422758458201589 8.767967894562705
Si 11.258119734241015 11.201225865812447 8.495542598367425
Si 12.471891711048071 14.698419301447423 8.7464631404991
Si 13.597328105767613 11.126717379869524 8.734518300549745
Si 15.15793901458485 9.385262305208727 9.022770048146702
Si 12.781515006155947 16.904788054749616 9.545194783168236
Si 14.287414607576169 13.302266779212271 9.086626782317126
Si 10.029096681683036 9.741471036768267 9.942403416183522
Si 8.484440157861396 14.22333094428395 9.623433033204169
Si 11.230238936435846 7.693932679382038 9.73887543310684
Si 12.266120379618688 12.585650136154001 10.365629786863632
Si 13.427455592495251 8.422379440652362 10.290661300612761
Si 7.766691145281335 9.986754606288176 10.430967650201444
Si 15.7984718377621 14.17356541434116 10.77467752632495
Si 14.52766126789579 16.18864348539339 11.016615067186619
Si 11.606956062874204 9.219784692764291 11.767546153449613
Si 8.294204186860638 12.239204697635447 10.98211143415707
Si 11.979714850418587 15.874004833046053 11.554071227559213
Si 9.97398380060184 14.568846638935222 11.454911428932242
Si 15.462950623182477 10.33692022555057 11.17183712744974
Si 13.774127303778826 14.247977393917996 12.32487578458077
Si 11.076069714636127 6.72280952585517 11.896091615801932
Si 14.491103538145417 17.91842019433277 12.683097402347503
Si 13.312827592710232 7.39416065971299 12.372488915008152
Si 15.392429283977929 12.294287321708051 12.341113684049821
Si 15.113893171554741 15.647919077570752 13.835246197983759
Si 9.926387807706467 12.276455889188723 12.743375206457966
Si 12.594443876131049 12.19760626328354 12.710040019488448
Si 15.50765562087167 9.625449233258623 13.356852561007898
Si 7.886779487604659 9.119163461614173 12.666570731124569
Si 9.914049744342691 8.220902513165809 13.292914506154768
Si 7.478546839007889 12.920585487036488 13.195441287476815
Si 12.011956054400585 17.830721399287263 13.08859493187294
Si 9.21926608551178 14.490716003997436 13.681991288961749
Si 12.576312159072454 15.619187056426915 14.029261444781056
Si 14.72177093353768 7.548853600636946 14.236353374187996
Si 15.833979014268829 11.616656033285762 14.617997102871119
Si 11.346555477754817 13.597544480761487 14.420348341522597
Si 8.323427982876531 10.912571239746216 14.088908694100434
Si 13.837947461950014 17.419251800205835 14.954262256883466
Si 12.843053874385557 8.89718257288959 14.560185977294413
Si 13.431500438285052 11.232884823906899 14.735185863416618
Si 10.29867784944982 10.718158710791974 15.28928933627333
Si 10.743141589226667 8.413279833129723 15.485216104087272
Si 11.794902574004615 12.215811536187392 16.27595632701611
