45
Energy = -215.1661013 eV
Si 12.855026641281272 10.547924508971136 8.235765510035181
Si 8.987951898865372 13.164247492494543 8.066586539905373
Si 13.177272283108772 8.35902765285758 9.28664141052534
Si 12.5125557794352 15.782177889230095 8.623741649379857
Si 15.117105753315334 11.567919099059573 8.293926440568068
Si 11.165997187744072 13.819259652483026 8.899668396244092
Si 10.664146704969061 15.982578109043601 10.157426268543631
Si 9.14589356452874 11.59921424141956 9.919502285236415
Si 11.51503769243199 8.901913300851689 10.930936036187713
Si 8.696337813988764 14.704415753858898 9.806045171135365
Si 15.14316524318559 13.123993002563898 10.063009226084482
Si 15.464275695060513 8.096236482052369 10.252900193907141
Si 14.23397802891601 10.331352619391001 10.268051909301157
Si 13.59288622462259 14.777949621045801 10.563845271674955
Si 16.57178476805514 10.099724373888238 9.482358571088328
Si 9.192118565618351 9.337203418074433 10.673583349760706
Si 11.542985319323758 11.702711377974838 9.9569847182412
Si 8.004902509253707 12.527828028742826 11.744534717994258
Si 11.527184068329799 14.030647158918281 11.584680780317042
Si 16.63456435449467 12.616993558531506 11.722556957381899
Si 18.10555446117682 10.768943541330218 11.253295186323115
Si 7.082459539876688 14.677276703491383 11.575376555062125
Si 12.751880514064482 10.892562498470433 12.020964271174027
Si 10.679496809155761 16.229621097967808 12.51673820640156
Si 16.21432635715954 9.609594242644633 12.032701160639611
Si 9.832389320519663 10.365504378052702 12.768618238211861
Si 9.004028910556304 14.592489447618268 12.94824113436775
Si 14.398287751371143 15.201327263963046 12.77641629148308
Si 7.6819590051027475 8.850642101672362 12.622493631078974
Si 11.381368843709371 8.22638830447518 13.170311234475728
Si 14.315511506525608 12.742128405700951 12.666322603816193
Si 7.6110976124882725 11.10619418817708 13.55047014723882
Si 11.26064054315147 12.359934676884416 13.39397407505115
Si 16.37255641260965 14.050535718337496 13.671129452895073
Si 12.292155797957747 15.105606085536982 13.841953184761092
Si 9.37269572344669 8.492271133886055 14.303035072959663
Si 12.833982842269869 9.56246734395344 14.37568516177258
Si 15.119809633806561 12.40479440603946 15.029337274820781
Si 14.85274786354689 10.454246628652678 13.721487293835773
Si 9.795535771339582 10.59179871506962 15.425756491577706
Si 9.62921338456965 13.405149193227718 14.903427092910405
Si 12.761503227792321 12.62220875131957 15.326837551695666
Si 7.927052627400391 11.961370515362713 15.814382477478954
Si 11.502389928650807 14.590002970077368 15.971342462942276
Si 11.993774089747964 10.581212921160564 16.304546918038707
