44
Energy = -207.93145342 eV
Si 17.18625440149309 12.38002286007968 11.184223759067377
Si 12.635340302522188 13.21450113667585 11.856043856011574
Si 13.926582984723803 15.1004656870346 12.585943577424203
Si 14.881039205317482 15.820106732100166 10.472116238239233
Si 12.82512379833324 14.178256656213216 9.491166436895139
Si 11.026751926979921 14.952026530248817 10.848292383188808
Si 12.5913540595774 16.624588982637658 10.0194406622889
Si 11.704416378273232 11.266585394974822 10.756371710725531
Si 8.278897133586392 11.678065829346462 9.195313546133688
Si 8.777849716117977 9.408697354545476 8.406646514841102
Si 15.31920373240002 13.500859223863433 10.062867567501007
Si 10.870243628736766 10.74559662521834 8.35208464149556
Si 12.69151918709807 9.468972202037461 12.171135776614609
Si 10.16212244443992 9.416307228979427 10.452458957270174
Si 11.361390933033856 7.547807337614416 11.330836426091283
Si 13.411699988032023 8.036191095961886 10.101825786762388
Si 15.074093211767515 8.942458203226748 11.544756054073849
Si 14.408061743728869 8.463697137306655 13.735426542750645
Si 14.709670439814387 11.474096498697932 11.333892778544982
Si 16.109261293706755 12.23666711959854 13.269296434401037
Si 13.074738668446377 10.199726308220368 9.065612923997719
Si 16.608771209434355 10.271822793675115 10.221397083088453
Si 15.079306332026588 11.467889535647766 8.842637234052146
Si 9.676727004453815 15.673106338211857 12.73411414319432
Si 8.674750057548673 15.328672436434685 10.590930076808064
Si 6.625926286521805 11.783899113429564 11.041206757853605
Si 10.883621746985495 10.848115853725574 14.105740416778751
Si 15.294827607556314 10.483649695485447 14.574955674731227
Si 10.9117910796411 8.348244640652554 13.690221902751297
Si 8.86171102322462 12.987968493809287 11.309122868418818
Si 7.94565729439413 11.391077533039672 13.06281871231328
Si 8.980792511900665 9.343935325033405 12.635875217367648
Si 7.632829767826323 9.541166746031628 10.618091577929007
Si 10.364523675635475 12.959687528448391 9.238985481512131
Si 8.872138100881138 12.297100372283275 15.045995609911925
Si 12.050889146799449 12.21681682736461 16.07006284360355
Si 10.138504942725698 10.798803300889691 16.423702248967487
Si 12.016484606478935 14.250948327132356 14.897449447741916
Si 10.540934242933105 12.997970987746822 13.059879967030144
Si 13.323262213279545 11.807488823224395 13.92638192429831
Si 14.47514561548744 12.101240529203384 16.26696782230035
Si 14.755089908021311 13.791820358387886 14.438732091933252
Si 9.68638030587662 14.542045185999852 14.796159392961567
Si 11.97478814223947 16.511301301779618 12.573286737916318
