43
Energy = -205.22437327 eV
Si 13.184974256412076 9.104442498411183 6.771506724082051
Si 14.425576112756627 11.209130380619111 7.013180696651394
Si 8.830818965501225 13.19744881957926 7.708573287473278
Si 12.888925279687426 13.003100348327608 7.371250604717376
Si 12.961935459800609 14.940943640926378 8.68711514987162
Si 10.740765287186004 12.184153219214975 6.9266075768565205
Si 10.926303722217478 9.860127865509693 7.339349609984524
Si 9.176961899956323 15.34190934789357 8.713172864034924
Si 10.90885429564047 13.68487489354005 9.12472895663384
Si 15.086581113332063 10.778656504706229 9.257560521139546
Si 13.93446476315877 8.770967605814128 9.046518671710457
Si 7.984804778024504 11.287614665952123 8.8122902700428
Si 9.597970865203152 9.685042940304626 9.223679468335087
Si 12.629467363995817 10.840737075909464 8.786470115007047
Si 13.817244497982932 13.530958115123482 10.450380524376206
Si 8.53769099887933 11.974210906490123 11.04642170181815
Si 9.012193415988591 8.186842640833376 10.889506601481738
Si 15.878122441096425 12.352451471665985 10.838756414745305
Si 6.255818344111546 11.297395918183327 10.499668636216525
Si 8.666988710064524 14.344869293670785 10.809319731161288
Si 13.333505589548547 7.73841784484365 11.080416739151717
Si 7.574562043987531 9.775480172786368 11.880059090560106
Si 12.743302769457182 9.801154424975946 12.184575995162621
Si 11.733894105934331 12.14115823441724 10.744097724923288
Si 6.61990609788686 13.391782579047563 11.812333610026133
Si 10.753604614695382 8.284217276145815 12.572415848502123
Si 12.118867923689091 6.336812844264568 12.737405101718704
Si 15.01499378773549 8.679528620733516 12.440021923343275
Si 14.805723729713787 11.074390611006885 12.517794868645765
Si 10.391412214116913 14.343852233747795 12.410438862084565
Si 12.720288791472342 13.993407877238988 12.46750727748266
Si 13.396686248101632 8.013773014675674 13.945333664727967
Si 10.297231724299671 11.575632813295877 12.682079898412978
Si 7.729322522046945 12.19974368164294 13.55073015244696
Si 7.297292670432095 9.930978575520932 14.211904345701143
Si 9.688822091657944 9.6893685680391 14.151378669284995
Si 9.588993796158954 13.378050051735702 14.352923442064235
Si 14.576138864760722 11.622498653835551 14.835913011153353
Si 13.294722473865466 13.727068262067007 14.853787976831034
Si 13.019654000118308 9.857838509220423 15.311567397557774
Si 12.13178957827249 11.7557658667458 14.144457224783723
Si 10.927410495076268 10.51927693569666 16.062851044176448
Si 11.174949381153633 12.97346228081833 16.113486090095925
