40
Energy = -191.47625801 eV
Si 11.340903754763382 13.668699142576985 12.635427692277204
Si 13.489853400395983 12.869097075699248 12.19676124946477
Si 12.812650672372069 15.143694871431297 16.246797331782457
Si 15.475764898211173 12.107681922944002 16.083630700653906
Si 11.874306487128695 13.38852278000652 14.934028748287123
Si 15.023034703856233 14.529487648921597 12.80134654887286
Si 13.754018392851421 11.380299694086666 14.566322306374744
Si 13.906388945992989 10.561838039914548 12.283544082961356
Si 14.539648492181477 14.018579722465084 15.064399282361656
Si 11.745281524947835 11.220232018881566 15.847172657906922
Si 13.888859438918123 16.548986569064297 12.458367549289017
Si 10.147440270599688 17.33294577885859 13.8840139413726
Si 12.750900883788773 17.509907559476304 10.561239887047071
Si 12.481679349641498 16.702740335548135 14.482170596404968
Si 12.477347413958995 19.49423369445954 11.927397882131558
Si 14.125234964264106 18.68307574584629 13.500172086303962
Si 10.233640126244728 19.757499803070537 12.917992723485632
Si 10.496193006503054 17.885786087950557 11.319702119147921
Si 11.98699616914564 19.058170176967828 14.47478433084515
Si 11.502024916035143 15.984446832128116 12.333646670125882
Si 17.077376299754164 13.463538847170124 12.410845410849648
Si 17.69759531897232 9.678164873597053 13.686881991219542
Si 17.868015641336573 12.355288650188733 10.439503279417181
Si 17.12338023530386 11.990619502962893 14.37509943921777
Si 19.868507256008545 12.079335269395353 11.816846718369229
Si 19.17934770198615 13.657645154010543 13.520432995718357
Si 20.154238751889512 9.780733859202192 12.681967393799646
Si 18.225988456664094 10.134283604480306 11.21178547627891
Si 19.469804342853305 11.447412612962767 14.324908444861007
Si 16.273962531103816 11.124336046508343 12.235855733758518
Si 9.663989942989511 12.040698431514484 12.264491355809314
Si 9.897925202725611 8.322093732858896 13.2301537905164
Si 7.990714579496169 11.367086408232101 10.762157013631686
Si 10.249221756301784 10.57387097807954 14.103913849647732
Si 6.9121016594293 10.398872273084452 12.64399738509504
Si 8.080196082575897 11.916636562112224 14.15228273039367
Si 7.3630612069530015 8.005292685394627 12.858490062521419
Si 8.670626488102785 9.136363905323687 11.159575968600539
Si 8.117280749718722 9.555057326149367 14.717407083601753
Si 10.907239833244384 9.969485625684001 11.72722733880527
