48
Energy = -228.67579744 eV
Si 11.358155136017302 12.75947734104912 7.032208404226597
Si 11.545490232217823 8.711474004166616 8.412230135728409
Si 12.332916366439878 10.9735556809537 8.338312073337322
Si 14.53004449937463 10.306410531221978 8.946734026116204
Si 9.35366450358595 12.750214595443898 8.319736061802187
Si 11.977491767493106 14.116337124338358 8.919282248437666
Si 12.221678260082282 6.741838691998007 9.616768991860992
Si 9.446510658132885 8.92314303554556 9.382179729393627
Si 12.156469001784986 16.49330411612173 8.930041028993069
Si 8.424285603684835 14.670050962778161 9.432912511359897
Si 8.395283505429818 10.963580129673554 9.54142360699668
Si 13.38148052171705 8.670316407852905 10.258722805110816
Si 10.388507194563651 15.768676266846352 10.340826403640149
Si 10.887558294562655 10.911845896932146 10.190935381657308
Si 13.421768324009676 13.5950738008398 10.690812372812314
Si 10.485637020613526 7.616010988497295 11.159241042192317
Si 10.222219244139298 13.292101659755891 10.594976490131828
Si 7.0955931821286855 11.206859892218548 11.469962807136724
Si 16.007095664595127 16.890279156786193 11.282911329312736
Si 14.659868808450245 11.616938461738771 10.935923636888296
Si 13.868662379402744 16.089218032124613 10.613277560130541
Si 15.796375174361845 14.52832996246502 11.05542918206039
Si 16.853334780958917 12.443950443266374 11.542978683701968
Si 7.864768676077247 13.430914070778684 11.37051763411931
Si 8.436140248259834 6.511813569949168 12.32194551892832
Si 15.646242123347479 13.36730951814726 13.368602495090629
Si 13.708733356307748 9.889375688291292 12.269825334766443
Si 12.565992442296162 14.939788914357932 12.5270781011936
Si 11.136272027495353 9.67017879887317 12.161739962730227
Si 10.46851727762588 6.616059269645275 13.437627786672145
Si 14.771832429889558 15.860675154553185 13.08854527751334
Si 8.951772506685389 10.645238404559413 12.941130000551286
Si 9.433927354582801 13.867351774542978 12.982540127342594
Si 8.789327911571133 8.373531093224335 13.759261398460911
Si 13.122572742776304 13.28737056889008 14.128780115522549
Si 14.51079882561171 9.274604344473909 14.412891345491317
Si 12.136556868996292 9.666338878502687 14.401654093116557
Si 10.463039436263308 15.997189685081421 12.72897505345417
Si 16.272800525733334 14.7504664991971 15.169089962499314
Si 10.608365412315727 8.029000483974059 15.287636590869852
Si 9.109223927871946 12.267277704298559 14.67598826995616
Si 14.969793268509987 16.78304784732962 15.29471945379558
Si 11.398995725955677 11.841639354506977 14.86705141063906
Si 14.77781930310964 11.585417041687888 14.899052810539285
Si 13.89388193155213 14.737284849425649 16.027646998730216
Si 13.065582798143344 12.362061067066794 16.526240789338285
Si 15.706131834169907 13.024448222511833 16.682930429885165
Si 13.942771068111027 13.744580160521114 18.222652672770632
