49
Energy = -233.34933705 eV
Si 8.171992289648198 12.06882057240085 6.696507914998648
Si 11.06517052741194 15.431451498380488 6.945921458564418
Si 9.042232640601537 14.216541375032508 7.360224298463911
Si 10.315726095165706 11.522293672196131 7.49700009331277
Si 11.841193646040953 13.348319874696495 7.634963097506166
Si 8.303467206207126 11.434363020137319 9.026974277254562
Si 13.689372219398049 12.905840216997754 9.059320973101302
Si 13.25501039960523 8.62268129319383 8.172899513885588
Si 10.979583597351153 9.257561388525158 7.761501517935639
Si 8.277156990795417 15.104640529074324 9.438086791512712
Si 9.43521532618253 7.449745530091379 8.29242220013207
Si 10.695616507525356 14.903831812045478 9.302004521756869
Si 14.053670350450032 10.625081246240189 9.163967968156767
Si 10.24619224596841 12.681740472392388 10.08922920765578
Si 8.727512139889587 9.204481325786043 9.653633288963253
Si 7.710695831482433 13.101574528411025 10.60064766451622
Si 15.377823594355284 14.258844995792114 10.123421819760807
Si 12.928367638535205 7.563694133084955 10.434150185168154
Si 12.34762134494442 11.817573190244953 10.736014202750294
Si 11.778196308846626 9.647364916880713 9.959255113928226
Si 15.529891477738694 10.243353808569987 10.949118327279717
Si 10.509985462883906 7.444838942777938 10.523821110394847
Si 14.286997635503251 16.381406982675603 10.941745332150985
Si 12.073730451846075 15.529610893645144 11.15226256543881
Si 8.624457960880942 15.441078939008333 11.829844732494758
Si 16.01161409644534 12.458276094979691 11.686679579429953
Si 13.932122311802253 8.953230969350495 12.25191304349136
Si 9.339416905511715 6.615206557461543 12.396569011025818
Si 14.474987689956585 14.667317566329517 12.501607136650764
Si 8.501650752838458 8.757162951990995 11.888979139388024
Si 7.219162732388019 13.700655788607314 12.847006842551602
Si 13.860436958228593 11.616238630328645 12.557443129369572
Si 10.498669872103296 16.592710251240245 12.643844940328856
Si 11.88040241367868 9.900381016258937 13.269954542837944
Si 11.129438968815458 14.337876436445137 13.012925086501976
Si 12.628950959127765 8.180323930692577 14.84539964015285
Si 9.403974703385005 12.773071556416177 12.466705244019765
Si 14.954424084797443 8.079867656754395 14.247066543118425
Si 15.818561744620977 12.43654187815211 14.056053044986912
Si 10.459234591198506 7.475722285600998 14.297382814382091
Si 13.055474403388802 13.452903315855457 14.09813762850954
Si 9.607386800842782 10.455617782580182 13.068346429207901
Si 15.08405753944709 14.578334406077225 14.803887613299947
Si 14.685368061629275 10.426845621802633 14.65354509292015
Si 12.514819497194908 11.3288012133594 15.071535659459004
Si 11.338802058120196 9.08767160290106 16.639929909397694
Si 9.32036146808795 7.770671943641896 16.345449571226165
Si 9.354561495391698 9.952437456260084 15.391829497826787
Si 10.810266052295304 11.346423979186516 16.76389673338844
