46
Energy = -218.09027809 eV
Si 12.802832260723683 10.324884693496388 6.537747646155371
Si 13.737660883271712 12.453700194623119 6.40750088513274
Si 10.693212348102962 9.732525402379803 5.316267642083654
Si 12.691873461016534 8.194921954730304 5.638304566978648
Si 14.195475494653532 11.298957511517408 8.518241185904213
Si 11.69028687717636 13.595293218396485 9.575824705978473
Si 11.547826959621032 12.89699088440772 7.353494470752294
Si 14.674207909591352 9.017415119692291 9.194492934202676
Si 10.397498203719023 10.740663373091621 7.624665380178678
Si 7.311018705146066 10.104763224088906 6.996352847824481
Si 12.973534821658756 6.764161288924418 11.498536929676773
Si 9.13737205276189 8.628120785525873 6.610773139256356
Si 9.378312555174055 13.894086772002002 6.669232341543711
Si 9.486966778420445 14.318598851620223 8.999108370164882
Si 12.988443899165995 11.883116462885525 10.451582131328568
Si 9.802788739836192 13.51130153035466 12.516279587925755
Si 12.956060092699985 7.772820654013979 7.973259805019215
Si 12.197132248589122 9.807866742258566 9.131062763374798
Si 9.746221143380128 12.2313203872449 10.351035444996699
Si 12.881935502936123 5.668610887237806 9.232735235043513
Si 13.303555056724546 9.105380966666315 11.193557116557365
Si 8.301431570324084 12.070766077873163 7.873749701424875
Si 10.865720977199478 11.240847760112349 12.7040333346471
Si 8.052139443660398 14.238049836224832 10.884747256986294
Si 7.650379788990684 11.1586282521079 11.161251849524284
Si 9.636498465324316 8.747847593920403 9.05469087966056
Si 13.333086160331233 11.051087396626034 12.631590461266615
Si 5.689356640335562 9.686930455996539 8.566920271536365
Si 10.464200185308163 4.836659572053407 8.983020601136662
Si 4.458898436508758 11.441401952953816 9.56712027305773
Si 6.662008698455515 12.62371271221266 9.619612513820753
Si 10.081300390240107 9.284262543287781 11.653825363136603
Si 11.05476435709143 7.054222640230253 9.917496501932334
Si 9.11443194833361 6.542128193903942 7.721785971853709
Si 8.23689064439536 11.937535463859174 13.36295459174616
Si 10.808410481242284 7.154684415145993 12.399540049536418
Si 7.66372984831522 8.927120754675029 10.486671246064066
Si 5.34100520875086 9.923723854974792 11.225129417159849
Si 9.475569926837087 9.843921043990504 14.237175431632727
Si 7.646953975897711 6.746808941637065 9.5493559850444
Si 6.598015571508103 9.963833286419465 13.285973784366519
Si 5.4508497196885335 7.785094640669075 9.956185765008243
Si 9.193634050130616 5.643763604334843 10.938475028846147
Si 8.986085119154527 5.954999072101848 13.34322155797429
Si 8.193401026634177 8.220202113206579 12.787303228686163
Si 7.4844708896119325 10.943212245030812 15.31766529787398
