40
Energy = -190.31754616 eV
Si 9.513221918825968 10.671073728555333 6.2393054147598725
Si 8.769186178708447 10.068045967430663 8.409877844053659
Si 11.239057806730113 9.823006117326816 7.676436554552738
Si 10.041060086450825 12.175682175681397 8.065857521671242
Si 13.156834297882115 11.228473041133002 7.965887626315439
Si 13.601695671557831 14.872828856803604 8.581349131422249
Si 12.00502946445718 13.102094755551498 9.09581834288703
Si 14.669392033190505 10.051891969581835 9.378970159461273
Si 11.02834597617706 9.125200473471587 9.97232415375671
Si 14.842000235061732 11.678466972604005 11.098199889902295
Si 7.06642136959201 10.118596964563983 9.970610940524205
Si 14.601117896599149 13.930930877370585 10.521978246230631
Si 8.534364916350095 12.105084376517638 10.011206020068798
Si 9.097971243769608 9.8189367454856 11.1526465719586
Si 12.580651096910984 15.988494699139071 10.44161420308434
Si 12.6069329984966 11.04056410323796 10.413540213145271
Si 10.286403408068937 16.175608197606874 11.190742266951919
Si 12.988459642447083 14.289423902407917 12.511369753093375
Si 11.88845198911504 6.959209667459312 10.693895177725521
Si 13.469297850759148 8.649739396837035 10.935247070128085
Si 11.457466536665374 10.534577210792676 13.062484104409071
Si 11.005202218805083 13.878419677666427 11.195322926771667
Si 13.805631663480389 16.73578057004155 12.333856015818078
Si 9.801361605006068 12.104620834862567 12.253521824154946
Si 15.374634154659331 14.878460064092339 12.59809222043213
Si 11.686337762749568 16.235157862577008 13.217747983175771
Si 9.543701552294285 8.720645410183636 13.183988965005947
Si 15.620776832935912 11.036354609777588 13.234988890816268
Si 11.635115188122167 7.7694726962649385 12.946577227963559
Si 13.710234552799516 9.540260308899967 13.186460862224031
Si 12.341338629459877 12.460745523833554 14.476149082692746
Si 14.6261597225153 13.066423917141737 14.046072213213412
Si 9.631259636065193 10.28948839946658 14.870666979161363
Si 11.807677454580963 14.912236838972353 15.148364458300398
Si 8.45819032836401 12.29120557988367 14.289098440309006
Si 13.030811867989541 8.002689724472878 14.900161602452663
Si 10.319384507256991 13.186168039760375 15.502407422606616
Si 11.842474441739725 10.038700569475912 15.557048409875225
Si 13.700325156414774 13.811325100557895 16.174697474120283
Si 12.030568993616141 12.048462959179778 16.9099646814737
