48
Energy = -229.61204241 eV
Si 12.030860068505397 13.595230379490806 7.717307699030571
Si 11.42790250522023 9.842004278492153 8.558551776265118
Si 13.889408637615768 12.432526393517236 8.470334286550466
Si 13.66601066584398 10.146873968437914 7.7273499886921035
Si 9.727444140741282 8.25261641567199 9.010141308719799
Si 10.481244444315061 11.846621608120342 7.771263456980248
Si 11.251758818957054 15.619211175302357 8.609624239188584
Si 8.27885556450771 12.369409681124218 8.220567845397523
Si 8.45119105818868 10.252482047430277 9.404636471317648
Si 15.949045283862066 13.393526348228962 9.048912490934711
Si 15.183087192453137 9.390165273377237 9.460518145737142
Si 10.014391929868802 13.684246205726154 9.503262132017218
Si 16.175617753593855 11.3783617732731 10.270462360791495
Si 13.090214236451045 10.622274527020094 10.103324870603835
Si 10.373955486526825 8.421105152812302 11.287241039116857
Si 15.111107872060414 14.24782973755259 11.175888220556873
Si 12.691313183083063 14.961970675512433 10.478728790560384
Si 6.770827606167985 10.151041034167473 11.051824718223111
Si 8.63809731102452 13.819974561166907 11.495795975981267
Si 6.771390219766176 12.351678007314627 11.887038978458367
Si 11.969293179171524 12.715469642538896 10.609996692039887
Si 9.02825812184673 11.391986257231844 11.409637016638719
Si 14.043813669404546 8.637429767432039 11.400212842387766
Si 14.948984910367274 12.181242017312572 12.430867041961639
Si 17.173627563244445 11.129017243861114 12.34376095033102
Si 12.305612720814807 7.080649779447521 11.944630150961189
Si 17.10492330573898 13.48199204167821 12.565340142493373
Si 11.809502222337915 12.46139250592129 13.007525402789843
Si 12.062624696141416 16.52029233371999 12.249681528127914
Si 7.396560087761518 11.035595191199894 13.73551397307496
Si 14.481860873067388 16.22482846557897 12.609797359717367
Si 11.981719609449144 9.70763367080383 12.489380489262178
Si 8.843002276259233 8.717558609091343 13.13368837491886
Si 12.87703323499386 14.55699282287785 13.425930275176265
Si 6.4636505632889945 8.904591080457301 13.168745203823946
Si 9.814863369353265 13.793226563176058 13.580650784222602
Si 9.953515151392654 11.033328732438576 13.642735005687573
Si 14.157446387236437 9.48281850059859 13.615429445971309
Si 15.82281416088675 13.3733798835563 14.525986141456986
Si 14.462037866521047 11.496174385402924 14.803476310462978
Si 12.472102808644648 7.911888536486904 14.194217211689063
Si 12.289143246977833 12.248388751247642 15.368290557909702
Si 10.889897126831373 15.800994636394767 14.358115636013407
Si 10.459421902538512 9.005726019463621 14.8484182104399
Si 14.623102283137214 15.365819432393753 14.944138559897818
Si 12.476185569445898 14.660041338021728 15.821000906656142
Si 10.44749788909076 10.973587164841266 16.303187268623656
Si 8.70308232635528 12.36410648413804 15.252172823192605
