42
Energy = -201.07888454 eV
Si 12.197960275167178 10.273000661636392 6.930314607363916
Si 13.263452662905252 12.369641948315259 7.440443416339815
Si 12.436134406953913 14.394790631669574 8.250987637177285
Si 10.21880678821168 11.036423851390406 8.08275744735722
Si 10.214833837472948 15.281679202992512 8.13229521566527
Si 9.305402500303554 13.137139293869087 8.586295816987638
Si 15.073495273798105 12.973208799984823 8.849090928778793
Si 14.624461515279819 15.333384536118286 8.79724110689114
Si 12.885505817211222 9.609353562703403 9.11255977498352
Si 9.060892160063016 9.717621472896887 9.605822420189142
Si 12.740046083952082 12.530326535037537 9.870495624391271
Si 9.766834867689708 7.619942964363623 10.373427742111076
Si 12.084105506028628 7.253422882948727 9.62235402795297
Si 8.384543904460315 12.927715551970698 10.741651276920821
Si 10.523388972506783 11.723291108157458 10.494991574115598
Si 7.567649537201012 10.743823598675398 11.11866610534252
Si 16.5955689911137 11.73464491821747 10.290929059434474
Si 10.052791117064961 15.027418926772393 10.485282787230446
Si 11.43631542665576 9.250493237457604 10.978276732465499
Si 14.758532404952916 10.263004802635514 10.465520411170091
Si 13.911378250211365 14.420279885088137 10.859700878958316
Si 12.821501498647875 7.279629732052901 11.888556549859082
Si 8.02285422208935 15.040783885492235 11.743268016679652
Si 13.258934544491826 10.88868192647887 12.355186011927723
Si 11.904944011753448 14.85226537911351 11.942982604838843
Si 8.815392359190634 7.2899151776641204 12.67268482702996
Si 15.042074893247653 12.666432770999473 11.916806468761035
Si 14.618803478393128 8.761429791030762 12.290978180079419
Si 11.02476536163405 7.857584538991701 13.230722550818976
Si 11.025773792181791 12.987747819242665 13.070376073819615
Si 8.62679281628397 9.695216482304382 12.933970173150987
Si 10.932343648273925 10.562847948358403 12.99399494118611
Si 14.293156664756271 9.842155001860613 14.39213831236895
Si 9.27555935869969 14.436229733923016 13.741593834929192
Si 11.47158694417771 15.334766867001807 14.258861373458172
Si 14.355216886633462 12.2243947571308 14.187768413958684
Si 12.25693336638638 13.185472056210008 15.0956905165494
Si 12.02379979426092 9.204411534158284 14.849715560526176
Si 9.316338341868788 12.700421642439734 15.31679191329698
Si 8.451188751745613 10.538362483505166 15.169929869154332
Si 10.603690072783142 10.588235882976223 15.997420727786222
Si 10.978547818636374 12.664705141503733 17.083757413332435
