40
Energy = -192.12904162 eV
Si 6.906848253243683 11.270547313039273 10.303541530824178
Si 7.013795963027318 13.21245942756471 8.962135452054044
Si 6.687800323436926 11.2331044275533 12.690782872016214
Si 8.166839596556844 9.424926168423022 12.98316064694034
Si 9.504168621644558 8.89207821379157 14.912575182306856
Si 7.871514574376833 13.286096126452179 12.994801283346387
Si 9.900142793191726 13.107497527334246 14.226522123002729
Si 10.661696395852639 10.784819059894447 14.03341008699206
Si 9.965714303511083 15.614000970555397 11.047022904224406
Si 8.352640115222691 13.96054921178443 10.77222010180112
Si 11.524530448553218 15.195611967443472 9.223152794219905
Si 13.004463183113902 7.237554720320822 12.838872049863756
Si 10.794088230214326 8.004985237214008 13.11796883402135
Si 12.971482432153124 7.45133635040439 10.466836374142252
Si 14.848456271192797 9.792270401392699 11.042058575875055
Si 14.791275065540749 8.260779353829752 9.189932379530722
Si 13.065164419948372 10.966692900137426 14.124853638444403
Si 14.448745999538128 9.148535200994647 13.35632799295498
Si 9.61048888596571 7.547274289059666 11.154206799590815
Si 7.346492507612482 7.826793376753263 11.374198931127244
Si 7.222046807242624 9.170034416627564 9.315273114123832
Si 10.949557789499957 6.765069000819692 9.375749550386923
Si 10.886403707159158 8.268739289165678 7.447129855936599
Si 8.717909447357176 9.65047870827294 7.431121065537703
Si 12.910336969646899 9.440792341848416 8.230912626603658
Si 8.931449618148326 12.03117040698039 8.043828499232516
Si 11.013964319384971 13.015381733151303 8.388324040241367
Si 13.034844012103514 11.758816781962782 8.354590161746975
Si 14.874691860849234 13.123702563359137 9.211997235585633
Si 15.674544320286564 11.961680968127197 11.211850887778464
Si 11.239824155065476 14.440298337149688 12.729959082474476
Si 13.557995506486977 15.062154019231256 12.783763486956898
Si 13.934843352639563 12.721522841544147 12.724209951395741
Si 13.364412546245402 14.447195901247506 10.47863510706103
Si 13.22245348859094 11.66127850332043 10.707152464377005
Si 11.150796932581692 9.14950615736629 9.862788770124705
Si 10.769581645330023 13.2219212592082 10.745383907239281
Si 12.359085741110286 9.628778703223727 12.067780285327588
Si 9.219583959123373 10.453973201753369 9.78077270254491
Si 9.26420537424439 11.544472558692629 12.029076589040304
