47
Energy = -226.35536664 eV
Si 11.442794956901164 9.237895668933666 6.999519182986125
Si 9.564099660327086 12.849072821627379 6.597074337523163
Si 13.229994966504051 10.873265065106008 6.728359183996763
Si 9.833143174426306 10.83148008340351 7.815667399499627
Si 11.821662174236424 12.673961022100064 7.388908635219275
Si 11.823766178060595 8.370380498257225 9.158998600665102
Si 12.184001751528688 10.784802701649127 9.014755487859281
Si 13.135383875785 14.000148760224343 8.812858788764085
Si 8.955515662779272 13.83751947473487 8.713478308471139
Si 14.690930876395992 10.887149510671199 8.606965894575337
Si 15.347349923966888 13.21800463735393 8.786509645585085
Si 8.664990335923079 10.086294964950168 9.685330773262736
Si 9.819793908910038 8.127808647934078 10.344662199441196
Si 15.88358861516478 9.130642784977178 9.694977199455268
Si 13.711655533396078 8.429253122202358 10.531744562540739
Si 10.571231860319541 10.917182193317112 10.859676958617598
Si 12.03490634947427 15.168715931325115 10.45804447086551
Si 9.83283138514059 15.766897879224857 9.849239936323873
Si 6.570211814299613 10.929761740413722 10.316491902165176
Si 7.536009426707118 13.107271394235235 10.488952631906146
Si 10.302835414212373 13.366464010046371 10.603729474214195
Si 13.722249601676932 12.306730529765042 10.52898825049501
Si 15.994168458537128 13.240683243351398 11.12176950518796
Si 15.758541898853931 10.903289695114468 11.286781495231818
Si 9.124792535282433 14.947785399814393 11.989272698201745
Si 6.777763126207036 14.605301144724477 12.19517216767838
Si 12.752536585478454 9.700315760407157 12.534383947126393
Si 13.448781298799531 7.1171932325319265 12.456354547010816
Si 12.898337626146319 15.865247731572152 12.533100938086937
Si 7.187605184472565 10.648513192112532 12.610062207184251
Si 7.477684302788795 12.757614269584188 13.507412516207996
Si 10.540237939267076 8.259505288544226 12.59121400303429
Si 14.052889847317415 13.780177752967916 12.552286673576809
Si 11.089505091307974 14.471980398462753 13.251363329565686
Si 14.968634515990907 10.55103522354017 13.40489665471254
Si 12.106125009973283 12.118844640032934 13.00253375035609
Si 9.558553754735518 11.359468606493987 13.06938117901532
Si 14.46196751804566 8.394958485643546 14.135218187764305
Si 11.492711281092891 6.396082204427132 13.715665553372297
Si 8.60298501611136 9.142856700440287 13.719189842911907
Si 9.052023179794705 12.630515558877068 15.204164946428925
Si 12.181810092848234 8.513693404034992 14.684766009308031
Si 14.38398795408742 12.517725843964719 14.524938535292856
Si 10.977635456346139 13.946697423445151 15.57567718295774
Si 12.233992164844384 11.933102714615066 15.423200687377282
Si 9.599858877762035 10.396335667162633 15.409496392010164
Si 11.615144611420602 9.917593749330976 16.533983999614218
