40
Energy = -191.00330967 eV
Si 7.522679566078452 10.61738797572707 7.42740877696956
Si 8.777212338780448 9.728052282054739 9.302159550327218
Si 12.139041180368737 13.091268585260998 7.874138074231633
Si 14.136434799103261 11.851842565163794 8.669315740240506
Si 14.68421625267057 9.503620714425857 8.778078639463203
Si 10.896304115936863 12.618300679827419 9.854378229034866
Si 12.440633443560946 14.673010280121566 9.587686869803242
Si 7.147062531022117 10.31298684438907 10.869088273378413
Si 7.891313990371664 12.024227832961346 9.275943834752656
Si 5.7086374926469015 11.037314129209625 9.087721774950813
Si 14.473021649988073 14.87997145342589 10.70665383152368
Si 15.838839181133325 13.369038411473307 9.428159613819307
Si 13.263836786350689 10.267553870988259 10.519214834077014
Si 10.769766144842603 14.828457383088109 11.226284389941034
Si 14.38500151682293 12.420117162100393 11.173117945426931
Si 8.777916068881831 13.191608253755431 11.137829287082925
Si 15.855676539408266 9.856244739489515 10.83059880163466
Si 16.80911661962175 11.962144664498105 11.131413206297404
Si 10.913094120874463 10.345178606878228 10.331707908517014
Si 8.543125461875153 15.463465609550488 11.778713372383097
Si 10.503273937121595 10.237238726262712 12.611858930339753
Si 13.620064705777736 9.272758039525062 12.701950280557813
Si 11.943877604357773 14.490638348561722 13.317195628815679
Si 8.44594158303232 11.34861763254134 12.63252094619407
Si 14.279220767086722 14.223047407126407 12.964272835759084
Si 11.100658854613512 12.278899279306454 13.753370612148176
Si 15.808964219617001 8.316765020618472 12.700706335594447
Si 11.563782133545999 8.420667958304879 13.723048455621333
Si 13.62814024713262 11.596551688261304 13.817157903703668
Si 9.373684176853118 14.692413642794431 13.936703818232786
Si 16.198264353662633 12.398260168309152 13.371654839752425
Si 15.643166772912737 10.224411398218583 14.17251214814734
Si 15.947368284244405 14.383117821121282 14.659896540830953
Si 11.11694299205283 15.898606137200334 15.04999588962654
Si 8.776531472652197 12.576953683966595 14.67062422396491
Si 11.943715526922379 13.776553689284144 15.807619199688887
Si 10.558861955256395 11.865276745709698 16.129597783524627
Si 12.095064729140574 10.241560186099308 15.16555656524293
Si 14.195585860149656 13.044507070319986 15.68826906555254
Si 14.293542563025246 10.680945851575933 16.14545758234335
