41
Energy = -194.70052322 eV
Si 12.088668812164485 10.60584881247703 6.160802322880897
Si 9.757257087653786 10.407599695286365 6.625530330011539
Si 11.350753815026811 8.727990078236086 7.494601316453934
Si 8.983596358863288 8.410346361172294 7.658331993661843
Si 12.14863333646137 13.708431710626876 9.102263687778038
Si 11.405071609624992 11.592854298572481 8.230478913640258
Si 9.58639105959859 10.229822523082023 9.12086979949724
Si 12.127385904269364 16.123544034300842 9.125926127583538
Si 14.439434788136488 12.78120855587233 8.608884453627129
Si 12.190196970034505 9.672607420223473 9.611232452753077
Si 14.168905922794783 15.673451933522989 10.297208452807846
Si 11.22191416397235 13.018180290178616 11.180209581478847
Si 16.053971823025684 14.123196897093553 9.925736372256333
Si 14.186492896499617 10.788844338837482 9.872425623999014
Si 13.919642047335401 13.380359980293518 10.935177973648337
Si 14.160675556853997 17.553223574694435 11.840472403070294
Si 8.046170547217244 10.623269839288499 10.859767384129942
Si 9.275990854336166 12.173608864150893 12.20062404384215
Si 12.035766022551087 16.540259319887408 11.545171401760374
Si 11.606769491788539 8.874501432209524 11.753509747263037
Si 15.896205461180271 12.943417488641842 12.208844761678009
Si 12.119781398799615 11.148296007945165 12.314240073460734
Si 12.172716238130292 14.132029357148351 12.981949823856798
Si 9.48867203513303 9.602108310841698 12.376766897928443
Si 12.934109889252431 8.326795725438991 13.643308663329432
Si 14.555372496199082 10.945795753949733 12.23114527179237
Si 13.725760688721554 16.11319154785407 13.648547981512413
Si 11.341513931464084 16.27683048496422 13.867192097010415
Si 15.093135411867351 9.28019750800302 13.885642901100741
Si 8.428312472298183 13.147827758453785 14.190978309524578
Si 14.450384957514096 13.879758198077115 13.830571844508906
Si 10.517878781291296 14.206741082380141 14.772073709774572
Si 9.074257048503798 8.967722036664219 14.600947154848832
Si 11.344465537558989 8.960703266841572 15.221421438350038
Si 11.883280693895879 12.051238941305568 14.65994872746046
Si 9.366942494995483 11.212550300361825 15.166971685755929
Si 13.734067615940862 10.381043190570473 15.47703347840437
Si 11.894588941130715 13.640593044353103 16.74473114789188
Si 13.980016939596396 12.715934326183909 15.838920739215029
Si 12.336669171312028 9.568690194570078 17.257141505070038
Si 10.882877485976001 11.46408427441356 16.907096164352325
