47
Energy = -224.60679108 eV
Si 12.166885784151763 13.165498486283742 6.487076691355929
Si 12.232560060734652 11.347787919341883 8.100875393373054
Si 13.710883677497502 13.632532596463225 8.226401436144585
Si 13.712682508289863 9.626252871663182 8.849099395925
Si 10.97362428849261 13.916274416622166 8.520247008311792
Si 15.875770860477408 12.839742472707185 9.023080656593688
Si 15.772991019531995 10.506903723257246 9.63508573845151
Si 12.102384460264963 17.53340706781517 9.707812234998837
Si 10.607184721626489 11.966269736656418 9.767411080996567
Si 10.34275390545045 15.965493564279237 9.436970935874692
Si 12.833141057666163 15.221924532774285 9.790820098112503
Si 13.792481836191746 11.828203467785455 9.96841302946688
Si 8.809743523880863 10.52222530025103 10.335637274316127
Si 12.893838405287443 8.509996560815269 10.823589800229469
Si 10.691278854450458 9.198341598657038 11.094475330769107
Si 9.06267819620515 11.097062720566132 12.669218149659626
Si 15.701989563346357 13.572486515942662 11.288415700451202
Si 10.852334556063518 16.8923454993059 11.711269889868323
Si 16.484606067738135 9.645097239113674 11.840518033723573
Si 8.738936884953217 15.971233389642391 11.245848935121678
Si 13.428467495137399 14.43419952262175 11.95594540304213
Si 12.141979458285522 12.43478074266455 11.526385779292074
Si 14.287268526016693 9.22492848854892 12.729881304941218
Si 10.075333009975859 9.055442452731029 13.343170101249038
Si 15.626781273627628 11.6743810345231 12.67288797034088
Si 17.243263145253053 14.92272259276025 12.6181320341039
Si 12.2330053009962 10.388822512874912 12.599711235713537
Si 9.059526957114237 14.997565449305705 13.43481770897616
Si 10.445637253476573 12.93559046050949 13.316091348233138
Si 15.136775585120928 15.261949936661763 13.674808027886222
Si 16.630602103112583 13.207552437986516 14.189081870688467
Si 11.533624596445158 15.244726518617036 13.289534982172693
Si 8.10750510372755 12.869663863982431 14.114347841911053
Si 14.159342291187917 12.975501767392403 14.454943031883968
Si 11.740387694411666 9.516334992446271 14.9418959708131
Si 11.900769088854107 11.951288953757286 15.064296971232713
Si 13.965904546771261 8.585388691710643 15.106576039818297
Si 12.684250284301093 15.090539606807257 15.308459034029793
Si 9.613696114230772 12.508461682447297 15.919821649620253
Si 15.808013474096837 12.522808853365637 16.31967901554881
Si 14.600641054105296 16.33564066233212 15.819222183330385
Si 14.191572998208475 10.842680397630355 15.849889046646316
Si 11.420568639807298 13.828343207103748 16.806869062413003
Si 10.478183957043926 10.420302868909957 16.795530381629916
Si 14.388959486343177 14.238058072402923 17.00741547925563
Si 12.54869595616868 11.585418272087045 17.455593273858124
Si 12.773683749999606 13.57101565399583 18.74593581374402
