42
Energy = -199.79257092 eV
Si 10.607427308238393 12.024518983931285 6.865281163937494
Si 11.79020282934056 8.12753980449436 8.164421877135124
Si 11.919156756596164 13.327368611668927 8.360218153560742
Si 14.234788482621006 13.05938484697112 8.562996772858417
Si 11.395554445116307 10.455748784580907 8.46356952396977
Si 9.22219554664744 12.082907702095676 8.795280758224397
Si 15.126038779476943 10.866737126352248 8.941734895700606
Si 8.622716402174605 14.328645749431116 9.713384491607268
Si 13.76917862374462 8.90933700901645 9.279105843919828
Si 10.910690554244116 15.298542358916803 9.385057463814748
Si 12.971299583546953 11.458804101817917 10.044222667809604
Si 10.933639222078934 8.02031029745609 10.394494218741215
Si 7.7596203879946115 10.485262193591776 9.831477680953059
Si 15.734317898177537 14.133051175933902 10.102806527329383
Si 8.626112834045289 8.430992164744575 10.832424490402664
Si 10.185773013076329 10.503642819138893 10.66181479746366
Si 10.682044871513934 13.150059541452375 10.576479002406836
Si 15.675733314132557 11.92841417806203 10.974005402722986
Si 8.722772036149161 13.4894361291466 12.045903467724688
Si 14.128352759010175 14.238772690948457 11.813812219841294
Si 12.821983201595119 9.297722247535221 11.42817268630841
Si 12.374662977374415 6.8759419650828155 11.944506253539107
Si 14.636874166984146 7.621985673723945 11.249181077819786
Si 14.488683494156403 12.798233428350336 13.67516902558892
Si 8.30907813362529 11.12810706929731 12.043604817970891
Si 16.285335942901778 11.275954322605859 13.137887006445002
Si 7.801793245913494 9.045274682028495 13.087412180160857
Si 12.359199354129434 12.487786397596377 12.28148133636136
Si 11.944335186891498 15.100244550579404 11.553646642684493
Si 7.784668085168639 15.39957724689189 12.98099539068984
Si 12.22141987547577 10.333437136415712 13.490395319551865
Si 14.806225285191902 9.425234102050421 12.876631443068973
Si 10.308276026793497 14.932876959323579 13.289121564908665
Si 9.931765801945966 9.381052567755649 13.984749265535026
Si 11.772589243472387 7.924933328414968 14.026702111653291
Si 11.404780133936079 13.208751196885627 14.424989227757191
Si 13.452883649835378 13.341289739754844 15.727987625568685
Si 6.965216247313429 17.169115121782994 14.062240068895129
Si 13.704833061037467 8.916690156094026 14.963431858026757
Si 9.30616563568697 16.964327250644867 14.043947337709454
Si 12.898243835505543 11.027246572822369 15.706624400903472
Si 10.583630555291045 11.205000802763553 15.392890726881642
