46
Energy = -217.59828661 eV
Si 6.6262485990408475 9.589517440039103 7.9930125067046145
Si 7.40468774507535 3.3545748739559795 9.027826369597722
Si 7.5257606966775 6.452579910949118 9.133494622501784
Si 10.760066587654244 7.338389442521549 8.870301705429629
Si 5.194297974942048 3.553239619916486 8.309749878047887
Si 8.375341255513007 5.369572915192599 4.827336847378804
Si 9.358695813679217 9.436792220110313 7.935417280367746
Si 11.751877643654302 11.265070563812959 9.804730494459061
Si 12.874250778555753 8.002764100922043 7.536795732581488
Si 12.474279611922931 8.851078710935148 9.849414741141473
Si 9.3875054977836 6.525688184688444 10.716209911913289
Si 5.894378270788181 6.006634616863629 4.017366875663372
Si 11.042066466777733 7.460046850513211 6.061157199374462
Si 11.708258109625534 10.11754351223819 7.668463365124623
Si 2.699873028640851 8.650068377960311 6.462973706746991
Si 6.009307367243747 6.894791342630851 7.224515501501576
Si 4.670376290562658 7.714536310798034 5.436647813584952
Si 3.1878689824463597 6.368909316902855 7.1286704120926645
Si 3.808597703419508 5.281352075157111 5.022802157494284
Si 10.05952459112554 9.383826570884251 10.363002710450706
Si 6.16727903660436 10.370562727384401 10.442960444008174
Si 8.347437237122024 11.57289495764143 7.256739871716413
Si 7.582562763000308 12.27618773231766 10.848150918926217
Si 4.309799272475664 8.675239385417285 8.434702360597658
Si 5.25306475577437 3.644378764897489 5.957220389636542
Si 9.308126018472935 5.96896252741429 7.315840089935973
Si 10.704321386836359 5.1969097770236194 5.391541039540096
Si 5.794787295495631 6.30818515281587 10.969126952319408
Si 9.612098731666132 9.03610758317131 4.947108204278563
Si 6.550532776337531 12.122530278818877 8.723044112523866
Si 7.465964771741766 3.0963990405229556 5.141772170439309
Si 8.492326276165883 11.251415864050168 4.901076354633779
Si 7.729498868185103 4.7572659273117806 10.968503740354848
Si 7.174630128118453 8.259588790696622 10.769826162928707
Si 6.569304203512259 9.835461263013373 5.475026256413091
Si 7.128919003405839 4.709313933882655 7.0372152302878925
Si 4.446795432937471 10.45924350394802 6.602659850843791
Si 4.343904655671971 11.131294493415691 9.002991520241116
Si 8.055548205220658 7.97769127843138 6.4430990154944086
Si 9.037716386745691 8.325572087130023 12.242744649358384
Si 4.576499104931823 5.781105586652582 8.959997373156906
Si 8.772264579657161 2.741617872253572 7.2143862078920105
Si 6.0151410248185115 8.396565501863122 3.4448782102634814
Si 8.22341221833034 7.477207671633481 3.7871060271003523
Si 9.39814588656769 11.574575272590572 9.424660077697654
Si 10.7776628766872 4.0877519803203795 7.558738848866297
