44
Energy = -208.73680348 eV
Si 6.873664722427807 7.34325527946811 3.0148310757804557
Si 6.787983904747155 4.670574792510153 5.830843068934435
Si 8.950761319619694 3.791955347064813 5.444081394238968
Si 10.439798522549687 5.426180418911701 4.468973682462201
Si 5.973813768200121 8.715185827448172 4.848563878342792
Si 8.214897070274596 9.351171393260381 3.445886375753393
Si 5.2989487191211575 5.968342562463051 4.514677968850517
Si 8.784841555807375 7.237866839214843 4.562693840130886
Si 11.91663209613732 8.169641831769221 6.3359131813317555
Si 7.5389329250943815 6.854494282680154 6.566436612315041
Si 9.931616403501563 9.336224832393302 5.460447195362025
Si 7.136898733263134 10.562755429721099 5.749371615969778
Si 12.255673211509809 5.769739845716569 6.143058775923259
Si 9.841971500125666 5.751080593711283 6.808029386861489
Si 5.179834066676152 11.697269167100062 6.9234942284258265
Si 6.54081614580822 3.5681459282310026 7.971124291498907
Si 9.869178474688713 8.037785852983369 7.676792988078971
Si 3.6863049991206704 8.731243885572704 5.5540712635733644
Si 9.032560048182862 11.355103001187558 4.411187945068843
Si 3.190999040480606 6.387582021467071 5.5202166236053065
Si 7.708050285108705 9.098922565591627 7.548162526790215
Si 5.151814709461558 7.206414500581346 6.716441183693993
Si 10.275250926057547 10.511592746166041 7.732035308958764
Si 3.153464862297467 10.283158174091298 7.416900853504003
Si 6.328145539537473 11.91958972316525 9.040611597736543
Si 7.552495822814237 5.811172279616887 8.82007922047881
Si 8.433461812892297 10.799446216248663 9.160623794145067
Si 3.5009335560984693 8.809977321732868 9.398131452634251
Si 10.625926796232418 3.1311913067153148 9.477495455191532
Si 5.463420016145501 9.650413151562125 8.227128434626643
Si 11.936668292379638 9.031028281587137 8.571895530510282
Si 8.925097187789705 3.617203587182857 7.866929803873772
Si 4.7113199523558995 6.745741304289236 9.000259148375486
Si 7.7077012965023135 8.151975541499894 9.94419544683323
Si 5.656488996789428 4.7194862417465435 9.953587491141642
Si 11.564320864291636 5.182941651964857 8.492771901219
Si 10.579814343748895 7.08014507408883 9.730663799500608
Si 4.047139210048765 9.369810990437387 11.742241398121188
Si 9.33056278493869 4.99636251914474 10.201851711917714
Si 8.340426144329243 10.13071178810463 11.451833296315066
Si 6.0197838115705995 10.295425886173327 10.768896569565008
Si 7.447739965842626 6.016745431542618 11.516290360308492
Si 5.605289607968675 7.69501341747646 11.024434501902219
Si 9.28542282239915 7.816798001353048 11.742710655085459
