44
Energy = -208.60100188 eV
Si 11.40687983759649 7.228740479961103 11.3736138481845
Si 13.759017225009165 7.309101240188008 8.686694709096166
Si 12.597652091620803 5.560964920010031 9.852552265181641
Si 12.93421373076415 8.811931147053528 10.338422837402709
Si 12.109782412670837 7.708597856540933 13.87905174851506
Si 13.081457143400673 7.479246569268134 6.328623571221289
Si 9.811254149480959 6.742908892113127 13.191107537661166
Si 11.637206927631313 6.307776166000833 7.8008558144263
Si 12.522087057456073 9.916332569911743 13.155854665903247
Si 7.710160774536094 6.373369037140315 9.074534619826503
Si 10.970205929010673 9.036295904266693 8.978440665911249
Si 10.02601647195438 6.888712394222697 9.386514727945837
Si 10.057360762874541 8.232636302780959 15.06497388447808
Si 14.342724102177398 10.384830657601583 11.603486787463284
Si 11.863876352201938 10.041317989292763 15.470650249211058
Si 9.242900313678767 8.808202841590848 5.901721561654061
Si 8.863130733282324 8.85847808783162 12.54271540801131
Si 11.412524585540616 9.23687281842884 6.68422593396291
Si 7.59815556165745 8.01816780440063 7.366457706990568
Si 10.502867822706166 10.52331174631706 12.04600312265963
Si 7.388590322115639 8.247568752726131 10.550710508403776
Si 8.302098681372755 10.436136901123767 7.574116588312706
Si 11.191652291870348 11.609124681456482 6.412040863371502
Si 11.892398449969805 12.44761615911385 8.525574386188676
Si 13.770813218493592 12.830984430222628 11.540957079008624
Si 9.738825968277222 10.588956155592815 14.503291647407956
Si 7.071319537538246 10.381387242409323 12.996247068517537
Si 9.990710223144749 12.847475047137257 4.84271736031186
Si 11.449079018724396 13.253518077324031 11.75337138419343
Si 5.856666446617811 9.722681850643003 7.2348817284049085
Si 8.561175569724004 10.88682583194912 5.01590755666447
Si 5.41388743641177 9.295253223439813 11.640765554616205
Si 5.949289328335099 11.801945643357293 11.165384117544221
Si 12.22099422644655 11.193402616251007 10.469290642010566
Si 8.72868366810368 12.766016506272049 6.900491271275008
Si 9.017190342209075 9.959631533252796 9.964705233243965
Si 13.573156325474326 13.94422454208352 9.262396600960106
Si 6.602284709806192 11.757598397640843 6.055667139640234
Si 7.841232563734322 11.99260327540671 14.654854115049787
Si 11.287678557583325 14.629834728162491 9.817581123377876
Si 9.435552626113736 12.599196318115416 12.875576166118943
Si 6.289806274583424 10.133669871192348 9.488734566039334
Si 9.608367305799604 13.11675654889588 9.124780299132432
Si 8.339668857087661 12.060392176097348 10.874051269287035
