48
Energy = -228.81322597 eV
Si 9.82105016506139 12.410115998833332 6.022822638154313
Si 11.349368471159682 12.003462231191834 7.7888043743751965
Si 9.691572277193801 14.129732954441135 7.710641969342763
Si 8.849226182993482 11.391418771810173 7.982347787669074
Si 12.485783723147673 10.076496431588698 8.62835393739625
Si 14.605804783070763 11.005701788064078 8.896688786905857
Si 11.297309873921945 16.017158504831546 7.851219543286319
Si 13.496582033326135 15.107292509619652 8.50764729396908
Si 13.79438782387029 13.044569134592425 9.670125652162936
Si 7.797634129373249 13.266070078087479 9.021877603002414
Si 12.46492833970796 7.712617097469187 8.440292168581026
Si 8.497883834969429 9.252514027404551 9.024913644127091
Si 11.441771861178118 13.839825400862745 9.466368986958287
Si 10.383207313216529 10.690602909134261 9.899525566568359
Si 10.520591294104094 8.136813123080444 9.703547660052957
Si 9.534007939493733 12.772829315691686 10.67979518698538
Si 14.950153677860289 9.962360308397662 11.0045371233946
Si 14.4676627368362 16.452804657416767 10.221416899176521
Si 12.085188329407142 16.508106853649487 10.126158373246263
Si 13.37520670215299 8.169394082681704 10.634350921239369
Si 12.573631144711388 13.1568341704496 11.800988952569005
Si 8.085869950973649 10.200847370965896 11.159972367152456
Si 6.8986645502092045 12.242651631589291 11.161888196617763
Si 14.914771801602381 14.229745741760889 11.471468958772258
Si 16.984355626042433 9.937149359807243 12.246637699792492
Si 11.70253284964437 15.43039902214826 12.216411934778108
Si 15.79032782898953 12.02718978339243 12.433455735371354
Si 13.402357086172135 11.01640437507675 12.640555960464292
Si 10.214732917109648 7.12379237537236 11.847345835747026
Si 11.655845566076774 9.24122701826253 11.984478231041164
Si 12.577307467647291 6.899807148068219 12.508718601637351
Si 8.03678612547826 12.807133448004326 13.151939544206806
Si 10.074717748241913 13.852154930703785 12.858822581110923
Si 13.78444240230467 14.262540967683774 13.623089720220843
Si 9.333273943989216 9.109731360589155 12.857674968410112
Si 15.449535025853493 9.51657816291447 14.074568097572959
Si 13.238058936060764 8.690036507494614 13.939349509818603
Si 14.76279471681932 12.174357973108137 14.51630874010253
Si 9.9085060102069 11.352918072852752 14.042105312999386
Si 12.426464219629164 15.996588422454353 14.467051413123027
Si 11.308720255798793 13.852813845647466 14.918262667451115
Si 12.310759669076223 11.711037394402124 14.65494593244519
Si 7.770568373351943 11.705261004606916 15.27040540801121
Si 8.63060945160083 9.394401544188572 15.142362992720065
Si 15.194535287743335 10.551204872691889 16.237444245494487
Si 12.862261498048168 9.729874901585573 16.02883544962848
Si 10.612530666176424 10.385689638416887 16.216936248933628
Si 9.743579017204418 12.609604405721257 16.40440020602133
