48
Energy = -229.19833222 eV
Si 14.05846473157168 13.853409014577677 7.256396670141218
Si 9.954043980498085 9.263724473247077 7.946298386181377
Si 11.887496432668677 13.522618872268563 8.252838802775425
Si 11.24305627422758 11.25392359345904 8.606960390142488
Si 14.126142633808632 15.079503796529465 9.287221256598857
Si 11.045533842265526 7.510435261056773 9.085429098870202
Si 10.281682848479376 15.163397023186025 9.024001467519444
Si 14.926136535580351 12.28541698343145 8.900066323638589
Si 13.26893877666811 10.87167771358749 9.702307405027685
Si 8.863102473528746 8.520150441834309 9.902529873666213
Si 12.15861668196196 15.923072509176858 10.194586009406308
Si 17.111781569263332 11.652345392338981 9.718637054811525
Si 9.212525419877291 6.191333695175134 10.064637606809553
Si 12.906657447638487 6.903925756383747 10.409923731208501
Si 15.805949490255488 15.44525810483904 10.933390419385972
Si 14.015997033817312 9.012434398896534 10.958711597514004
Si 14.139151723468157 13.295864105748064 11.03036444802932
Si 10.25822540589845 11.755496902177226 10.658939915368448
Si 16.652082003957318 13.269041196689361 11.397270782819152
Si 10.224371634561425 14.026224761574323 11.141021243720175
Si 10.854430761863664 7.045133776367524 11.567514983559997
Si 15.980629869669865 10.292632355122253 11.331199465110936
Si 8.963575965316936 10.133459110396252 11.657148760537273
Si 12.042051504796918 16.454191703874674 12.541977122746108
Si 6.716069192014231 13.633566034602048 13.07991309184039
Si 12.285507294802057 14.064446470717963 12.339996377351206
Si 12.204089024034564 11.343494528228707 11.924248139057388
Si 8.962697827592512 14.135766713739665 13.147275916599948
Si 7.830615255189169 11.482182636537487 13.327180386485297
Si 14.478998473216047 15.638679607785166 12.880244923352357
Si 10.859950706117264 9.012913982051897 12.899014801085906
Si 17.191462734604098 12.815807169450663 13.672704092931978
Si 14.928663073354572 11.91471004614017 13.03669688727924
Si 11.612452236553459 12.555394409033276 14.152950941811541
Si 16.705424023769066 10.3938007846206 13.648367299469097
Si 13.5214316636451 17.428883763866256 14.13622322769328
Si 13.141674055234253 9.529450335427258 13.109224316551146
Si 10.039839723213888 10.821342735347915 14.212422352196919
Si 15.28716522626748 14.016171286690462 14.439432177847193
Si 14.61629174665902 9.958410301779885 14.990998311442967
Si 13.665932968087278 12.164689391135953 15.181562852310094
Si 7.0879700628660895 13.04206009653057 15.399229039330887
Si 12.443104314438932 15.401782853093588 15.004324639079154
Si 6.343528601742231 10.7837490836243 15.197427781613026
Si 10.284380184710137 14.304071468603954 15.121642121237574
Si 8.566919877088727 11.085881631458573 15.986191387518321
Si 14.019315762811985 14.15808606835275 16.403304909506517
Si 8.927072578927527 13.29118930782714 16.8412528594032
