45
Energy = -214.14714402 eV
Si 11.343896040495704 11.908241343554666 7.083582180834169
Si 11.949684754566745 9.563154344748172 7.047805577810687
Si 9.091093345971819 12.64711744207734 7.266698235760695
Si 8.678705446029477 10.433202094215014 8.13463058831275
Si 10.573702239893649 9.020100068660922 8.908258474228758
Si 14.908659728458423 11.413281016016118 8.127878625557216
Si 13.349787228572902 13.052062429844673 7.514923320592188
Si 14.06869986708538 9.21208719537615 8.170343417732079
Si 12.619101870494054 11.08385070027381 8.967059046691432
Si 9.743298765927399 12.982709616602001 9.554824949853176
Si 9.151659506028686 7.297044248578121 9.629084907573203
Si 9.65110316446355 10.74523916332561 10.439452954857064
Si 7.02612400993411 10.62631282686877 9.941006348234776
Si 13.84943574802686 13.88980495391005 9.735094434339493
Si 11.452625812624719 14.196758320886213 10.619484424012223
Si 7.222819114623981 8.528307839763958 8.610905449475828
Si 15.826234988472036 12.508608316676344 10.02612750897855
Si 14.107966080064045 8.828519051630995 10.660694739036678
Si 8.90550051045739 15.18847764254051 10.619328330193818
Si 13.069937523435811 15.948563273306517 10.654308992542461
Si 11.722927490299137 8.814823126314412 11.135159318820644
Si 6.539794629283431 14.849298872472929 10.875589250055265
Si 12.686986832810287 12.104273827273467 11.202340411829729
Si 14.936933320584624 11.004118100001618 11.65291584227123
Si 8.177723468807663 8.91033986314068 11.142068798908507
Si 10.777715934562684 6.58363865565102 11.448276063387894
Si 15.320886826327172 7.0710622005174 11.672285818418375
Si 7.6989345760335715 12.82712977670467 11.09996761005009
Si 7.7257604878493265 15.160826560997576 12.941850780028732
Si 12.923191152414603 14.659284291703775 12.689875141489027
Si 15.252764301435995 9.093447192630405 13.07605814955434
Si 14.168193103521535 12.709938900099518 13.177679003620588
Si 13.070125826654714 6.980818787578989 12.383736248178424
Si 10.15322312431112 14.566197779347284 12.779004908035976
Si 11.188852664232364 10.699410998900015 12.532379840537386
Si 10.089591723773774 7.903257952086545 13.25957899057013
Si 7.8215053402092956 8.476830308365871 13.439931897196614
Si 9.161984620454602 10.395368979616961 13.787890837504468
Si 8.522335407518197 12.850879654753053 13.373651158756283
Si 13.077723226736357 9.326818696469097 13.959011236971294
Si 11.501178122003013 15.315445242414128 14.547452693677284
Si 12.579590954469811 11.552097606030063 14.45416613743059
Si 10.746749136969948 13.013892759584465 14.776896323230147
Si 12.025351600672499 7.317774152579059 14.537772915838923
Si 8.750744279689963 11.950387723162365 15.55377201427277
