48
Energy = -229.73487456 eV
Si 9.33897734188686 10.124142719979309 6.502171631797389
Si 8.905106607648767 11.376367877344371 8.505241223404843
Si 9.710360888787088 8.476983295112078 8.22673895659159
Si 11.304857429903976 10.880184018429349 7.627214467082051
Si 8.834204684311151 13.682144656887374 9.154784002096685
Si 8.518283591164877 7.717657042797833 10.180112353175799
Si 10.743713692426082 14.849237133016027 8.21517322087685
Si 12.20745586577319 13.109920986855743 7.316657243257085
Si 11.545201483399838 7.130148372747491 8.89821209795044
Si 8.789384584753295 10.018622144888337 10.427523797361602
Si 10.972492649667032 12.55961135243848 9.431456100355911
Si 8.99572630673123 13.6250830432037 11.567813947676422
Si 12.40014208139375 9.262446987895421 9.001814683859998
Si 10.756122534335073 8.31245542637185 10.927650470604373
Si 9.733472100883768 16.423228404837683 13.319018418471515
Si 12.15471717270283 15.543079255163983 10.157435405391178
Si 7.785461110538516 15.074148409755152 13.083148338160202
Si 13.499017072565774 13.726390568619728 9.202611987750801
Si 14.837806077015548 15.669179977011275 9.556211950671976
Si 13.471920852014847 17.54913013604017 10.230199131216509
Si 11.113983657437892 14.575551785237268 12.050473342915671
Si 8.728931941564912 11.418304910268 12.341593142316206
Si 12.79740939949675 12.86640415938751 12.431974353884566
Si 14.393265011357833 12.228787942996695 10.754277561723267
Si 14.963030408143359 8.92775985948739 16.560446308825032
Si 13.130930525469713 10.404535303108991 16.09539242908767
Si 13.56263379015455 7.559937743544626 15.175538640942964
Si 15.13028583805827 10.099252715208863 14.487052360968882
Si 12.766193778148558 12.754706404047209 16.59908186145277
Si 11.181794038313328 7.090674076137885 15.147964252009132
Si 14.846410677823052 13.92640363493292 15.720020394005704
Si 16.225722821657516 12.334267251055204 14.350504842561786
Si 13.993957650392147 6.533086169687988 13.033215889555136
Si 11.359635662746523 9.41094091466991 14.88326417456262
Si 13.746973861178502 12.107891686960883 14.425278795055076
Si 10.892122917432276 13.1029059704682 15.092498661249603
Si 14.266658116312303 8.829743761629672 12.67098967385019
Si 11.972143014325576 7.880166818907771 12.991341161945988
Si 10.29594276586289 16.816545002161334 15.592722871947366
Si 13.8838858124896 14.839915252176056 13.652836070935443
Si 9.079562530091948 14.760791768307795 15.095077293621157
Si 15.599070546899378 13.509070490182694 12.328467299105927
Si 16.583589206094917 15.362872299028611 11.166854103933757
Si 14.639354108328767 16.39598539755759 11.978302650522757
Si 11.623908931196773 15.235855747993153 14.386867113733636
Si 10.660619922245969 11.260343390771077 13.643231186355315
Si 11.059670466927038 10.867753119761582 11.227221402535909
Si 13.382943664399301 10.174439807381082 10.97137792509519
