45
Energy = -214.07325977 eV
Si 10.667612731572298 8.123970599457033 7.33827407650441
Si 12.75270787820612 9.19865993130917 8.261759226649348
Si 11.236946375506488 13.280274118413505 8.543578331123559
Si 11.837530360463566 15.541016595746013 8.662687789480517
Si 12.654997316866277 11.436079060238859 8.94557719821552
Si 14.194787458479729 15.229851415745978 8.921014213291738
Si 14.440125309833308 12.866881466621487 9.504537846392818
Si 8.516943589569266 8.991890615865849 8.209317923295774
Si 9.26660802023986 12.955604682234842 9.698836324895069
Si 9.697760189446287 6.949859961755351 9.217530498058645
Si 10.746222046083176 9.372924330573685 9.613820706793403
Si 13.526518108728144 8.700063210543314 10.566952481765679
Si 8.683018016254474 10.66490325656612 9.908114364856957
Si 12.696258313572915 14.184194908149832 10.622324267911468
Si 7.396327043887814 7.136527405370159 9.098387144284708
Si 8.500362049006084 15.054120519110127 10.590243107466877
Si 10.812498506859269 15.730504125024575 10.970084635274105
Si 10.795801150220502 12.073169154425566 11.293206111148844
Si 10.876957499234166 7.562668271220126 11.204766774900703
Si 14.208133355450178 16.3957183753606 10.916814500388286
Si 15.104327044806517 11.998086782142744 11.595141577446315
Si 12.922558181718106 10.895978302613933 11.383175663372898
Si 15.55944354249164 9.65754974117736 11.586381648429109
Si 13.012500786384717 6.568804641001661 11.526726997287916
Si 15.616384207999365 16.07132465103087 12.754261652507077
Si 10.846008441182239 13.19058538949572 13.450516562035855
Si 9.155759348458822 10.526205622181115 12.248035036853702
Si 8.683428347125199 14.26666219099991 12.800509713901166
Si 11.911658573049245 9.910028732153005 13.399940292511632
Si 9.900044835589153 8.492420532687765 13.114480195543143
Si 15.71324590869011 13.68620095818749 13.130142928038639
Si 11.363745407661089 17.20187414449612 12.807057010172139
Si 12.962059577002053 7.703856201703852 13.646802612951852
Si 14.551479084717505 9.358527502515384 13.705305947923701
Si 13.320233366243473 15.951369092047672 13.357174923647067
Si 13.341344270812828 13.255087146476592 13.414898192369074
Si 10.124589945939096 15.570937224419593 14.04583212962899
Si 8.41088314056562 12.164014026697616 13.791792527491001
Si 13.687796067626048 11.201226905302212 14.874397331541314
Si 11.116741715469159 8.007839281480484 15.218819761819429
Si 10.11128327475267 12.080815648851841 15.434237639897246
Si 13.222710383365133 14.786356447476988 15.408002908216826
Si 14.954665344581981 13.150480989055344 15.361935969334649
Si 11.696584665194099 10.337802445980893 15.79516303955051
Si 10.946473047717516 14.2611472247146 15.80550404345278
