49
Energy = -234.11951059 eV
Si 13.705660079630915 10.040990015590737 7.2725570457349065
Si 12.765696729567575 14.276663229960919 7.481596792129584
Si 12.289405726564386 11.904927892190058 7.757419659866457
Si 10.64720491307005 8.998061708076834 9.563570968027568
Si 10.233978152300528 11.112895897422515 8.66671881827396
Si 12.552033690804418 8.191497803885106 8.216387222912838
Si 15.833140788968858 10.277286067409026 8.525131645095229
Si 14.639558434591661 14.231832341253396 9.053256792455162
Si 8.15688351491685 12.295894838624413 8.879449852529325
Si 13.656109883219615 11.23845888553028 9.586250694013666
Si 11.850687480625327 14.264167437988663 9.68010105046743
Si 15.861255676294174 12.35333150661778 9.789901579637664
Si 13.735192458526848 6.553213914501567 9.494093180112984
Si 10.721170988042063 10.983397117945943 11.285683462043737
Si 14.504557823045646 8.73201680373991 9.848881779489854
Si 8.964391016091021 9.219780747335731 11.227696360172834
Si 9.845998338918488 13.156041639892758 10.310138550141795
Si 14.757748223637325 15.461467940492204 11.039149825464445
Si 12.454316163225494 15.814048065575264 11.41948643588262
Si 8.034687259242487 11.394763480968004 11.14354955762407
Si 13.565222182771887 13.210704486730652 11.113304383570824
Si 11.982467746140463 17.880691478683435 12.508462351251953
Si 12.299263567173863 7.721213788464097 11.041199815487987
Si 12.956380741632277 9.961237428112403 11.44813671145839
Si 15.670255605521206 12.899976558821795 12.196343989179095
Si 16.266860036762314 15.143826653131704 12.8842994216813
Si 11.831722242077248 7.309844438782758 13.370516429735847
Si 9.084436287244452 13.7613180919589 12.492938857699105
Si 9.868996205632149 8.55800371694185 13.295633834480764
Si 7.021870967406634 12.62303052508903 12.951026723813609
Si 12.402632796378962 14.112354589196098 13.168196589236352
Si 13.523592534825076 17.334335512037512 14.187749619564114
Si 14.128676080067152 10.00629630091334 13.466716124157339
Si 11.694041425955279 9.976776873493042 14.014640679081538
Si 10.96173903349517 12.244657068953126 13.453555021913589
Si 14.328268478717517 14.879834493241809 14.379749544286971
Si 10.38191863371423 15.016587193772757 14.091570141231221
Si 16.016298356001528 11.32620429642318 13.96763147292362
Si 13.256158755088336 8.369042784278147 15.05614731203746
Si 9.31818845837532 9.647558162348593 15.29538388674031
Si 14.10013790219876 12.459455847892047 14.631076295981325
Si 8.722794939324197 11.78660603060303 14.442268618156506
Si 11.005728842237492 17.26602864911732 14.622066938224823
Si 12.152013887881314 11.961421640558568 15.908025874445338
Si 11.52770029506007 9.67930278033021 16.424339989838128
Si 12.566665418788999 15.480803958017539 15.938455437530967
Si 9.989400033804941 13.347346058408206 15.692247238505164
Si 12.591261543449706 17.820025966411077 16.35112545330769
Si 11.598829983446743 13.73797761474246 17.389370294859035
