43
Energy = -205.1360893 eV
Si 11.946277865474565 10.41147386194228 6.746128130405349
Si 11.474407320628387 12.391831085692134 7.874549353605293
Si 9.505823283870495 13.37788206810579 8.761124454831105
Si 13.146264208734603 14.08710147223211 7.8448505637430115
Si 10.855555818737287 9.533436991235677 8.674375234553413
Si 13.58124201342361 10.247243378523654 8.57958739853735
Si 7.831930554974566 12.019254975275176 9.560670462629504
Si 8.613157296211018 9.779983169488494 9.45209594446823
Si 15.92374860263561 10.683450949339695 8.815667526221423
Si 12.643721785096696 8.182321940552688 9.327839140456634
Si 14.912660061727568 12.836635299533002 8.94547896740811
Si 12.729170334144099 12.38775600273253 9.971088511843954
Si 12.546319491980393 14.796336669921331 10.043532808866166
Si 8.329043960118646 13.721235539174808 11.412821648345435
Si 10.237173947614885 15.048874179617941 10.2180715892256
Si 10.593397647626793 10.49244996169332 11.021631361175428
Si 8.38989325805258 9.547791795363482 11.787491239761941
Si 14.186782290673644 15.95960193856811 11.281376303230672
Si 15.601636926370624 11.064566086575653 11.20373891601107
Si 15.287319196225184 13.838341102321378 10.996132440820311
Si 12.243997480730345 8.777346272353352 11.593293969589105
Si 6.183932670941438 12.82759510962859 11.118038206305902
Si 9.134927710067421 15.826853224186436 12.140567575760478
Si 16.579973112565096 12.983139768704769 12.755895712082255
Si 10.157804662183366 12.389296726133985 12.439508164039912
Si 7.660945814239931 11.642721098393023 12.67313283186838
Si 13.163109932356498 14.848143591134336 13.069780214238602
Si 13.407101523519193 10.817919274126112 11.945944257868781
Si 16.810645220918133 10.564099696500774 13.177217904640012
Si 10.813772434160796 14.492961816725433 13.398272242611347
Si 13.016352052993929 12.414048647202995 13.653339538227627
Si 9.926904032036981 8.678938359729928 13.336879698489682
Si 11.78402054427675 7.150718702224316 13.284198767927391
Si 14.89993574011751 13.859874219161236 14.282361446816864
Si 10.96185570316099 10.726571223167602 14.067786878931772
Si 8.87145239529242 11.954425843634274 14.699108904212201
Si 14.611808330816881 10.439114352929487 14.221196277372627
Si 12.703920134562477 9.023204167215258 14.496449030119944
Si 10.0160989217228 13.935250682066876 15.633234991476462
Si 9.19290436150755 9.677079489229497 15.439055335291057
Si 11.832881760481655 12.345587799657174 15.821996365493204
Si 14.229929624187616 12.195943402716894 15.84714012516202
Si 11.441743928770022 10.003142021219974 16.368893521264738
