41
Energy = -194.97237573 eV
Si 13.513391047415418 13.580189462241286 6.975139177371038
Si 13.295809360349923 11.350199211560232 7.661143557546718
Si 9.404776486713907 12.229109684666621 8.081262886655276
Si 11.643702710404273 13.132598096793512 8.477728909579085
Si 11.116894135776722 10.62084518035292 8.096545812626736
Si 15.237852274635399 13.771362372171351 8.693456196769626
Si 14.637076383297144 10.695437083953928 9.52305885411274
Si 16.56807773775833 12.04492389216877 9.85621408908961
Si 12.315308855062046 16.43522949157217 10.155655953836423
Si 11.503992070799452 14.289907686861063 10.61134138649083
Si 9.634658122001074 11.664948098946729 10.467890895969338
Si 11.208452665963447 9.38112610952346 10.12827442282841
Si 13.443852458825154 9.050544202708794 10.789080002064924
Si 14.433102033541873 15.284600566509248 10.274889291117105
Si 14.37549249890987 12.885462314327162 10.857084524899031
Si 9.409764703080382 9.574295701623331 11.61899206192642
Si 12.394808796202314 11.536290840660024 10.393661965588825
Si 9.304174513306993 13.793717919529342 11.500651467955803
Si 15.182037659328998 16.16480377969904 12.32320783864358
Si 16.150219624303258 12.416540327789578 12.386660643106664
Si 11.815859829636 12.576707254259464 12.50455787565084
Si 12.846465407641109 16.055652500164566 12.427441179335277
Si 13.218583534488847 9.974580799765386 12.90333708551992
Si 10.909753623307777 10.357113578982807 13.329237721778883
Si 13.896286577566364 12.52989832852848 13.659304986680386
Si 15.496984527615679 14.319956609966658 13.750463764349481
Si 15.336099467408658 10.487674129741585 13.814994622978219
Si 10.303677150403027 13.929530413623484 13.76769917328581
Si 11.477728562802069 15.973553234437972 14.31042606424362
Si 12.56503454387027 12.976518542082893 15.59948681594368
Si 10.005029688473376 10.198185824902518 15.538818395977307
Si 10.21542559566698 12.60628878696015 15.76332174522093
Si 13.24591717773897 15.264396907303956 15.812253688680281
Si 14.339917858243748 11.258456597135604 15.895623314603476
Si 15.673980010844044 15.143854425329815 15.99397838307785
Si 12.109555394045046 10.760685118831613 16.500631937600506
Si 14.636289410656337 13.29264887979158 17.149921241242037
Si 12.36817772660042 14.611996479006134 17.93473523384919
Si 10.21298670852529 13.563656279999794 18.03430929955102
Si 12.073459934982113 12.169277467512577 18.40672470159814
Si 13.856529136132052 13.42442182233838 19.407978834978216
