45
Energy = -214.4106774 eV
Si 12.349899677997445 12.699560064942483 7.078977625329928
Si 10.71408308946216 8.2905406029412 7.8537874433389465
Si 10.135404678531598 12.458463546998098 8.127071782732003
Si 9.257048398199954 10.256695285542829 7.860350130459553
Si 13.60433870154882 11.131224530367007 8.376405120782918
Si 8.924385659819395 14.480999768219219 8.474588151375512
Si 13.154806337709928 14.789460857304054 8.26801703452182
Si 12.72799071361681 9.068512182685204 9.145742635647562
Si 15.793690578567462 11.986731366561665 8.796903960556294
Si 7.255161490052221 9.884498563980609 9.21827261076907
Si 12.157812848656198 12.823911020929518 9.529008949543691
Si 11.046068993920242 15.04613597156115 9.501534639028224
Si 9.61596356998458 6.624408104415943 9.32710339725072
Si 9.56892304030465 9.062355810912896 9.916465495710225
Si 8.87255975001229 13.637409569237766 10.712462518239608
Si 14.485760933327915 8.147886917335402 10.656394349569954
Si 14.60847453023481 13.796986522836175 9.983279745902806
Si 9.959195704488549 11.493068998317879 10.467830462868378
Si 15.088907058282164 10.468667124684465 10.403937329214534
Si 7.525805938387635 7.753200058669289 10.145662501714213
Si 7.661839817619623 11.195110404240424 11.234867184483853
Si 6.923300302040287 13.32057949100531 12.038055574240289
Si 15.14920883093488 16.02260643316349 11.089830171516304
Si 10.80816096381707 12.19190806929411 12.841797526997613
Si 11.661985887660514 9.798965578579898 11.140939120155767
Si 15.731349121670094 14.066418944648623 12.13770717738129
Si 11.122515742920235 14.601578069464347 11.822259064233144
Si 8.798573396874218 7.240554361492262 12.797675529104149
Si 10.889013696650052 7.317691781143642 11.325629277929343
Si 13.410326863911278 15.223721800277811 12.583880941503251
Si 13.448070223430436 9.1740584682031 12.673015075586246
Si 6.5576870113048855 7.619359716392525 12.416198372427468
Si 12.951030760170248 12.822261972896149 11.786221804047125
Si 14.56434869955809 11.22275757657975 12.584732701400041
Si 7.841634633406526 9.6343233020404 13.063542613488925
Si 10.232022424813895 9.32124927281349 13.01693901301524
Si 8.54097838428905 12.644742842372017 13.629013355809036
Si 13.919598051287448 13.424718938863506 14.072517235707595
Si 10.889441630127585 6.8937015066083625 13.7195552364125
Si 16.118232842242165 12.491301207314036 13.888391595485183
Si 10.206669430920169 14.341804838154237 14.09115517096197
Si 11.83139477098623 12.910162520653579 15.114336894241328
Si 12.17201735064529 8.716392532571232 14.643552509223593
Si 8.443321473683397 10.797875930626821 15.155559915322915
Si 10.893277192021008 10.71771876824833 14.901112250860171
