45
Energy = -214.29764084 eV
Si 11.347970110917675 15.610340357901098 6.625448659607886
Si 9.318699716998117 16.1803063599428 7.858631766149687
Si 10.345357634418592 11.632895941316864 7.830153331310872
Si 10.421237724814784 13.970952468784361 8.222084409978132
Si 11.468441138367755 17.284671489119436 8.544451793286026
Si 12.439743633170751 15.062682427021999 8.7257762747551
Si 12.5104880412661 11.364921250275419 8.835645396395506
Si 14.085997897663454 9.53403613914159 8.877680395506552
Si 13.861459397885783 13.283947880446856 9.301614118699089
Si 10.394440000317505 15.626514790522597 10.019989633135081
Si 16.141504880382165 12.912967659914388 9.832445863276462
Si 9.665162864758987 11.232616596795827 10.031385989575734
Si 15.59949068477391 10.651172259052043 10.367361853039082
Si 13.377747223667114 7.944825254632764 10.515372800449379
Si 9.11439916497173 9.026927096063208 10.621509760988227
Si 13.109598578241995 10.383350426038493 11.049062921997347
Si 11.31617153589759 8.799906300050312 11.362400537664744
Si 12.687688129159765 13.172035640015682 11.337696391685823
Si 16.796414569440966 9.370695012075743 12.023534107748828
Si 9.770433000690435 16.283525873262413 12.244758574070907
Si 14.550265826798336 8.85398136920871 12.440312580338064
Si 16.06535974337447 13.154489264278471 12.204345655378877
Si 8.33943140241933 12.318528438126778 11.704307068398547
Si 11.60336117337551 14.861816517347382 12.549274118749555
Si 10.704058570667224 12.263006584714027 12.301209287651595
Si 9.054098813521831 10.163739641890398 12.70066739553853
Si 12.987627092705994 14.266139033081098 14.390554460091062
Si 9.218676790854452 14.065057637408096 13.065974328886286
Si 13.978419647712427 12.37773470321905 13.136743447429598
Si 11.413601446793047 8.702841408974205 13.716992768737594
Si 16.282345956511012 11.213243000436808 13.450674609755472
Si 15.583341972765632 14.131738352296226 14.334592650980577
Si 9.452413452998977 9.355796777064183 14.88770641942757
Si 9.242738805385434 13.117637010450562 15.320037669505268
Si 14.44741467197875 16.203129138502153 14.754723535659227
Si 13.149461891165782 10.795006674707974 14.712711986868962
Si 13.588158188917454 8.46170127142932 14.594317179207463
Si 16.45577677850385 12.27961510321143 15.619030866077697
Si 10.805867794199877 11.321399300537104 14.518008419281305
Si 11.403736336321659 13.586909567351457 16.170163247045142
Si 13.738577717970998 14.962335282672877 16.6223892525553
Si 14.191492022515604 12.312604802146057 16.317884267354408
Si 12.183149196543699 12.14003920115487 17.932459538517726
Si 11.97790663757315 14.668148648639676 18.28600132958623
Si 14.211646314754129 13.495444222910994 18.44328751179163
