41
Energy = -193.14620502 eV
Si 11.198877212142502 9.033271828916956 5.153400897349517
Si 7.386433943721522 7.456064561238306 5.788765201102362
Si 8.695667308720587 9.341841751136245 5.139453844037166
Si 7.762470914775227 11.192494378079347 6.290556830846651
Si 11.384430390909523 9.962142465045552 7.461303848477201
Si 11.004977402726595 6.592691898161611 5.602700838622209
Si 12.834493475006678 7.904673897589056 6.7221625582727365
Si 8.686356831781707 13.365972986358688 6.6581991397342195
Si 4.144602316184819 9.258116189776814 8.360916338182559
Si 9.19403778825567 6.567160411114733 7.152452020906138
Si 13.257421139018852 10.445454329444615 9.01409348279044
Si 5.972043512515174 10.565105949862314 7.701276374690704
Si 10.265747467841845 12.057556560227585 7.790895543564813
Si 8.154925927307758 9.081427393080098 7.498550452447695
Si 9.858611147494761 8.30634245569958 8.947893899847037
Si 10.699009304093556 5.553590836500152 8.962146570397307
Si 5.951072327860759 7.938231623425448 7.6176442293033695
Si 12.471911624891597 5.55019572866435 7.328344577067114
Si 7.975921462973479 13.656178560990472 9.004280495776571
Si 6.573992057253852 11.9013456064101 9.513013945212744
Si 11.211412755186094 13.389921013114273 9.625894146607095
Si 12.174583308139178 7.427484090930333 8.974874661214542
Si 13.290410001247999 8.650415877766756 10.670512621789355
Si 7.8083151598403315 9.682845048542266 10.754041532234316
Si 8.373725097756104 6.9889469130642565 10.288434966962438
Si 9.132339835390736 11.523619792682089 9.881643892075562
Si 11.199100372410037 10.109733702082558 10.208294904388385
Si 8.075586448554478 5.0354418782476085 8.817561038740756
Si 6.108193571538801 6.425745214905417 9.42949899665623
Si 5.613734214973424 8.697166261506972 10.385593085867788
Si 9.541672842931625 4.715656847923328 10.838471668538133
Si 9.345527630606712 13.767826813998166 11.097950019292162
Si 9.81348333697363 6.815049914964892 12.318871079420912
Si 12.995062032341126 12.233531999942675 10.635347710563815
Si 5.856890552700509 10.994727274951954 11.588158263669431
Si 11.229769605768416 8.735689466756321 12.205859958117465
Si 8.061450564732525 11.644029521381922 12.356602513018327
Si 9.087521195978857 9.468818327573306 12.927500492347134
Si 8.550491334307104 7.530140598042164 14.281337119293532
Si 7.265498437313535 7.702528085026826 12.311809306659763
Si 11.00074369404983 11.939337493089552 11.902206482130364
