46
Energy = -216.65526728 eV
Si 6.399029083160521 7.433111115983466 4.428695289056946
Si 9.396520034050432 8.372605593395214 5.321083678675903
Si 8.486271773630447 6.264251007727916 4.631765158861827
Si 5.8699564588215525 9.70923325092084 4.665807217094872
Si 11.682405792929767 9.398930960576962 5.2420774781117805
Si 4.381634212881006 6.4887373666333445 5.2404490934849965
Si 3.8598892767325257 8.426915365381097 3.82599687818443
Si 7.644189246542618 4.189061872081699 5.683182729194083
Si 7.9656431790586195 6.3217272108880325 7.071515711176981
Si 8.009908295567529 9.545693633783339 7.202518454434968
Si 10.369746172456734 11.247628559946838 5.9213595185801635
Si 10.418478153850046 9.01894698687373 7.4287326413291295
Si 5.966217331924394 7.7882530681539555 6.856923003788527
Si 10.484432532551441 6.059667791153804 7.328260219935975
Si 6.995818202500823 11.67764452597703 6.533829144186099
Si 9.093125275158322 4.041893882158694 7.570138566516759
Si 5.214823573119366 10.195605373299705 7.177198353355784
Si 3.46303211900889 6.797608145180102 7.462200201820673
Si 11.561220909618745 10.884238654044431 8.60648496472773
Si 10.596480271786273 12.886163981864266 7.661277249190753
Si 8.332309816918242 10.543948634457111 4.8166822621006
Si 3.489609148403858 8.864117792422654 6.16757851517546
Si 12.808555659576186 9.199343455039374 7.3859058191761155
Si 8.635484170921995 11.700097889668918 8.449303786232774
Si 6.732077954695395 4.450854969996967 8.026060038401798
Si 12.085164089877125 8.288000265851132 10.169169416314865
Si 5.026260167758855 7.465911038839321 9.175351762677913
Si 10.713456124829468 3.8767990929891236 9.305471907573322
Si 12.17816585070488 5.9273493710349 9.15590649328535
Si 13.938339540573642 7.610368234104636 8.774131376006038
Si 5.827065567274438 9.863641812151075 9.471246850322332
Si 10.063227405735603 7.468248793900614 9.277373808131506
Si 5.422792049254363 6.503661604943704 11.553060360248878
Si 11.455187964486552 10.556522532572151 11.022615607559327
Si 7.917672581054211 8.67362149298849 9.608033220814324
Si 7.096724835407344 6.26370432032809 9.669717396312965
Si 6.989261576885743 11.932398877223715 10.261381807748267
Si 5.197450914456053 10.987698834121685 11.592089494382574
Si 11.570798616402305 8.399566116953803 12.602621427859884
Si 11.855099883161031 6.188685445449635 11.640741352859568
Si 9.276552510677913 5.444970396819807 10.436155351355183
Si 4.2514042716994735 8.612155727470109 11.10939425263383
Si 7.488638589550896 10.496707431181239 12.39127303052808
Si 9.546298970606648 7.350708518020144 11.778923977300359
Si 9.136110627002756 10.536645255594904 10.54113224959156
Si 7.176509202277765 8.115393735395392 11.828222869240726
