49
Energy = -235.25878951 eV
Si 11.183612239450946 13.462624959538703 6.838896619517522
Si 9.947399936956852 13.716165956479042 8.871344910402406
Si 11.58557236717243 9.421986739725913 7.487893350160983
Si 15.232806982308718 14.01123641026122 8.563139064834184
Si 12.931258385001378 14.405999122755107 8.157994855573785
Si 16.149269260215306 11.740817032362147 8.599767253650743
Si 12.942842557303104 8.953080667511612 9.373891069823298
Si 10.03321409752175 9.882890735956636 9.304958006788297
Si 12.385753507760048 16.372016701420094 9.378044537939072
Si 8.55920662275476 11.827982354109272 9.62441899899369
Si 14.923617311831887 10.068872164971294 10.009367350956751
Si 15.410055933914842 14.68932095227427 10.848528170674932
Si 11.84833376738892 11.647113372415122 8.242801760896812
Si 12.192264283643894 7.210130095316435 10.785434702174067
Si 13.563638303091718 15.959564307951235 11.423620249359566
Si 13.76144060690827 12.257156026089548 9.53553770876826
Si 9.84842844125487 7.916383090838743 10.708624910121856
Si 7.901191667708311 12.179023370740008 11.911378992122154
Si 16.933789110238703 12.02363968596879 10.831807222771864
Si 10.081228758332982 15.958960864793614 9.99140437917697
Si 10.85222189056046 11.945962291895821 10.531434825187963
Si 13.564973206333951 13.145199829134757 11.720439626087103
Si 11.772644796266563 14.27239247880531 10.51218471045059
Si 16.809083098727044 9.810676299161063 11.549939404638842
Si 14.285294056846881 10.672696838847386 12.294285084713653
Si 9.85725804406581 8.734169195802309 12.942131179695389
Si 17.184648307918895 13.90681564913792 12.21368568575629
Si 6.376226990630199 13.762958406629565 12.789839945348474
Si 11.609075447778535 9.577942223307613 11.393424201888765
Si 10.611109116796959 15.44435367708227 12.284809576409682
Si 11.911322235671573 11.691951380712121 12.860356366799138
Si 12.52465970832709 7.940578003540937 13.083137024190153
Si 12.560254280524122 16.12966991869724 13.589626101434948
Si 10.745331296647775 7.093236483882266 14.429355353335241
Si 8.2941351528653 10.435046544433746 13.467083912972287
Si 16.24949869098895 10.37476661551263 13.81808691865402
Si 8.701783343631757 14.35695465199802 13.091933881170181
Si 13.23864656003362 13.813039506827042 14.066606983036044
Si 15.386116006193912 12.70035558056439 13.35302461795302
Si 7.115232673141332 12.597802164557674 14.801140642285024
Si 14.282541118503637 9.077523013366458 14.207131086334615
Si 9.815025576376721 12.339265402269604 13.863867743511374
Si 11.015454721213365 9.085176924439146 15.68859157060276
Si 12.661991108252233 10.541248868364159 15.04198042265789
Si 6.9711031726053045 10.285687943300566 15.473322201033763
Si 12.884752862398507 12.632615808235736 16.132231380379533
Si 8.80300414067385 14.065530095326203 15.457609214029613
Si 9.294970356916329 10.584135173727127 15.99959972678463
Si 10.51304017192299 12.583606692535634 16.160608771524988
