49
Energy = -234.05401378 eV
Si 12.48112238585281 11.91283481618881 7.188016725745839
Si 14.638015052373987 12.29756382536086 6.4716418585897335
Si 13.472384141815578 8.34357742419674 7.367226525857664
Si 10.663710083809493 13.262127987885647 7.558694044973578
Si 9.25197354526999 9.737688958393928 7.620720412166378
Si 11.690120911577061 9.813113986308988 7.8079498869461075
Si 15.03702495477367 10.203549152717953 7.553750709426783
Si 8.756229217478282 12.01895901830173 8.054683548029095
Si 12.144842363885719 12.496088920277083 9.88517304492078
Si 14.42618708028941 12.790904988828466 8.811157831736043
Si 13.631686157082845 9.378999699199229 9.581758310240973
Si 8.302008549584606 8.923208283609702 9.655590151351214
Si 14.158248204506119 7.030166304633736 9.263427293907762
Si 10.198342068213874 10.66262825029115 9.71372735166042
Si 11.285674717216565 14.805601644982941 9.12624426294231
Si 13.557166545370567 14.784021249329772 9.763133601293388
Si 15.475873459405861 10.908547128116522 9.81631539012456
Si 8.405653904068501 12.52223558623561 10.310771948881738
Si 12.20728715236087 7.096504626066899 10.648228082635347
Si 12.125137691516052 9.523938234201077 11.434910012709292
Si 10.07354394212604 8.024334008641606 10.90765881622832
Si 8.08484024258414 10.536739555540104 11.527314652072185
Si 10.010551104887517 16.100385930509077 10.565495726770042
Si 7.981242857273887 14.807259256023391 10.984298360890755
Si 10.315321379109871 13.690590843431327 11.262284771690567
Si 11.23110252758237 15.480412510034848 12.561320282775057
Si 15.631334700818089 13.834100256919964 11.786351955649225
Si 13.863886685549236 12.004978140699883 12.180672785171732
Si 16.708727461029444 10.200238311742384 11.747435690528231
Si 13.418446238619136 14.606341609232937 12.139168107216356
Si 16.244138274858848 12.085788458484027 13.216528662466137
Si 8.28726749872025 14.511435785690253 13.34062270323774
Si 14.58919723127821 9.56882402740691 12.627744872714958
Si 9.402859093058757 8.748028963063053 13.078123300101563
Si 13.237488035521062 7.6131105823936105 12.718958290561563
Si 6.721125870845277 10.881319685738584 13.42736341668619
Si 10.81640558697977 10.748535729452607 13.129547721412184
Si 9.873195595326315 16.040904697790147 14.452105985706112
Si 8.806989600219651 12.140245369392902 13.683731248584383
Si 11.512877247230024 8.396540649597489 14.092157991284443
Si 14.588069393444759 11.001649505877948 14.464957752360847
Si 6.735940980940624 13.124967340536289 14.679982622110225
Si 7.65685045150702 8.986480843983228 14.698464835587334
Si 12.292952395006552 12.497165291690507 14.119684396667584
Si 10.348282114899593 13.780155079112857 14.784055359859815
Si 9.28220500071261 10.515611558881199 15.494801609499604
Si 11.650931516523878 10.249891440810668 15.488237190753873
Si 8.67501226887783 12.693168196826965 16.152837394174313
Si 13.242495795078568 11.81050556243089 16.246941780161986
