48
Energy = -230.78395368 eV
Si 13.805891688044863 10.606916347397583 6.887027685821532
Si 14.821407051140483 14.667466557319127 7.568215007168462
Si 13.274185656503526 12.88015843698958 7.453372016809218
Si 12.040035101345818 9.67597583960642 8.22600910132015
Si 15.919944289446 10.641526742501798 8.288787203093362
Si 11.054682390846287 13.157845427938396 8.084074015594775
Si 10.09961353644947 15.222900411461568 8.771292130895912
Si 10.037154670496069 11.003595527123368 7.9494316498654545
Si 12.02573839388585 7.5335914497662 9.2616062166474
Si 13.707745351302092 15.25544056793908 9.603199450269825
Si 15.634608479007197 12.949908954981566 8.999493677247086
Si 13.70721338288005 11.24727807404192 9.338899332028445
Si 11.802142123817177 16.594966806241867 9.974010895788574
Si 8.736227347184329 10.851154832672893 9.958937825151208
Si 11.555412948563184 13.927944480950835 10.418660263500891
Si 15.259198863908193 9.852781692869447 10.507791857007525
Si 13.536441559220368 8.356194726020847 10.894350344895235
Si 11.396752084567561 11.40415046296735 10.01602318897529
Si 8.857509194096986 14.568390102897625 10.637898470629532
Si 10.486627824056832 8.07602788419424 11.009876727997964
Si 7.352086828104861 12.702020690906117 10.564891159385851
Si 16.438317854397514 13.406884428112091 11.170058700919643
Si 8.159558678454523 8.772363735898773 10.976649667951385
Si 15.054337438663984 15.376867374057174 11.608801794239513
Si 9.493129994682855 12.47864103693895 11.848320126051345
Si 10.418789236422516 10.260833047548994 11.968816435676485
Si 13.874867075677521 13.192856955960863 11.162231947021656
Si 11.328752538209216 15.584610034752457 12.134539385752788
Si 11.402537495099455 7.80819717604905 13.16640056620525
Si 8.195793749816502 10.040719491837761 13.058119845644397
Si 13.720907631940506 7.455817436260652 13.037973914692838
Si 15.330116418688258 11.54940215609083 12.193391206180525
Si 12.042524518927289 11.29442839401222 13.429406827122929
Si 7.229065913405509 12.207550320243003 12.913967138684232
Si 13.309613460343721 14.710248665834106 13.06392978484993
Si 9.008297604573869 15.824771486114862 12.678459822366424
Si 8.877964799959638 13.728621144393335 13.812804596052576
Si 13.61979630620725 9.575878678312565 14.151086960558258
Si 10.328508548950408 7.521785057057053 15.226648924389824
Si 8.7606616608961 9.3666435427629 15.188475950866462
Si 10.316331045588692 11.252929119372286 15.079409855909809
Si 15.279640599660059 11.28561466290137 14.542395305407823
Si 13.42370874550312 12.886791305757455 14.556314704744027
Si 11.886014949087269 9.21619189328028 15.684687497772023
Si 9.442559084090789 13.294383071604573 16.06720886616258
Si 8.772513410782352 11.022896386965183 17.036678413188362
Si 11.7968472808935 12.823906528404313 16.318650564199825
Si 11.249151846585242 10.754857505065248 17.38164962967041
