42
Energy = -199.39618095 eV
Si 11.481386489893543 13.04517333159679 7.293855044173607
Si 8.692972007961908 10.15164579035164 7.8058263088047095
Si 15.20639783061793 14.241089514898036 8.268882934628596
Si 10.329073752151617 8.419829292849988 8.30466734503351
Si 14.35014348847566 10.087710097966543 8.234120403173517
Si 13.65406773805128 12.454285063534838 8.100985343006904
Si 10.76339392053874 14.151092415214826 9.240020833627007
Si 7.007926096702612 7.159427388507093 10.212331644861273
Si 9.366621905809685 6.728625157525537 9.610839128977405
Si 7.808548315777632 9.42164132327157 9.944596360798593
Si 15.98905796720701 13.041676988417052 10.16971833601238
Si 10.274201875919374 11.624147563838372 8.795866543341926
Si 9.012333146202414 15.335478865034174 10.363935491380575
Si 12.487551650163493 8.91709728693469 9.151610032101575
Si 12.243802471289033 13.469462351775364 11.05005233003357
Si 14.10101255959119 14.734746006436222 10.374626221016024
Si 10.514203728464967 14.779772430650484 12.21389902557117
Si 15.046236808444485 10.928248025999004 10.36143397322709
Si 12.529744945535006 11.273805685632638 9.905568277042843
Si 10.229429541272458 9.042322546863133 10.671706093069153
Si 10.553423850927157 6.545468315945014 11.640513358803302
Si 14.785127100044779 16.269808873548314 12.08679249809557
Si 12.35605476776297 8.120264732725163 11.364260953669383
Si 12.728733091523468 15.235377667532354 12.863444877096033
Si 7.322727954539278 11.396742717596315 11.2566424896913
Si 8.536584258296246 7.822553421204342 11.927985356987467
Si 9.783807318447181 11.366866909973009 11.70233061091193
Si 8.647809798072922 12.954913530159288 10.115429219460092
Si 15.643421460111819 13.992116147806708 12.25262073388531
Si 12.252710306510384 10.932489161721895 12.347219587042902
Si 14.69524407436596 10.64151706217407 12.63592422228767
Si 9.617929862709879 12.979088293432623 13.46406954164515
Si 13.49076448538219 8.715009372695958 13.366939641631385
Si 13.275334682399194 12.969145445932321 13.469832876873037
Si 7.224421413898819 12.56079652214293 13.466119091500357
Si 9.068995267570736 9.757650828920928 13.306347252559611
Si 11.4272457215616 12.041895433340787 14.683579466804598
Si 15.4719902937563 12.431781048786958 14.053552323123046
Si 11.337053541003863 9.5586327305497 14.282752923031149
Si 9.27087534427067 10.955643216680482 15.581318047995007
Si 7.226023804126501 10.450253064643341 14.743222383348318
Si 11.40676707231516 10.505860084856138 16.525712583343402
