43
Energy = -204.90641276 eV
Si 15.103713007265378 8.76181431421635 11.279703227264877
Si 12.643346688028897 10.668017304218148 8.960622263049366
Si 11.000104015585046 11.7404086289382 7.455451563041159
Si 12.921539990620147 13.107107189068905 9.655837639958813
Si 12.810407879159916 9.036276615693948 12.558024508469446
Si 15.595352598807452 11.17962638120415 12.937139899869798
Si 8.950167579025674 10.902373199150137 8.24107164714845
Si 8.919362395691396 8.77650157105806 9.180040389287546
Si 14.771984108855362 11.530991431734456 15.11480706722369
Si 13.311192696364419 9.721848581334681 14.903304203113638
Si 14.234116532935024 14.233647306613575 12.660780706092625
Si 10.160213869399323 12.749980962894597 9.59892028531593
Si 10.775347882875106 15.329158168475983 8.93180982606351
Si 7.789259012287253 12.886872419638586 8.548301399183837
Si 9.69644831428997 13.85865839402334 7.399954635052869
Si 9.771770750740977 10.55121003553974 10.859583357824276
Si 7.81512671204889 8.92187036353551 11.369229036408724
Si 13.162006260884112 15.307890811272733 8.741045111973463
Si 14.939282981265938 10.186074033117944 9.320418824319617
Si 15.1244183145428 12.36508588597615 10.381272279614931
Si 11.228625270328783 8.924583807188451 9.771698757816614
Si 6.536870421571284 13.103886571288573 10.708800127753522
Si 9.071122091299271 16.441423735438196 10.113298094758036
Si 16.414949434103864 13.29384914446544 12.099612122901398
Si 8.639866486365344 14.131527564795622 10.960868884871134
Si 7.6823048920205785 11.29008302120484 11.825724713104087
Si 10.692275195918905 15.829101931568342 11.695994328707263
Si 13.50908820385484 10.85506086364846 11.325629684254645
Si 16.71997010168283 9.070337366103116 12.962486511194998
Si 10.052580385149673 13.937349785774565 12.9067268975914
Si 12.080879176865874 12.887022929171335 12.022122370644048
Si 9.761276992916564 8.510778453337421 12.651104241981932
Si 11.527906125829844 7.325762226352707 11.498394409160184
Si 12.90773476011334 15.415809395544386 11.098149059474313
Si 10.970325967884499 10.628591323450213 13.462090330095092
Si 8.716914778416765 11.545859254862798 13.92286935982216
Si 14.684214047787869 8.059092962299566 13.941719367405614
Si 13.915726495525078 6.773224681434481 11.994732358607603
Si 9.03264461574958 13.630517802555831 15.051445333060796
Si 9.297463612685483 9.355395783760475 14.82042782291768
Si 11.066669619475512 12.420847887241292 15.180212510443663
Si 13.195495602353251 13.06585917392949 14.349670697733774
Si 11.236577253826328 10.12526385927832 15.975547267821758
