41
Energy = -196.36125133 eV
Si 10.825422609464024 10.987887327054443 7.169311345267474
Si 12.664068048842381 12.110369894143886 8.153622183706176
Si 14.870210871167503 11.207948751810447 8.143894483810897
Si 14.203556518265877 8.863242699147493 8.26463677247571
Si 11.85877564426871 9.259090873940577 8.35728975278435
Si 9.800212809824096 11.429947923400439 9.307723125429908
Si 7.806265265421794 12.783638246500313 9.421489488889526
Si 13.02191102983914 14.369640789621213 9.144738577235515
Si 11.160063051385391 15.033099058076465 10.47727755338945
Si 11.809300123032948 12.512587531444199 10.398473525172264
Si 10.537325581681403 7.621717121294219 9.485916842720739
Si 8.80668258506944 14.747886254299559 10.341474457117839
Si 14.30576893742814 8.316049750838358 10.603145687012056
Si 13.46384363507844 10.586338303616138 10.096222262641387
Si 15.620215885451545 11.933212971450793 10.270572532706993
Si 8.878398719009525 9.236468420895825 10.099550922512497
Si 14.165961462450348 13.597336902131845 11.041860224505161
Si 12.163893691906772 7.513831100071425 11.277631834364406
Si 11.12028557718699 9.751723539882258 11.004020619548443
Si 8.076298756929202 12.632361951663977 11.8175994149586
Si 7.686113323525382 16.51141070320216 11.485042825669932
Si 12.07464128717072 11.48242455257398 12.69905287042709
Si 16.10350189279782 8.016636328743445 12.073943453962478
Si 15.498970946873666 10.336902438065342 11.990136695757288
Si 11.473867165587661 15.603955857705362 12.755637066708557
Si 7.943228932683646 11.057287940124048 13.626944539660737
Si 12.186215433266987 6.330288550476874 13.31606123364036
Si 13.605867911026738 13.248537838956441 13.307914351937326
Si 9.293597723388887 16.42160465496165 13.211598207492555
Si 9.008101920426736 9.329558892917756 12.421140725251611
Si 10.32206575627315 13.38349793592222 12.180038768200692
Si 14.012068715705897 7.938379863102578 13.282713146258065
Si 10.899113118808046 8.356947440887131 13.401967237819543
Si 10.146283680697243 11.781673089818467 14.19611188499173
Si 12.783054340593994 15.070769349862584 14.661772775650078
Si 15.33578411425343 11.675421392798249 13.94832398274061
Si 7.5569767742388265 14.681104394362574 12.94810387774129
Si 13.639768046592444 10.07792288651236 14.121167520429708
Si 10.530278417273022 14.11689866726924 14.623525346785089
Si 8.455297169813962 15.295377944209566 15.086616984728652
Si 11.499746656162289 10.002023997107983 14.998739028761266
