43
Energy = -203.96937032 eV
Si 15.067599517697458 16.395559838761038 8.853415624260789
Si 14.735385051838337 17.256815827307243 11.270786050288425
Si 14.805835077172421 15.319527645484161 12.705619227502215
Si 15.227571094577177 14.055731813909267 9.296729440053982
Si 16.07244400890376 13.638772242717392 11.514197316352012
Si 13.003026279519514 15.302753529006102 9.20145360215819
Si 12.722309410259355 16.00971429600275 11.425349231231271
Si 13.808264944171517 14.499191111779366 14.867116747883982
Si 14.357357191162889 12.044076151187227 8.274213913269659
Si 13.61013062744861 13.654598781472108 11.268599046660901
Si 11.127375026022298 13.914000597804694 8.628417120146999
Si 12.361976377452145 12.203990420988115 9.941460633866628
Si 15.07103106198625 11.56740008339848 12.090514769223068
Si 14.055655295024192 12.073191792662813 15.068277307866223
Si 10.282885464142524 12.928724104184669 6.59590211774428
Si 11.261060183693234 14.737661149544493 14.838955231989257
Si 12.089189596584912 11.716043329690294 7.525622298774371
Si 11.011043032063085 14.786619294752546 12.456924576085662
Si 14.446881590026825 10.610195934481313 10.08944693389932
Si 9.757889655034251 14.37936756656148 10.527254109024293
Si 12.406569694693632 12.954048881032977 13.371270750383903
Si 7.896757207534317 6.770208992650302 12.181525506148011
Si 7.849197083406709 7.949919218763056 14.365768116972959
Si 10.004048909066036 8.816229161031218 14.84932225781303
Si 10.090229688845346 7.633262735021334 12.041404899993411
Si 11.664620808347081 7.3993615447279195 13.81665395401223
Si 8.007835670002782 9.035298550649832 11.407081298680614
Si 7.327344872960715 10.06019331852195 13.394971774330669
Si 10.60564266802674 10.701760149696069 16.32000410994897
Si 11.175032951425042 8.147431991544677 9.885508970157758
Si 9.780193039987815 10.164268830160617 12.825578512191772
Si 8.578064614577377 10.612017576739165 9.647455856880043
Si 10.987970447267365 10.465088497994794 10.789970804850485
Si 13.280988715441186 9.02415778479269 13.188360101531584
Si 13.003842272512236 10.477574936250543 16.430475266517906
Si 8.853947474344167 10.870207294269731 7.2812931230014595
Si 10.233620271175369 12.543396706889036 14.868373019538911
Si 10.730279458958282 9.87183818612426 8.29350613026952
Si 8.404923716591732 12.172541878388543 13.39373417496476
Si 13.14704649859647 8.891476082958194 10.846101644067735
Si 8.898646144176205 12.355272746363527 11.134639467383256
Si 11.901622787961994 10.724502887590665 14.210405989327338
Si 15.261993241704532 10.231335258526899 13.981667695135195
