40
Energy = -190.17302616 eV
Si 9.816832305192143 10.628085717077331 7.863614290561721
Si 13.910516048287976 10.073643105781407 6.959354758079521
Si 11.821080561118457 11.313925230135691 6.830607932051878
Si 11.808730539671249 13.2695673012776 8.240029587042162
Si 10.905208180360239 6.998114585832429 8.342530712236794
Si 9.853089103634373 14.639391028791586 7.969859475773217
Si 8.780708935327247 12.631718136014062 8.662247359697076
Si 13.916740455954333 14.466989263197991 8.327729587612996
Si 9.215647256744678 8.642170031752023 8.840871670373343
Si 12.147083899759716 9.058917250765662 8.119471879009529
Si 13.689413412765175 10.627305571250004 9.25808876107565
Si 11.968353678226055 12.120850139528313 10.482503605544762
Si 14.370361029373194 12.93517560990918 10.122980728007477
Si 7.020115940997357 12.523609487186535 10.370242945009219
Si 11.073095138136294 7.292319651805884 10.75492967312986
Si 8.93442479339546 7.7302495074937845 11.563939692816888
Si 12.532020641214999 14.548360620116787 10.310103274272622
Si 9.940808439660977 14.602350063880253 10.3631935831888
Si 11.09750535810429 9.724332513777538 10.244482676275068
Si 9.513975693965676 12.06220292795417 10.85802093778297
Si 7.234982283054578 8.198638983288959 10.023008731498749
Si 7.348841448876793 10.294972846447788 11.117821203669484
Si 14.81549747267397 10.027726483217007 11.269983040241396
Si 9.151603650124574 15.802676713645962 12.174657563362166
Si 15.920509452264865 12.131025656237652 11.756346084936276
Si 11.574050937114798 15.218313984221988 12.395924515588186
Si 12.602993932654215 9.870187326233678 12.284930836712444
Si 9.422808945865157 10.288989038006504 12.61831629738192
Si 12.374512613024443 7.45000656874457 12.741537485051023
Si 8.294000460896587 13.531303266681102 12.229693619602026
Si 11.89530153762924 12.87303444743449 12.819971213227477
Si 14.60460064809335 8.329124262792083 13.076008004162551
Si 14.013733151959002 11.905111018902913 13.105702898947955
Si 8.610710402055716 8.149012797810284 13.853802694414417
Si 7.145976194543289 10.112843905233364 13.518044150381883
Si 10.905607737039249 8.754615794730542 14.128129785590412
Si 10.66870929075143 11.519937268535054 14.335059357899615
Si 8.350621759679793 12.09811324181011 14.170260364426449
Si 13.616630632066272 10.072077351070416 14.488396775165443
Si 11.683510131062413 10.033925394747081 15.958516341517551
