42
Energy = -198.53370814 eV
Si 8.994395584758657 11.097102689105428 8.267832441156008
Si 8.378193675321615 13.359339216868577 8.680574392758778
Si 8.256784598269968 8.926764484275969 9.24752075217488
Si 7.794246950155482 8.714772948102024 11.802051415031238
Si 10.518666557952265 9.925017525940644 14.918287923181849
Si 10.814212426790503 14.13760426684791 13.128792875372204
Si 14.603089470831984 13.046090558320305 8.471666205571003
Si 13.667187314730988 10.822597231699461 8.327608649056737
Si 14.061542599791746 11.934004560748114 13.412837625068198
Si 10.59736176359352 8.85936481581635 9.665505788820711
Si 11.46747039864129 10.383524508453297 11.348591987587637
Si 11.654841943228272 15.661383790621844 9.620258956662429
Si 12.183933387767453 13.023315992241185 15.454302252229024
Si 9.947569527649518 15.509138738996201 11.286784851009333
Si 11.079041917308734 16.76925618390756 13.167407644857185
Si 9.256819397757026 10.453331626428708 12.87168390324396
Si 8.465072099095243 13.587644350197268 11.349730857067822
Si 12.964668325721233 9.856226561778783 14.642640464690023
Si 12.26825566622545 13.60229028980026 8.633181078635133
Si 14.615069530945632 9.54788744373507 10.466802688226633
Si 11.976114659299578 13.702370310712583 11.096261583965775
Si 12.620824400308653 15.13674881380298 14.35969851253107
Si 13.976285214893679 14.193959248119127 12.470232267357236
Si 8.088320183199139 10.93148425093257 10.695159936915719
Si 14.09596068323552 11.638455381354934 15.800621563210068
Si 11.142843954257001 7.728967609906645 14.272169345682896
Si 15.629936629934116 13.372466056380281 10.728468806583015
Si 12.966926782328827 8.554643727649408 11.933841101083663
Si 11.688987253851668 6.647905371690547 10.882340796915754
Si 11.507700253323016 11.71620348582687 13.446221264928214
Si 10.223573474954986 12.167446239385983 10.143142952535467
Si 15.690915816201096 11.207742895278027 11.792755339006924
Si 11.395264337001324 11.492163901268112 7.974408562442485
Si 8.946546629511683 12.7315273190417 13.604938841218416
Si 13.618754792545825 7.689660466579362 14.0812882802252
Si 10.20018164451963 8.214341590779195 12.085083619456883
Si 6.564351049370609 12.696886107229819 10.239760751005107
Si 13.6357420933244 11.862023325445868 10.560414279843346
Si 14.74231331487601 8.676700609096091 8.248423529167477
Si 12.683863581615197 7.990456520270925 9.257912826850312
Si 12.922444963696721 16.21222259141563 11.623918537701659
Si 9.988386233355783 12.109860940791776 15.820247538220535
