41
Energy = -192.65875671 eV
Si 6.437245642524911 7.678707328029755 6.636901721503889
Si 10.659230132042012 9.37522899171192 5.397795556184101
Si 8.424810952008764 9.196603461785003 6.403115453815044
Si 7.881076480314255 11.444088057012824 6.885654119472637
Si 11.602712607149574 11.538922163668415 6.185616142265353
Si 7.814189072862508 5.938640005698405 7.730066998052246
Si 5.282868375246309 9.135179618797517 8.20255143957249
Si 11.85358439703737 8.258494884309542 7.205425377227843
Si 9.882400879260112 12.75490478674268 7.11363267092002
Si 10.23806203768116 10.250800572564911 7.766066062781258
Si 13.85990823632734 12.216731082818384 6.834721936877247
Si 10.265793270938003 6.370122921248061 7.937059418294736
Si 13.406297434992943 10.113413024306181 7.652265617478505
Si 6.085565145634558 11.526652657514576 8.5057453879125
Si 9.188809472360425 13.787581691430889 9.192501226801738
Si 12.237039761845969 7.59614260069023 9.49155691819987
Si 5.275640109439734 6.403843580097505 8.571638503823621
Si 8.66951010201238 8.084432697836847 8.607637529381494
Si 11.341041923319665 12.836315156140808 9.750637447753029
Si 8.47452930326595 11.510858479469418 9.514668457424305
Si 9.989134880712053 8.49220058632065 10.647985785653349
Si 6.758675399337708 4.5150371081752825 9.325220984132576
Si 11.175849499835644 10.462432868706042 10.052335978538084
Si 13.600224591214795 12.265292356231633 9.25072459303705
Si 9.096187158665765 4.948606472773692 10.106245067980765
Si 11.582497513191571 5.188382791234782 9.61324096701763
Si 6.207614705205361 11.938430543894267 10.985505081758909
Si 10.120439966742202 14.157043114909461 11.517318166733318
Si 7.165895396254012 9.510139789497297 9.718824402568691
Si 5.147137170443164 8.054516775719478 10.43896265684326
Si 11.31756396755394 6.722081515780978 11.655262049658008
Si 7.203407082781167 6.724452104586826 10.26195119803587
Si 8.90612699718756 6.538614258690184 12.007051727826507
Si 13.469888554426078 9.785396784726013 10.022770073545209
Si 12.879520121430168 10.431966194505828 12.283045695026201
Si 8.439581812812957 12.339922806810108 11.845819632862119
Si 10.973396816800502 11.849569603190423 12.075815343390733
Si 11.182036760778853 8.840500435730814 12.839629172267221
Si 6.426570130727666 9.670437357777587 11.962591954544074
Si 8.751152361415963 9.014741573079629 12.688043495924052
Si 9.33467799291344 11.140465412478289 13.724292203607941
