40
Energy = -185.93426893 eV
Si 16.18112749592435 10.999141892400115 8.330741210959154
Si 12.25722868709866 15.348478720724124 9.345091267154947
Si 15.819511448508795 13.531066029572948 10.710060173950355
Si 8.333329878272977 10.999141892400115 16.183716163238305
Si 9.345091267154947 9.165978653473196 12.25722868709866
Si 12.25722868709866 9.090327124002158 8.773919810996537
Si 10.643082939262651 13.345167196145246 15.581861276910825
Si 13.804397200247099 10.983391344624373 15.819511448508795
Si 16.18112749592435 10.999141892400115 16.183716163238305
Si 12.25722868709866 15.348478720724124 15.169366107042373
Si 15.819511448508795 13.531066029572948 13.804397200247099
Si 8.330741210959154 13.51531548179734 8.333329878272977
Si 8.694945925688533 13.531066029572948 10.710060173950355
Si 8.69494592568853 13.531066029572948 13.804397200247099
Si 8.932596097286503 11.169290178052208 13.871374434934806
Si 15.581861276910825 11.16929017805221 10.643082939262648
Si 13.871374434934806 13.345167196145246 15.581861276910825
Si 8.932596097286503 11.16929017805221 10.643082939262648
Si 8.773919810996537 15.424130250195033 12.25722868709866
Si 16.183716163238305 13.51531548179734 8.333329878272977
Si 13.871374434934806 13.345167196145246 8.932596097286503
Si 10.643082939262648 13.345167196145246 8.932596097286503
Si 10.710060173950355 10.983391344624373 15.819511448508795
Si 13.804397200247099 10.983391344624373 8.69494592568853
Si 10.710060173950355 10.983391344624373 8.69494592568853
Si 10.902654014742366 14.421675907837589 13.38143063410484
Si 10.902654014742366 14.421675907837589 11.133026740092614
Si 8.333329878272977 10.999141892400115 8.330741210959156
Si 11.133026740092614 10.09278146635974 10.902654014742366
Si 12.25722868709866 9.090327124002158 15.740537563200911
Si 15.581861276910825 11.169290178052208 13.871374434934804
Si 13.611803359454955 14.421675907837589 13.38143063410484
Si 13.611803359454955 14.421675907837589 11.133026740092614
Si 13.38143063410484 10.09278146635974 10.902654014742366
Si 8.330741210959154 13.51531548179734 16.18112749592435
Si 15.740537563200911 15.424130250195033 12.25722868709866
Si 11.133026740092614 10.09278146635974 13.611803359454955
Si 15.169366107042373 9.165978653473196 12.25722868709866
Si 16.183716163238305 13.51531548179734 16.18112749592435
Si 13.38143063410484 10.09278146635974 13.611803359454955
