46
Energy = -218.19306042 eV
Si 7.451088812928033 7.048438999681324 4.360718947227011
Si 5.118969468547112 7.095202030459036 5.1095977859622845
Si 9.298418275209958 6.643592816779131 6.055821331234792
Si 11.033613319578965 9.748757969439227 4.374866561213288
Si 7.367050639146307 10.162750176291773 6.186759479703713
Si 11.276064281148155 8.057319786160027 6.188131130517309
Si 8.832244671772019 8.85739685863825 4.9080866739
Si 7.191526553107897 4.859748656714235 6.587821761587734
Si 5.16965969612463 9.265172714779574 6.196159219753774
Si 8.497844813230316 4.934470541181709 4.578112122161204
Si 10.759600122511179 12.020130297343416 5.4227827009885
Si 8.284355659890753 12.32300021823971 5.88910459030271
Si 11.970589290293779 10.38772600789672 6.752227680179416
Si 10.295994494280631 9.050538978079171 8.225099296981147
Si 10.599903944874983 5.014773800327207 8.815847791565217
Si 5.8643312870336235 12.009775764196478 8.934983292128136
Si 5.911568756768819 7.271141554287732 7.4059136910617385
Si 9.665014335325987 11.231379703282608 7.5880636606200165
Si 7.226594412900042 9.750646936667312 8.541328831977692
Si 7.001559590103979 5.657229643748503 9.502528803765697
Si 8.184170696007337 7.497523613848197 7.914250572404865
Si 4.800169836884459 5.219838688025347 6.708528088806849
Si 11.929996520754036 6.974418373560769 8.212161997166774
Si 11.61350589282287 9.396682792577431 10.197398674947115
Si 5.631473667175685 8.515011753117305 9.98582079551311
Si 9.234600451925461 6.724082887122461 9.877629353786423
Si 13.46669154424371 7.844423236789392 9.850764555512006
Si 10.220122832448597 12.59834392430307 9.465924706520557
Si 9.059814770982829 4.294086184190637 10.821697613022714
Si 8.155180634788222 13.034141985123359 11.161811758724324
Si 7.744176339759963 13.072857743769816 8.077181138171039
Si 11.504837065895673 4.178481999147863 11.102977310817629
Si 4.660098237956792 10.056820742854065 8.422875069881467
Si 8.413288177488852 3.868321891458384 8.396432978694198
Si 8.92272062885011 14.585995148592659 9.495215151905844
Si 4.711473566495302 6.345651089417061 9.282573578865506
Si 11.908319945807852 6.4892485152564845 10.933973866676956
Si 7.838460657572774 10.601913913564864 10.63673972203868
Si 7.8751933879563945 6.09718194884348 11.833970763788306
Si 11.90812062200782 11.720552485712995 10.89842984571736
Si 9.765773412697287 11.518279820331275 11.921815638356154
Si 10.3461432666637 5.8595197254629845 12.739812797378654
Si 5.970762199924752 12.101475000720345 11.353498425115276
Si 6.136383347708367 9.725078251126407 12.17997712018136
Si 10.033972609348437 8.132894216921946 11.538808103038772
Si 8.599617781827314 9.609041134740037 12.816835540907796
