47
Energy = -217.83147575 eV
Si 20.40657542998772 21.7944901249142 14.920291861350707
Si 16.56918546473338 14.789206635153294 19.38451838511092
Si 18.154416268150907 21.644095383219195 14.465549034551513
Si 16.81103030457193 20.56060224111592 12.912717968873178
Si 14.597266600543927 21.266986013998842 13.072907582791089
Si 22.49551739587298 16.193753439205963 14.584747533302606
Si 17.09912457254012 14.75710199879433 12.694216599921651
Si 11.767188692465904 18.793191096228387 15.336943078440978
Si 19.333599193981012 19.842160211694864 15.65965633298991
Si 19.01123965751393 12.130470213944879 18.096320031036004
Si 18.615819476857702 15.70684547769942 14.470611141205072
Si 20.49010929881265 16.579055336319836 15.797521230198605
Si 19.150650859002482 14.832051581433404 21.039800119678617
Si 21.12794533562761 16.752188275519053 12.632417285731078
Si 12.443026279225839 20.867475609172434 20.35093533965407
Si 17.049495561127358 19.107089880718846 15.819882756681027
Si 17.22353086185428 18.30905262581899 13.626304575822243
Si 18.294055745462757 16.430320139543937 19.55936786955683
Si 13.670533092678218 19.18800012546555 13.952113415324154
Si 13.543295137727723 16.91636003284774 13.244604216181882
Si 14.703882602718227 16.017438191430745 18.5709499827475
Si 15.416169734850834 17.72069419779905 17.043774883295914
Si 18.838475000104776 12.295216577085926 20.45438406715894
Si 13.645829241345012 19.242867029219294 21.441330470052154
Si 20.45727374527363 13.76214738526213 18.880652889783082
Si 13.433351123953901 19.160303204833994 17.039128289722242
Si 12.528739785923289 18.84712015282097 19.23248010847496
Si 15.822977980180799 22.337199333345318 14.84330382552254
Si 12.855606260779613 15.102855188227943 17.326679540615615
Si 15.011187991937181 20.256300221772573 15.636803942809998
Si 20.972494628778467 13.335507764650451 21.162358316793974
Si 17.052712742311375 13.781581337754961 21.46447321737774
Si 14.388143819300788 17.495204972922462 22.73583693431563
Si 16.710243963336858 14.559960693538237 15.242556184207565
Si 12.08002267051659 16.541391307693893 19.026340535716248
Si 19.532677864683087 14.96691406265053 12.263416305268667
Si 17.738340635670156 14.052284397910187 17.426739379017775
Si 19.52955939753272 15.589078286043554 17.721924065791224
Si 20.84068356138024 14.518796718813215 14.268064306470654
Si 15.857888091229087 16.770877567133997 12.492907865491674
Si 16.076007650097996 12.74816297575231 23.30965019880003
Si 13.763378263374904 16.93068577750528 20.602524255676894
Si 17.275979693515755 11.38498926134478 21.97907698755037
Si 15.481365321864185 16.56905101534819 14.93287499141304
Si 13.113147714429097 16.87425618285243 15.740782775377046
Si 18.148228353589612 13.785201618759137 10.873653487292875
Si 19.544570039209415 18.012555493788764 14.02699212589652
