41
Energy = -193.37729011 eV
Si 10.16357436195135 15.508179593729091 10.251996286718558
Si 7.080394483687646 12.956653513784131 10.868161279417867
Si 11.119785622986388 13.955611486972042 12.005273038709122
Si 9.155820712151678 12.58349025560017 12.020021969038035
Si 12.133067412018129 11.235357499326115 13.372685673484527
Si 7.52445214608116 13.62306341535139 8.58990815462646
Si 6.727186205109584 10.643130139007242 10.643596001812595
Si 8.200259908071287 10.162971119324872 8.455631033440394
Si 9.944178865636275 10.09881447834896 11.915012074493946
Si 12.285162561245462 14.670450033662302 9.906852522528398
Si 9.6599932751261 11.425245878223398 14.021128061574933
Si 7.792673983726642 9.111128128983125 11.993906195968963
Si 12.704880631456026 13.636023037724804 13.811780385901134
Si 6.611905682751952 11.761287097103024 7.253952792945476
Si 9.120681767175746 12.016459801993246 9.679468160283278
Si 13.734361742054125 13.791808198377108 11.576006300020046
Si 12.058978544880892 11.875071364587425 10.95434365139096
Si 5.818528822022983 9.908912875002274 8.584094981912358
Si 8.871775520526503 9.139115683427212 14.184950542147506
Si 9.975926277008963 13.924748362788655 8.396417451264382
Si 6.379820285639101 6.141857951866806 9.093759599070468
Si 8.762272546731898 11.389282438539901 6.321879647134056
Si 11.307582553904547 9.689952296151027 9.777339061665305
Si 12.07002927438015 12.469216878665458 8.656928478161085
Si 7.890504437143113 7.236966333851174 10.543139761247255
Si 13.96963607982553 10.556285139393193 11.882423569233847
Si 14.365050262526843 12.05910225843506 10.067548831750951
Si 9.664350631389434 8.060208438154623 9.118802002159752
Si 11.236011550950309 8.843538055862641 13.483445956206262
Si 9.690931041469863 5.893063264557726 11.317799474875642
Si 9.718324656784443 9.26423377531259 6.659155074487884
Si 7.019635211563511 7.975568571333588 7.68938302603926
Si 11.703912397611704 10.355220193617203 7.519505335304759
Si 9.86078484023742 6.831869252975588 7.000117589983043
Si 8.669434639063645 5.532592996211393 8.718062934700525
Si 13.4331444432418 8.759460973073182 8.1842476150371
Si 11.87099709822468 7.035789950138454 8.28089899260101
Si 9.968867983421635 3.9519861920694623 9.977322036717185
Si 13.266579241999791 8.680528756128865 10.60484931753664
Si 11.82893580159236 5.450682787953017 10.011470646812292
Si 11.750198382420358 7.186962133864458 11.666126639173536
