47
Energy = -222.88715417 eV
Si 13.70509144748548 8.31292100458581 9.358463496575336
Si 13.91953241201875 12.04205835391134 8.075007748871643
Si 11.569374715359672 9.323888776221393 8.90353444494357
Si 11.567582448813752 10.60270039208729 11.21905078553348
Si 9.323984211209034 11.096766254804871 10.38265132676869
Si 9.221224180864578 12.041480675126861 8.069645243621437
Si 7.969836512670947 10.086476433630413 8.598672479698825
Si 11.563190926072892 8.167908246171068 11.227579221383232
Si 9.435995776121677 8.306399093323675 9.357369102536493
Si 6.843069437496584 10.99649038320115 10.517672950851207
Si 6.169566194626296 13.321544267307795 10.468119050545834
Si 8.118547500902075 13.823717712505164 9.140785525971921
Si 7.950568996291102 10.573348780690022 13.839688229013607
Si 9.100946666105273 9.026624250813182 11.77805030509074
Si 9.588099693622697 10.580687355195993 15.60292299639856
Si 6.760892781850066 9.219544697001444 12.274117613791043
Si 8.225273210498662 12.9585016828775 11.658716615801119
Si 11.570550889573681 11.589186326995238 8.32327105158866
Si 11.57152319620562 13.183671458313091 10.101133364185618
Si 10.137927850311213 14.435549410661993 11.690730402580675
Si 11.5712519718408 16.8969897418394 8.769001650756985
Si 10.18655002569771 15.059286269506359 9.32717413922145
Si 7.801252611577952 12.948658837998925 14.05564349965387
Si 14.910222132727158 12.954877740504575 11.658382903568347
Si 11.570952446275966 13.640790167171277 13.51184205589376
Si 13.002815018265183 14.438098838310392 11.69255507696552
Si 12.956922968397345 15.060370453252554 9.329470753920129
Si 11.570779326211138 14.60496628432261 15.680967837217802
Si 9.841135723301292 12.955662700527009 15.34029247998154
Si 11.568451656385227 16.42459909318005 11.16225671383581
Si 10.156004217312201 11.521459666774861 13.308638609435619
Si 12.98523507607211 11.523770942179016 13.307167531280014
Si 11.570728386815444 9.656629608014516 14.56405457680274
Si 15.02646177289615 13.825670151458215 9.1393112929664
Si 13.814910186173913 11.088228606048244 10.383323745533444
Si 12.85057653825825 7.841226506743033 13.524561086632412
Si 15.34047548051754 12.950618612146698 14.054813301810361
Si 13.55355700118509 10.581927703880115 15.60104744380455
Si 16.96972201013407 13.31915045289627 10.47434947225999
Si 15.174336379070045 10.087547825757769 8.597379232407006
Si 13.30174847719326 12.956777349146778 15.34103515102584
Si 15.190938071887224 10.574939356705462 13.83751455003927
Si 16.296647477057387 10.994670354380643 10.52076793885299
Si 14.04276627146218 9.019652154424334 11.776547655640305
Si 16.381430106274045 9.218163710003827 12.276613206712945
Si 10.286726674947925 7.839231790892454 13.528059700167145
Si 11.568605251744446 6.130552026509374 12.454029130080766
