44
Energy = -200.22671932 eV
Si 17.514786669655525 19.263299204197324 9.516527685857604
Si 12.860515902395948 16.16254643447671 20.37607113780565
Si 16.413576792835276 15.625211169629122 13.467583441006619
Si 19.707636130723802 13.234088515064196 12.83800532032855
Si 14.095061925279806 16.26215471882462 10.299988859378377
Si 19.76583585916635 19.68308193523638 9.074378060361848
Si 15.008706507077655 19.564834771827652 17.444756882042324
Si 14.128962837198406 17.61625237569224 12.402404838567396
Si 13.197674277371766 15.635564794688365 24.180192380786703
Si 16.340415320567416 15.86855690569138 11.01434085100037
Si 20.509444837438387 14.175888505470512 17.065361224447617
Si 15.795265631744472 20.487990002461856 19.392253182035326
Si 10.03063991092181 17.545329906954738 13.870728477897924
Si 11.994678299890557 18.366695840299208 12.881111190572758
Si 14.329334769704708 15.242809766481116 12.516425438017393
Si 17.76731857845459 13.785471890519553 14.093438900350288
Si 17.140598722463935 17.70741120421773 14.199658032126436
Si 15.422875539979643 13.192263798353771 21.082903839141157
Si 15.26871638408528 16.74018899096555 23.886172867567463
Si 17.025834487743783 16.36956595415509 22.364977409731075
Si 19.054017757648293 17.120945478085453 12.790308711837923
Si 17.909803613787634 17.010247065575417 19.715574196135265
Si 15.896165906874693 18.090289019641798 18.96107262271807
Si 16.73860402764826 18.185105777474078 11.445875939197016
Si 15.012382603655334 16.997133374549776 21.062087102421156
Si 18.997771092922587 13.602185893795937 20.715627061898783
Si 12.950058153870833 17.34076399561244 22.47382693259682
Si 19.862109863025434 14.801622106546086 14.830158741810028
Si 10.44545983751167 19.806082617747634 13.47044219500521
Si 18.754724843966805 16.900959325283093 15.792632687734624
Si 18.604701253070417 14.123942474179866 18.50804758012745
Si 22.23656523975061 15.507662495138014 15.334807092401523
Si 16.462537813794064 19.1032213831766 21.1812162845431
Si 18.423337261140425 14.998720736029133 11.908028834235092
Si 15.651670255683356 19.342662601425744 13.188936605700937
Si 13.91389528313235 14.830571749345669 22.034431214911677
Si 20.69708282791206 17.131747385143377 14.51951632748928
Si 17.356874010226896 13.993411822904127 22.32891471000494
Si 18.56434717673662 18.102127804989465 21.77446531017649
Si 16.854996802826236 14.846415706024745 20.09740871136546
Si 19.272884681383417 18.473937835765927 10.906465141130587
Si 19.432892945629348 16.37832932148103 17.971164200035076
Si 14.742977218397177 18.85233890989565 22.902129340972763
Si 21.816714161538517 15.999531613097568 17.751197557951418
