44
Energy = -208.22846476 eV
Si 12.323071404142325 11.393598391872192 13.770187031165953
Si 9.51687595836527 8.421364438287108 13.046851507259959
Si 13.052739798731912 9.594156481298022 12.314672906405074
Si 10.696074837899731 6.220298265065513 13.15403941027056
Si 14.261998045341059 10.66549567188878 10.513297891254963
Si 10.16115393884193 10.635407380022036 13.36974657043409
Si 11.665841839110197 7.819855031353596 11.461875092003998
Si 9.478976168221315 13.970298150232606 12.406877807332744
Si 11.371935077919584 12.54331550885216 11.89202043664633
Si 7.107223216016279 8.621224942185885 13.271959026782639
Si 9.056518358230207 5.96796070877389 11.384505321832417
Si 13.411133260123764 9.001203102178549 9.050865262744722
Si 11.650462355023327 10.327100600561424 10.471450681287271
Si 11.801731876618511 5.232145714920307 11.13268643335048
Si 7.825011786934516 10.875757092051485 12.74020771292201
Si 9.91985237905967 7.66745983068625 9.720014676458904
Si 9.20302493054156 9.901627038544138 10.928626253547842
Si 12.626263548607236 12.440044621501407 9.73732103457181
Si 7.287796296471261 13.02139431328002 11.779545502941989
Si 9.477998861212242 15.167314964764957 10.347490493771526
Si 13.186247788786252 6.7102064892276525 9.730141992831184
Si 7.606270102017017 7.868776338812738 10.975917113635628
Si 10.078119958381857 5.02463139108889 9.35253888335449
Si 10.728530644109926 13.86939394800998 8.881617149309438
Si 11.16091627325369 9.957587810949684 8.182521756352857
Si 8.248444306727537 10.655015575871767 8.457277877901982
Si 9.207669529335657 12.56471628866995 10.347737475207563
Si 11.466770505894003 6.457152086413017 8.13944532334244
Si 7.915605394445892 4.330602054291893 10.009977721023802
Si 13.151559092859534 9.503648767441842 6.731939014456646
Si 6.9723411991358075 6.403456053482011 9.204593303203717
Si 12.406313848712822 11.781614676418577 7.157823076651107
Si 8.280850735986217 8.202143775198557 7.937327220408585
Si 8.098068482068264 14.347221748682234 8.604055387234391
Si 6.6713404334062165 10.15727346985441 10.418508348614072
Si 6.7098956335450275 12.475160484617351 9.240332230545478
Si 9.667656349967203 14.10080770972932 6.793492153395155
Si 9.959416739737188 11.769091464184594 6.7979647763782625
Si 8.852634186789961 8.017332082397667 5.632461224759561
Si 11.060463443335276 8.198426453065265 6.601515439854067
Si 6.271205863191618 11.315416346272698 6.943121409803486
Si 6.123129851089969 7.184753054180846 7.135024883744336
Si 5.962311032992406 9.29743668761804 8.194546655849166
Si 8.260952044195454 10.337953190243685 5.95123496092941
