42
Energy = -199.2933417 eV
Si 11.660387905769836 10.429664927361964 5.878222762936477
Si 10.967241137110305 8.661957620086033 7.371117689299833
Si 10.204272112709042 11.165412925967024 7.562166338614256
Si 7.921591819788659 11.244280566187838 8.222197975230966
Si 8.888171956018425 9.04353373364574 8.497227263190311
Si 12.646448556339521 10.55794689830731 8.095760595659513
Si 12.698043116205021 8.13530104635897 8.997292895567075
Si 8.82955623124894 16.30107654403202 9.132812283097891
Si 14.962901388370355 11.183061764776829 8.627884071715295
Si 10.775392588217034 16.23109300575221 10.574488080441892
Si 14.64829113785963 9.207312070867832 9.86216580585099
Si 11.387908625517664 11.51834904863986 9.922189021519097
Si 12.956903211423311 15.628080060573971 9.8390496814798
Si 9.093757930996897 11.143715739509771 10.33394928373597
Si 9.169570372739498 14.20895931427078 10.11632827945262
Si 9.517061345968859 8.72137266379589 10.724480081124877
Si 11.481913038913838 7.387779523068649 10.913045535534259
Si 11.53208010323551 13.782676605603028 10.603114452741849
Si 8.69442721008056 16.35482856504201 11.58807428180534
Si 16.43092947327198 9.178415450960722 11.506722434710495
Si 12.4945275625681 9.688715036203407 11.02305251068311
Si 15.637302252404695 11.43490273035677 10.875227196479393
Si 10.909297931178518 10.21852202663628 13.359894148682146
Si 13.752960890267515 14.742104148843453 11.855041400525508
Si 15.80686065946043 13.436506071945658 12.14972177540088
Si 8.039207623026465 11.87282828272724 12.36947824207679
Si 12.035208159423554 13.146270714649356 12.818253374852425
Si 8.327555676730604 14.192413367625118 12.446656697832587
Si 13.949640259495087 11.842146921571977 12.657087011287768
Si 14.446369489095112 9.438576893952048 12.790407371279422
Si 8.806094518943379 8.96449078772047 12.927082415942182
Si 12.401990467337951 8.15237907130001 13.00899224996641
Si 6.927703393444353 10.24098864560076 13.706885030574517
Si 9.197276565673905 13.538230582130849 14.522461140335851
Si 14.505004510810213 10.772156112000225 14.867425254954764
Si 13.43377828337744 14.798607343600445 14.26063962042784
Si 10.453689511958778 7.998192040531393 14.468489222747632
Si 15.166829136750282 13.047927121685362 14.422572274178583
Si 11.515530474661084 13.601267749904052 15.060927680367753
Si 8.808845557149224 11.240298831607182 14.732288342964472
Si 12.196917399603477 11.302369352974495 15.112512257214469
Si 10.436524455355645 9.961252132125212 15.912580008016912
