43
Energy = -204.59319375 eV
Si 12.814837321813348 11.972483686440496 7.940814572904026
Si 14.291761620805884 10.209239986237836 8.5376960526783
Si 13.80221860453983 14.191250084042341 8.233133455199914
Si 8.574004207546686 11.653643505228384 8.906003119277075
Si 10.91432717352125 11.852411497019844 9.467331870367227
Si 13.161692472524948 8.622484069697778 9.855453273853398
Si 9.819496026196859 15.442273390971025 9.237939133473564
Si 8.139251623579474 13.868038352132567 9.761897194057829
Si 16.055866897650024 11.162462441727156 9.678795000582097
Si 11.796551157468205 14.165197030287299 9.61853544099985
Si 13.712426614270608 12.096043541646047 10.261899140433668
Si 8.644936599968252 9.57095412708057 10.112616178843561
Si 11.019587550206262 9.55483892821046 10.08587693219836
Si 15.639917508406722 13.47416403688983 9.708956071087414
Si 6.671688808429936 15.211233196432612 11.162388409976172
Si 14.000475997764122 7.725285169187621 11.924239284534552
Si 13.394134096764917 10.265170654132378 11.777208887020995
Si 9.220448075751 11.939928930377938 11.32971204887864
Si 17.441161800397865 10.143128697567231 11.240240639960454
Si 9.057822072636037 15.513622324561032 11.463644963860222
Si 12.65350567890044 16.425907296519192 12.056551250662155
Si 11.317079203300619 10.246271158627646 12.951910149551935
Si 10.762577862784529 15.447440896898387 13.11692814539857
Si 12.405175264416439 13.951738962331708 11.897943005359213
Si 10.24528096644272 8.247256545641386 11.970311792582422
Si 15.644108540353352 9.36662551676599 12.583851032751314
Si 7.54517965332042 13.367820579971069 12.287151037609972
Si 15.58549056967958 13.485653141389086 12.022646286068337
Si 16.89395435941665 11.773359152064085 12.884077402527153
Si 8.700967071707472 10.110303770121389 12.846927633131482
Si 10.915505037360912 12.738418456097342 13.365255635502047
Si 7.834580437407736 8.137873556592071 11.88312069391245
Si 12.073946735065268 7.661472681582917 13.432011327460067
Si 14.21073810252891 14.977723685150908 13.20718458108964
Si 12.504476820387861 9.397843873935193 15.057818607128404
Si 14.192311276570024 10.901233527395455 14.180794380700494
Si 16.378885721104194 10.275423069484123 14.6921501849726
Si 8.757031413746413 13.068097175692417 14.31405622780922
Si 10.030874256429394 14.848930734439874 15.324994867792903
Si 13.40864120797253 13.097747015958806 14.3606215907167
Si 10.77228972406116 10.91764960488393 15.3436945511696
Si 8.39633522606993 10.859093615352883 15.15628457068275
Si 11.642127968041208 13.105931660544696 15.803002702543582
