42
Energy = -199.79809073 eV
Si 13.856950157915431 15.13522415211633 13.53049502689836
Si 8.915395544965511 12.748498400732442 11.423517609501411
Si 8.616030536730207 11.032201357333387 9.701868519802732
Si 12.15888341687752 8.889750809805063 13.873790168771475
Si 8.226530818325992 6.815031602798913 10.35345718722168
Si 10.624070351315236 11.166907104893273 8.408216707718857
Si 8.956987315175287 12.045946971645717 13.710368555355666
Si 7.6057248900079895 14.778849873233064 11.129503904098181
Si 11.243151215977234 13.14468979471158 11.02014685122012
Si 10.740320945039965 7.004480196860136 12.762137018826966
Si 13.512290515366493 12.776001639725813 13.988277431020247
Si 14.64732726368912 12.571473719221949 9.857075371840823
Si 11.98597316861173 9.31711911373425 9.586126619846
Si 10.377528101737047 10.249655870366215 14.720586512944603
Si 14.380171813311074 10.267187446810391 10.336252494188276
Si 12.864387250999906 6.994837547238677 9.870954578022241
Si 13.599416050714536 13.732471502136184 11.634179611017778
Si 10.504276090037541 7.498058943454978 10.438646980528755
Si 12.75678802530493 6.5845084406261885 13.925302470047281
Si 10.891938476984748 13.77975712823819 8.759858613677281
Si 10.564142599205052 10.321285157777435 6.161457545160779
Si 8.411065531065546 6.498598959111651 12.773396939545805
Si 13.62782406257232 10.604106854101518 12.942316954645653
Si 10.640007783643664 12.715221327759123 6.344188333212391
Si 6.999554390848206 11.46184006883305 7.9332753797753615
Si 8.816272225130456 14.994768215107781 8.972338503111303
Si 8.118497917769982 8.818001704610344 13.266319253891519
Si 13.641374099247908 7.746629298735816 11.984945728678484
Si 15.455604820155392 9.29617331986732 12.173918214809067
Si 13.137920211803474 12.498118468120015 8.076439595015383
Si 8.02750090719605 10.321618550163828 15.150785859645397
Si 8.161631339771741 9.077339006136244 10.978025653489803
Si 12.712169079197645 10.313823902384343 7.249807414561388
Si 14.07122876078575 8.748859408445005 8.472697870713597
Si 10.390413683362326 9.413955819890255 12.164065425141136
Si 7.095291984801229 13.121172686859554 9.621596316830427
Si 11.597312995143124 14.278735746044605 13.17582600957368
Si 11.974149702947505 10.930922423256566 11.293855086232972
Si 9.709527147422644 14.119708108603664 14.73737308488862
Si 12.285901070763252 14.386552381172278 6.9328704224551
Si 11.295400759378497 12.396154321331476 14.860243512195357
Si 8.578961582879495 13.17965726018399 7.479389268056961
