49
Energy = -228.36089025 eV
Si 17.602308165580627 14.96336090076584 11.369587138279247
Si 16.492619059882163 14.014357869397449 15.286422512657046
Si 13.618575902106794 16.127952460193804 20.75201913042094
Si 15.420698847133968 14.55229897816507 20.515404980393885
Si 15.639803854036908 13.740062942990734 17.723523676622357
Si 13.100483281929673 17.881798415057467 15.435738198292581
Si 12.311261278616819 17.439584019566357 13.253575872715814
Si 11.676796773088409 20.68651385838838 11.174058070094455
Si 19.745180098243132 15.56450265438467 16.963536723204133
Si 18.385832949513443 16.800328992028096 13.115389803520141
Si 18.339643563971077 19.84046178639176 20.39910437096115
Si 19.26802296921984 15.10421882399228 21.492384989679845
Si 18.36734625239183 12.47042233751931 15.375673251031456
Si 18.376242134546384 12.702718821845584 19.704478196632703
Si 13.920308618192236 21.473181730066102 16.973118776844068
Si 19.320467004814855 17.749994129669517 16.180494112006382
Si 20.9900333109651 16.461967559084453 20.655685665998526
Si 9.533160492291403 19.93684395207041 10.735606086166534
Si 18.573822552297145 19.14184705431257 17.97937304135579
Si 19.050303587266402 17.66288253395739 19.910423760275396
Si 16.299506391837497 19.434182174391285 19.131080862339644
Si 15.023686998748195 19.363215928665305 16.089336875907623
Si 20.26423362457766 13.14507413439299 13.968193670950471
Si 10.491234189326322 19.1580139481373 12.64884751244414
Si 16.000769400830745 21.508664836765334 15.665519712048841
Si 17.79355628969211 14.669352581619645 18.104218604704595
Si 20.23887313981305 15.597723344259938 14.549006356249244
Si 18.30585451183308 14.442305669071613 13.68040738116927
Si 20.85702135836692 14.27085187468643 19.771480123557772
Si 18.79104226961193 12.801902648616991 11.966834413666188
Si 16.227554193140573 13.503735107904287 12.892044544098633
Si 11.966336873601472 15.628122299019548 19.035686931337803
Si 15.44463276398261 17.215654489470648 19.64699131946077
Si 14.048106900944296 19.447510810066408 18.283716621970985
Si 19.981245471516132 12.815803816109511 21.45999811139348
Si 12.771754189603092 20.37829618521926 15.26933144072293
Si 19.31254336345831 12.733388114176218 17.58756408402974
Si 14.280943540831752 15.575983323097976 18.358389123700523
Si 15.942723561697747 12.388735895118128 19.72698700933158
Si 17.460062620366305 15.882002932339145 20.140180165734353
Si 20.417211151684413 17.932720156849452 13.975563303151576
Si 12.842396480827095 19.778865018804396 13.013296682223913
Si 10.888757629653005 18.861331242672264 14.9958046527291
Si 12.832415573070787 17.446164310423757 17.78785686426168
Si 21.42475862744016 13.923426114367848 17.50025824940578
Si 17.665703937267985 16.17977877689354 15.339267871273083
Si 19.33838153298302 21.299860673888073 18.699218742943728
Si 17.331209416758178 11.366891987955745 13.300892321063497
Si 17.12794982375831 21.142178831641587 17.777254088688426
