43
Energy = -204.17749595 eV
Si 13.098049717318494 10.964634067298524 7.227459989112079
Si 8.7596589687976 11.321298829807075 7.291480420220538
Si 10.900903317646122 10.490780405384097 7.935454906108775
Si 8.818777027558644 13.679677957066245 7.907302551451875
Si 13.036324292079472 12.93206484556536 8.480743436244193
Si 11.052187469168247 14.145959851903559 8.730849944572814
Si 13.886750819561788 10.213711985686322 9.335085132135427
Si 7.455631386418011 10.396315622458033 9.098240796777807
Si 15.13538869294764 13.565686831110163 9.356850551668728
Si 10.956106796722839 8.261372593652288 8.74922630010283
Si 9.190334149168683 6.745468629923866 9.252630259453726
Si 7.101626621198637 8.01871780671261 9.352024053448634
Si 16.03299375752869 11.265914341416922 9.796297473780653
Si 8.419562335113442 11.563386828918256 11.477880819958703
Si 12.770721411439464 8.350113906610215 10.294713247233506
Si 9.782353121436413 12.051310621688184 9.500620910440208
Si 7.609994342155536 13.628308269400987 9.999988154989241
Si 6.206287338817239 11.77055891733887 10.616518849876579
Si 14.015276824912082 12.067373755500384 10.939467111581598
Si 12.46099030175777 15.573280996604417 10.028479338268786
Si 9.165047580129919 9.033947382310364 10.115257935252597
Si 11.29909433763684 10.182206182327945 11.00959283916382
Si 15.17608431651205 14.065712418458853 11.69535169423397
Si 16.21858643743206 11.95313811878016 12.146469652275558
Si 11.15629896366935 13.816594909923023 11.21523611836133
Si 12.100950280503293 15.76635931680109 12.348506244197546
Si 12.162291275077724 12.05040615457345 12.424929179915654
Si 14.309268923791565 15.509562743878222 13.305192856156921
Si 8.92892612227531 13.872571526589596 11.951788016973872
Si 8.237017082068027 7.310983244231078 11.497316860074141
Si 9.551866823866282 9.250327238565472 12.524770750791275
Si 11.817862249933608 8.118399377022309 12.507826324830877
Si 10.227736622451388 14.943859742916759 13.64486147824973
Si 14.818594444722335 11.20796153476261 13.95295934256155
Si 12.820372757701287 9.934576428750617 13.683848367617909
Si 13.69274399680571 13.418247465833026 14.234174802884667
Si 11.37874029112699 13.105132994421355 14.627173121210538
Si 10.870542530381154 10.632929671693558 14.907009510638694
Si 15.402486599066002 10.330850880662439 16.166989043580557
Si 14.1654299002252 12.34418173000652 16.32863162833608
Si 13.034257684439519 9.971779349856483 16.20823678768401
Si 11.827089129096631 12.169527437789075 16.83387104850738
Si 10.947256791575882 10.003270918034064 17.2971559813089
