40
Energy = -191.75261958 eV
Si 8.243182961598325 10.77819894250458 8.16441097903996
Si 12.028537398783635 12.66633357128235 7.616060006494434
Si 11.446554689318411 14.729295081115305 8.961429846135651
Si 10.560453427289936 10.932122012954759 8.380928122388594
Si 13.951244175911107 9.22434561252178 8.30108786408254
Si 13.98965118413498 11.710966119172038 8.597429146412338
Si 7.7609148319776775 12.673398209685548 9.459552200191213
Si 16.180329517175593 12.479972510138367 9.190673049480983
Si 11.695132559484122 8.953052483025452 8.959171004936236
Si 12.765831548133539 14.26085286317568 10.930119034616602
Si 9.503571414785803 14.081253265318733 10.145125641382691
Si 7.987312944771929 10.430292276940287 10.518384590522864
Si 11.668590767133884 12.300529400924802 10.135737212396142
Si 10.985320807775427 7.806982485530511 10.914282018923178
Si 15.013571179553464 13.681933064959491 10.873741385104166
Si 9.57827355278786 12.226780422777138 11.764843262092175
Si 15.04925837123595 8.646651964606203 10.479196499483214
Si 13.194926818148078 10.285034536169327 10.360926416124038
Si 6.077310991671005 11.84240913180501 10.949284322239363
Si 15.692993180071229 10.926765356924415 10.978348679160455
Si 14.108531412744641 11.942630513130277 12.497681909807971
Si 11.972691618669497 10.615497340423905 12.493297424714426
Si 13.09282289058667 8.41199711120702 11.933986296748397
Si 15.698942493513924 13.727471762923237 13.09866375148297
Si 9.738069496314282 9.625498431759492 11.928095388490235
Si 16.625791632678993 11.479069275656677 13.184984603501576
Si 8.820280346101896 14.574021712674787 12.321967551634486
Si 7.248123650323288 12.895726900478348 12.742327873274027
Si 12.480868042813281 14.614650455835585 13.290261702519837
Si 13.278708229552759 9.142432905164062 14.181985720125047
Si 11.148677748222104 12.62918005423137 13.819574134478383
Si 14.789705284626065 10.934395157232693 14.62437073191731
Si 14.395418136502279 15.03522361270879 14.702330594526932
Si 8.67244432265657 11.726655414109025 14.164406712554381
Si 10.274535385691399 15.0678215664477 14.07596544089403
Si 11.296607846149273 10.203683149134154 14.887429656061268
Si 9.132820368137693 9.41591752328594 14.259290261441535
Si 13.50770109206485 12.879988318315567 15.093465953637876
Si 9.657093201448884 13.31490565313941 15.645347074347677
Si 11.656817299620352 12.095676650770665 16.343448756796114
