42
Energy = -199.87595549 eV
Si 12.581185009986452 11.029736752264203 6.790891846921557
Si 9.104249336716604 13.309473886677612 7.123081079373223
Si 10.706283958714877 11.768749253428195 8.02947681544214
Si 9.915009410533695 15.143743837233266 8.394664444017922
Si 13.048534121439316 12.954118085721392 8.101151469045199
Si 13.629000128768668 9.902066511945785 8.60028199323556
Si 12.349064600720292 15.32049687886862 8.302742029908018
Si 12.605768638681171 8.163071491911108 9.807244019716995
Si 7.861299479997348 13.514696208463766 9.084382579349235
Si 9.954195104919725 10.597141694188403 9.903309358985712
Si 11.20231985793207 13.527939743508796 9.729832454138977
Si 8.003381229742288 15.892260552053678 9.693181497389743
Si 15.692160498830766 10.235368651889367 9.633728511321891
Si 10.23995225953093 8.26519782945869 9.99058088349263
Si 11.74598999745858 10.201166394026238 11.503042205474697
Si 7.945714554437923 11.62139157853576 10.588886064123544
Si 14.671315877301344 12.36772867354511 9.74329236276417
Si 9.717134533313178 15.064624225503911 11.125678636961156
Si 12.914135433947498 15.25135800271631 10.657795254174856
Si 13.642540250266174 7.024026448412544 11.623770655794296
Si 12.860835303550752 12.757099371765586 11.2532694774923
Si 14.988274776804355 14.212857278172558 11.194538020955441
Si 9.512336980391213 6.728264818462016 11.547076970426273
Si 14.29160857332602 9.30443226476802 11.382749600537688
Si 11.43648053398327 7.967669510463341 12.380879315585155
Si 9.016547212861472 13.055164545322175 12.073426651775161
Si 10.796474024748699 11.786426726197359 13.012437165048363
Si 11.503656697443416 15.976727262961258 12.443708706837267
Si 6.983592686840676 10.240863228530031 12.391289077779213
Si 12.022851026171097 13.775678771258688 13.401918165601886
Si 8.685044696759968 8.640191304337117 12.652598559978022
Si 13.743048983484817 10.637044324372757 13.26417687959979
Si 14.426717046476059 12.93540325193607 13.273570520797543
Si 8.363893388106867 11.615181898937523 13.783513323639218
Si 12.349505577727312 9.281987082244356 14.710936815604239
Si 9.97785937517751 8.194755026540037 14.574490911079787
Si 13.016840348654611 13.208053077366587 15.500529207436383
Si 10.154712148125963 10.568384298012505 15.00912585272741
Si 15.40901458924872 13.126977428641228 15.49711167874016
Si 14.412715912284026 10.930607652546561 15.552343440541812
Si 11.935943294134344 11.256871728608202 16.40272100387933
Si 13.279145762807833 9.341335670549695 16.9669077146523
