43
Energy = -204.834674 eV
Si 13.739903445302327 12.668822872874118 7.025742054360672
Si 11.344679190656446 12.597056001275792 6.972786500426806
Si 10.775251625995608 14.946246232246787 7.106986808404314
Si 10.59421632588585 10.5579642157815 7.769796332007814
Si 12.832860153989145 14.465329581504038 8.301994621717782
Si 14.438288162952166 10.734088693961564 8.413415915781789
Si 12.52380114458101 9.335362334428888 8.414414163612829
Si 10.384947377537475 14.21429270901996 9.292630390087346
Si 12.37787180811074 12.006743391284092 9.176547137102142
Si 8.73757114807611 10.18981350741567 9.224508061233754
Si 13.85189750752823 15.255919493733114 10.275562148666923
Si 14.474009974506302 11.23411236662167 10.734014706282384
Si 9.159996285086041 12.375230635886346 10.12595125514129
Si 12.034689408890674 8.038588768117474 10.315031688823066
Si 15.1906840082117 13.514831070060453 11.008532783979408
Si 9.659904112570976 8.421660362351002 10.946936327494555
Si 11.169251269877003 15.293165724233374 11.27769210150708
Si 12.62190957024676 13.269021704056692 11.487303180642666
Si 12.954985217720594 16.772526859210902 11.902025066844082
Si 11.007791561526094 10.354444239390208 10.35187215209836
Si 12.939433938787419 9.690827438118156 11.913508443867546
Si 15.883766024541671 11.211393073654238 12.597037761976683
Si 8.06501921460306 12.891323810158731 12.150291542700145
Si 10.464146226517855 12.146896190040986 12.226830908405695
Si 13.251024647702138 14.713088815273123 13.383944143019344
Si 10.569764915555632 9.712735946643791 12.878404852765053
Si 17.025154048082957 13.358294177135598 12.598607798390383
Si 14.718645422809772 9.325606278149444 13.507438404507257
Si 13.530630146642412 11.538424611115042 13.742742288266916
Si 9.664470362045405 14.490457263507269 12.904259227181287
Si 8.512031825460191 11.031410816649384 13.589209040411689
Si 12.064205211066971 15.079508490508042 15.497797396383735
Si 15.180216861454804 13.366145415670314 14.089926370270527
Si 11.386698141313262 13.025766124317677 14.325237129344348
Si 9.669894257418921 14.730727569064443 15.232502734346953
Si 9.292278704455654 12.359792880162058 15.425077198071026
Si 11.202431784762094 9.06550827747886 15.19242605886289
Si 13.481786343238197 9.735052072070156 15.47076596675815
Si 14.648727932754758 12.078486238501982 16.02330815815078
Si 12.682261012116143 13.151172455084776 16.659504254081785
Si 10.935098163914647 11.068742764101108 16.41754349150191
Si 14.426338515431416 10.27728667147096 17.591070508654486
Si 12.314404407538428 11.489069265135633 18.241760333332262
