47
Energy = -224.29165507 eV
Si 12.301657889266934 11.204697200672197 6.28848101197726
Si 10.724492630643699 13.121069437140807 6.459731841337009
Si 10.218119358711986 10.797877875070574 7.472126239238868
Si 8.54879123176145 12.594542252193499 7.506389987227789
Si 13.424019809452133 12.507887723477195 8.349527309270227
Si 12.283444107784394 14.537537306095777 7.7152711830311285
Si 11.970755649109744 10.754490658336119 9.028812687672795
Si 10.93743348434352 12.88110635571382 8.92087251931782
Si 8.935216888938472 13.496712478699893 9.848789222660555
Si 11.491804673286257 15.276695436337166 9.907927835755807
Si 14.772937937703542 12.631143615991201 10.299962995739863
Si 9.215072613365757 15.84572146580402 10.44774113270756
Si 16.758075741770586 13.92096871012137 10.679894806275382
Si 12.49549513044296 9.301496669872819 10.792160303407726
Si 12.97660312933012 13.877330153490943 11.265664573333435
Si 9.022142399372985 12.075540537202846 11.770421267604616
Si 14.364061546174664 10.637725664290235 11.561286618744694
Si 13.243189539290393 16.38444558354772 11.162023262171012
Si 15.132571032955147 15.10047144492214 11.974480750012587
Si 16.5284822638905 10.100763216752348 12.48836881797014
Si 11.18043376923443 13.08817277959113 12.603882544414748
Si 16.752661832418937 12.467505365888483 12.531932255866357
Si 10.818434929302947 10.621270819123149 11.94751267180131
Si 13.668207192863823 10.719814618848417 13.803638182998801
Si 12.773314099045558 16.602007857465573 13.462472892746645
Si 9.474394217659333 14.853985892386453 12.60990016504328
Si 15.013247862756307 16.395915687208785 14.130277671037309
Si 17.391106755535894 12.6004791322072 14.792045013763754
Si 15.071886257993308 12.79023576440868 15.212317180731977
Si 7.89993987161416 13.26120096165206 13.552947862010951
Si 13.759939936157355 14.238171008330317 13.808193922257248
Si 16.145331079872978 10.49873922562381 14.841614728456813
Si 10.88997205754674 15.590209003372186 14.30158636489306
Si 11.201661357125419 9.813941917331093 14.137457297876582
Si 13.03876958933483 8.351601011908214 14.156079768220904
Si 12.07074889793259 12.296292865232067 14.71143688994934
Si 14.78949498611987 15.135730490991378 16.15687013982667
Si 9.649869218386938 13.0328237621955 15.156854771824916
Si 16.73484700826071 13.848924843695853 16.82387631087921
Si 13.86849258563519 9.537783927342462 16.034255929741864
Si 10.323143970189612 10.934534023459099 16.010310488422288
Si 10.543036101979 14.810386426079205 16.436924499364984
Si 15.979739889436095 9.704524715076733 17.071155028333934
Si 12.7547814940938 13.918803772092442 16.741747763526604
Si 15.235960266111173 12.003501451124949 17.442425783032842
Si 12.501235347991852 11.322885151767007 16.981310634113626
Si 13.265104755416129 12.652456127475844 18.741161261017407
