46
Energy = -217.3296658 eV
Si 10.010782828951621 9.759171175514684 2.415590021450046
Si 8.816458370011928 8.250185446756754 4.039491163217596
Si 10.497053739803329 6.628126193744436 4.6867889247223475
Si 8.928968212227767 10.700896820137805 4.228705677476192
Si 12.29365541403026 8.109581963459556 5.381041922517118
Si 11.545967868623642 10.308941257403694 4.325018737342368
Si 10.088586990768738 8.96672653696071 5.991801731274254
Si 4.485874144850978 7.649096712804587 6.0236292959688535
Si 6.7314596455547235 7.646868681308022 5.030104788671521
Si 7.225349665498173 8.860486394622734 7.021977877343776
Si 8.73042680397494 12.726801985236694 5.485388267856815
Si 10.56943724858401 5.908620982070476 6.970263066048972
Si 10.024075347495593 3.941020117232862 8.383654637725012
Si 8.575624926575601 10.849055960242005 7.1220030741938825
Si 7.289095690686634 12.949995643011306 7.563851394769857
Si 11.142887744857102 10.034923169755087 9.064852320989552
Si 6.567475489773458 5.716596880112835 6.3764998978442895
Si 9.210017899594522 7.82891821638715 7.985019283737634
Si 5.064371485210588 9.056087617789588 7.913516715838918
Si 11.798387713776581 7.945482160794396 7.791903106078652
Si 10.722019687265151 11.596681709758371 6.218907863149763
Si 5.954713702613356 7.81010950510416 9.92433829131284
Si 4.44644944992928 5.408868091100176 7.238467302083367
Si 9.31555497306725 12.641392859530034 8.933512160626789
Si 6.505560861572222 10.9015235965743 8.86017560232061
Si 8.302155772588938 5.650110551887445 7.989336441749381
Si 8.738552896804974 10.04690713936461 9.451524180254014
Si 5.795775433678353 11.926252445249107 11.002417908949827
Si 10.270262996957351 7.408550980676727 10.066442831970772
Si 10.996056272429037 5.13675249056236 10.290691052432337
Si 7.9338244164109195 4.311002988427694 10.019107523082852
Si 12.033802276238735 8.779209503096384 10.929592021636763
Si 4.5077829548806925 9.749664330920137 10.11271683141721
Si 6.028698021429869 5.589826839102097 9.081188841512123
Si 11.641940465525426 12.287526862963322 8.356341390780551
Si 7.972494020682507 8.315190481068734 11.11188924626957
Si 12.762242437638324 6.74574701961356 9.807140848858479
Si 8.24073317753656 11.951013501008855 10.929623626687615
Si 9.063969469109285 5.952876018397523 11.58459156519128
Si 10.276143553676642 8.505327954262663 12.487667566053984
Si 6.507509088529879 10.17657029661144 12.507191065036535
Si 9.832160747657078 6.577323296585858 13.859257063260277
Si 5.946002462686691 7.84448955918795 12.464781611220245
Si 7.997567155864253 8.062344567788871 13.736687913971007
Si 9.060968837780853 10.574180240116522 12.739927854879573
Si 7.65433692987747 10.316208548977851 14.598614783505651
