46
Energy = -214.85489606 eV
Si 19.51773293465926 15.196781215591349 14.943362080906606
Si 19.82195903151528 12.940962052179504 15.743489990254645
Si 15.486652929083677 13.184019408063707 16.043052543050187
Si 15.710879128918302 13.962668782091793 18.350709705770576
Si 14.785861885462666 17.60510952177254 15.689346319139606
Si 13.733544831115896 14.785424169277332 15.879311295424014
Si 13.370129139516848 13.399289840900652 17.980326731290592
Si 19.507007162252957 13.210346421743766 13.422147983214593
Si 17.507623752761592 15.961618065662446 13.33224835407948
Si 15.75858005565599 15.84487195566577 16.88925047181976
Si 13.535777859764849 15.68427861241655 18.161158370723516
Si 17.515887628401046 12.424758420134951 15.064319890915648
Si 19.806018184236844 15.46621881777256 12.613915592788114
Si 17.78370784497353 16.482114069861783 15.785004101485287
Si 12.513056938205601 18.355365180002238 15.910172008744368
Si 16.771841018155968 18.11051058213203 14.438339502181925
Si 14.926590569815453 10.886613825508196 16.346540280940516
Si 17.25221805778659 10.182211944611469 16.22975490265924
Si 16.77158233005602 10.276150111831157 13.960395472300979
Si 13.374385650496983 14.993233375227195 10.403018138092742
Si 13.531454052303545 12.702757801761766 10.231754936986679
Si 10.337773184129412 11.409915484537967 12.647407551940102
Si 10.001078754300433 16.804798181772167 13.396175104854429
Si 13.251554395413285 17.330937108383782 10.24343574135549
Si 10.3243628708398 16.979593225127587 15.72941769876731
Si 11.960185693018376 11.34685163748551 16.193813662309452
Si 15.743278244029117 12.537123919546044 11.516854294504924
Si 15.485058924874375 15.204892400726955 12.338469479614592
Si 11.957952541286986 17.042378551524557 12.191016106007712
Si 10.00807494253629 11.580894364810481 14.97922799497088
Si 13.726651934894265 13.609460212759872 12.511425526762846
Si 15.71244598124971 14.412166196549164 10.036270251144389
Si 13.301959720278413 18.305466912413724 13.662515429385934
Si 14.925833243804345 17.504044371984133 12.054298202426754
Si 13.309909911949909 10.065351371199215 14.74150231254807
Si 12.512478894981744 10.000516976949713 12.495157714931796
Si 12.326955132899583 12.208729840176074 13.886748638807923
Si 14.779655355813027 10.760661542772722 12.705088201888453
Si 13.24292063315994 11.060929397914453 18.149064957507264
Si 12.312122245848611 16.16032026095659 14.49580014962497
Si 17.25135312325118 18.20981486815194 12.16888026469817
Si 17.774725307528243 11.904242233886913 12.60717294853213
Si 8.804004365206772 13.354724260163035 13.143274483319262
Si 8.785976914808995 15.046241634236983 15.220919577105732
Si 8.029855989716225 15.591003196982864 13.067543833206942
Si 8.040646368319733 12.802943334057748 15.290206860295017
