47
Energy = -224.11812254 eV
Si 11.097728703259275 13.746201215429444 6.999889348308596
Si 12.427846236059017 7.9729072468977735 7.061432744915308
Si 13.14159702868318 10.225325250435416 7.209958805245856
Si 9.341402984146649 10.506482094725413 8.421726112336632
Si 11.418101211645885 11.631724669047363 8.15912099507807
Si 14.455662267445245 6.741356507027129 7.5486823140733925
Si 12.284880268353605 14.227634738788018 8.970168211836631
Si 10.969698548386841 7.13929093036727 8.759375779974366
Si 14.613689401757009 8.894888853736743 8.589293360520218
Si 9.426169266432495 14.362286621879676 8.692547904108949
Si 9.788757746015738 8.839558800809973 10.043500697521514
Si 8.667479676845861 12.357592709749976 9.589993996588746
Si 14.438406671389481 14.011874133220113 10.061126149637605
Si 12.335727173343802 9.154742342294364 9.342034805171183
Si 13.196663409316352 6.8687160587169265 9.584973155914488
Si 11.61612725892735 16.23217219902267 10.071018283798093
Si 12.320064899100906 12.103770271643672 10.468991096224478
Si 15.89658114777894 9.795307477429859 10.400327832298673
Si 9.153542938453032 16.241435161716403 10.1678864799954
Si 14.08061965386271 16.39021378821211 10.683044958741219
Si 14.668888556774817 11.749254284438317 10.86054215980888
Si 10.551575942007371 14.002605699795573 10.872438247872854
Si 7.7874179735014355 11.990125601388616 11.682818879056077
Si 11.46474674443643 10.014944894976525 11.416380473423342
Si 14.546147951966365 8.762356063973995 12.028011862740886
Si 14.307037734161263 14.829617252161512 12.44647373872982
Si 13.638891536553924 6.5665695028956375 11.924299679137901
Si 8.121037500615579 8.218160426508854 11.694669362961951
Si 6.753833471012862 10.00790042153345 12.506556003970712
Si 9.266773233560206 15.221070017451567 12.524185396331326
Si 12.027991007565634 15.595022882411126 12.308134161182771
Si 9.260871168968915 10.338980669578634 12.530210540254213
Si 8.139549490878967 13.38977708338997 13.486333496374238
Si 14.60011900977272 11.827660528510515 13.245529876224333
Si 11.654401169080458 7.710034734737717 12.51975154693286
Si 12.513891958740311 13.07931979676004 12.84728478570815
Si 12.350244709526718 9.598690976514883 13.712481331012855
Si 14.635546373988396 9.670299364741497 14.241250708323976
Si 9.49636765741437 7.910705099086283 13.536752321971893
Si 14.385464400087281 13.804806990168148 14.529780349068663
Si 10.676692904356495 16.37678060754526 14.07291598412908
Si 11.156321943984514 14.068586495216536 14.490745635756271
Si 7.6043972964584166 10.343410678154692 14.67690314676797
Si 9.634966021880745 12.447662295779288 15.237415515422937
Si 7.297467871302074 12.60461634174081 15.597340278101173
Si 10.270647139577065 10.231230850978628 14.752552645237257
Si 8.878401241893975 8.556767869681817 15.793587342478096
