41
Energy = -195.84498535 eV
Si 9.297955799546784 10.123529342068036 7.080153335800866
Si 11.629782277146152 9.525194996247395 6.925385254006508
Si 11.448082063493663 13.672755957135424 6.910533841497849
Si 12.450684922123948 11.669108328241188 7.661017960993431
Si 9.661762766212295 12.318642095218788 7.719134917720526
Si 7.43281937356167 9.001061011904783 8.2213010995341
Si 14.062906001400544 12.079430001832856 9.358945272619794
Si 12.04869048461996 8.182341122273304 8.834980736619274
Si 10.767282372006814 10.524865601190655 9.080994678290459
Si 11.95888281054234 14.088088628044993 9.180307343137631
Si 7.707617637940731 13.041333491051901 8.853502324917308
Si 10.972384741617942 12.177841177531132 11.10934184900216
Si 14.224340811281332 14.36658329264694 9.841910040454357
Si 10.511314049271125 6.729844375442303 9.889304602131974
Si 7.0188925352986615 10.933884679580098 9.565960239398754
Si 14.048802536009186 8.2382108041635 10.013518242967631
Si 9.243734529781458 8.731056090783577 9.743643952992745
Si 15.292631589251387 10.267024746098816 10.127910725853194
Si 8.654656763187182 12.2787770783928 11.000877289109857
Si 13.633321530783167 10.967242247014596 11.794336811555722
Si 7.9385029684568496 14.711114842381914 10.594745836557859
Si 11.873974284560637 7.992555988971052 11.400669975751537
Si 10.333616418505105 14.625432561303947 10.725692756168678
Si 13.906117062150106 7.017767404980534 12.045435109085641
Si 11.323115481226557 10.119831606260185 12.33004455330954
Si 13.597165275473595 13.459903743716941 11.947864219789393
Si 6.667522138677775 11.096168391741756 11.944060491013532
Si 8.771823393646686 9.641708746483303 11.88803432098371
Si 11.409402352504271 14.017653826185866 12.752182648496781
Si 7.206629467971169 13.41935658419393 12.632539213685538
Si 15.971871744576179 10.453925041704782 12.41801030051682
Si 9.251177127106835 12.764465247076538 13.689740158150489
Si 14.269050833046087 8.998411351868183 13.299700875195425
Si 11.485300034055097 10.234299109250188 14.675532092635803
Si 15.011470588343213 12.38194624526274 13.44852526665503
Si 9.097633464678971 10.45074985730116 14.178710076622645
Si 7.074922234038457 9.281617368890686 13.479351960951773
Si 10.528520750506084 14.387626569095731 14.941466805884422
Si 11.948413532712275 12.514870914793784 15.012474327657696
Si 13.52372188852952 9.202878211486201 15.547090971628865
Si 13.982670285076011 11.550068241105166 15.374234441572975
