49
Energy = -233.30329037 eV
Si 15.917296118068283 11.517675011173157 7.438871467596001
Si 10.403831993647243 13.979294233661568 7.712430773768768
Si 15.155488792203865 9.854052636996405 8.997553910504385
Si 16.206522134534197 13.247077893431856 9.142769192765996
Si 13.968119340453393 12.018453633647917 8.695359292096557
Si 7.201177885104087 11.621198433233216 8.762278411070925
Si 9.6504962211659 11.72228948383826 8.60235313912476
Si 14.726085481685788 15.249168177658923 9.13540834035618
Si 12.61794638872041 13.945045482725398 8.683672597972782
Si 14.056285643461392 8.273596167918837 10.249502198455778
Si 11.0248731526251 9.774382694780916 8.44415839110629
Si 9.094165336485558 15.094602789731361 9.51014775572366
Si 17.836784770412567 10.419830323597896 11.654235665929885
Si 8.184459823914487 12.986464938280616 10.40831300331137
Si 17.35213044016447 12.730973560125658 11.191866257183879
Si 14.896519492121062 12.1580863199299 11.095023569003043
Si 10.676484281605072 13.270150084556812 10.169549588997553
Si 7.798179644235046 10.030581213486075 10.47807250345846
Si 10.416024672378041 15.446281915626994 11.44784517379516
Si 12.753362034124937 10.301674779729735 9.952212442491184
Si 9.908712644030016 9.148188877966245 10.380078858760031
Si 14.916382002562836 15.935888802686456 11.496913564703522
Si 15.533642177086447 9.851788305830798 11.466600874333142
Si 13.397824504038715 13.983649137323859 10.93929111340205
Si 17.145563022774557 11.565491337377411 13.579736077308812
Si 10.815192814639715 12.934975132007569 12.605346566210232
Si 17.89701440260672 13.848148676186108 13.2996650722746
Si 12.645661554983368 11.366035646854764 12.242271706428975
Si 8.541011602202829 9.898773038806198 12.639687455252687
Si 10.086359240110081 8.022713134043121 12.461464474667716
Si 8.48192325194782 12.65586014162091 12.762760632161013
Si 9.193197740101263 14.872221700862887 13.397912952688941
Si 14.308087298497037 9.657668590632072 13.516078580224915
Si 15.592596469630376 13.880774161175358 12.796922109903154
Si 12.621980862390972 15.771211441700942 12.286215135794318
Si 11.952193559216168 9.337588562143862 13.280117854330335
Si 7.41213109803721 11.204984445099372 14.301330702423298
Si 11.642091051311331 14.652549311967524 14.13769509001181
Si 15.558362191710117 10.73466714927688 15.216962010949507
Si 14.222582233769998 12.292582257591304 13.990124947868756
Si 9.983851963517182 15.934344631820133 15.3551676484409
Si 9.421120913612164 11.660182974044165 15.475843824558712
Si 11.46861043114533 10.584584090310818 15.186981215249045
Si 12.355214559232815 12.771969033250196 15.430715716859726
Si 10.12250582340653 13.80031240164207 16.477387388670927
Si 11.558404153969626 10.357211051727786 17.559382515219266
Si 9.663719141817786 11.78262678599565 17.96730950515867
Si 12.066538347071917 12.684761242906827 17.84337757561366
Si 10.293974027452215 13.910050893000385 18.87771788580185
