48
Energy = -229.0793823 eV
Si 11.834113649871899 13.12025301711403 7.217475225163024
Si 13.830630404782605 12.914528580217256 8.472708306557134
Si 15.006724132847832 10.78951239987059 8.422847162964526
Si 10.61192521344737 11.70807639071982 8.6600393791019
Si 10.97660408031904 9.372829054004434 8.731672085014255
Si 10.979423474313071 14.566449591805299 8.915641568962535
Si 8.626405902783757 15.012025219810356 8.811195942083726
Si 8.470844598200737 12.559545017704139 9.040923714044498
Si 14.921604784833272 14.95104561809299 9.002957184461694
Si 16.376553020719435 11.307359000813225 10.325527658806044
Si 13.157837933491626 9.719175436510744 9.563360416559082
Si 12.884777729015621 15.236322466100786 10.198725955166543
Si 6.547122584317461 11.613290051436554 10.19354212039884
Si 13.870592136324072 8.664387580178866 11.471766259917457
Si 17.929044716495635 12.994639537246247 11.228661903275466
Si 13.949534437577713 11.768237768335792 10.67702258820452
Si 15.771584623735661 13.769417728221656 10.860918509811746
Si 15.744167611287425 9.882497062268156 12.037496737423385
Si 10.459148682934526 12.942226955823623 10.85022751592403
Si 10.011941005305141 9.208934912999716 10.888664528112647
Si 9.311385872805959 15.072791071436091 11.123052748317832
Si 12.62091358117467 13.615329985700901 11.980973564357605
Si 7.92443862601543 13.051042925165012 11.431642807002712
Si 8.074107967542762 10.333623812712093 11.541015363792795
Si 7.658934944627441 14.547155767824187 13.299613529268925
Si 13.17750594647087 16.09878343831413 12.436114514297918
Si 9.157942751796925 16.496545358258707 12.932818334786507
Si 10.21564712019687 11.181741327500497 12.573345674629898
Si 11.091471120066991 8.575819629988743 12.843513311375942
Si 13.02977968199429 7.326670766298057 13.18365150008556
Si 15.122775309387045 11.641813165580391 13.599020251970295
Si 8.058378159512003 10.605721678683096 13.909534782596111
Si 16.892005810279723 13.38551262616008 13.41198539328532
Si 11.44258772832477 13.040920989658472 14.132223381405229
Si 11.184121974664862 15.449475379394842 13.491168982697568
Si 12.941551109240113 11.161941473878905 14.56347019263648
Si 14.64758656081611 14.33341482882323 13.173805568097947
Si 8.933443584622554 12.819607664419644 14.28679656235513
Si 16.2861277959187 9.488568319720542 14.2889173377089
Si 13.961611579276182 8.993610759935692 14.641551408473239
Si 10.039591881389608 9.617822706079119 14.601446122669769
Si 16.870369526799166 11.654993241075994 15.306778603644862
Si 11.62583619678975 14.888142583485358 15.834971364993773
Si 11.177363810378917 10.853462631796175 16.227384564932716
Si 14.678637893523122 11.970931313813038 16.25821225946623
Si 10.081524161826293 13.005451554186632 16.413122236649706
Si 13.646423444003355 13.85761239349046 15.323415093264257
Si 13.353486310229698 9.996870389623897 16.785210955562135
