45
Energy = -213.31327334 eV
Si 12.170839292702475 15.142777753572425 7.902379571485076
Si 8.731774712731346 12.718719321767677 8.68495115072487
Si 14.595496166224448 7.884117789398582 8.259543642016705
Si 16.435852062208106 11.862110399115526 8.464375506763991
Si 12.327723367425657 13.022736282221466 8.900065249400434
Si 12.781035318828964 9.404719909733576 8.40274011548031
Si 14.148180896847137 11.374255673136002 9.125613888030175
Si 10.693211936766227 11.216095549364244 8.648333040217677
Si 10.141808763797187 14.591593777532582 9.092006981112698
Si 15.897449602294417 9.627602779899155 9.19485033591435
Si 9.79121664648317 9.453080606244823 9.982259033128942
Si 13.223245045309293 7.753745338085659 10.30006614045121
Si 7.8539839321537395 12.069436735982952 10.837877016983628
Si 13.261628078164776 15.414737304073805 10.087206057441552
Si 11.047629769416211 7.702019662210718 8.99949779591708
Si 7.650641802540455 9.690718463872866 10.907723687611526
Si 16.03711574907241 12.51700479597103 10.77247551212399
Si 10.299891741758193 12.398823662697954 10.730548705332698
Si 13.620932595355473 13.089992267802575 10.99244218071358
Si 15.371768039058031 14.807397439885753 11.143822728033864
Si 10.277925160582111 14.70544078744771 11.377242413498234
Si 15.015025974220816 10.051280601031536 11.276121456069951
Si 11.602636985538574 6.012868461747789 10.580542101484768
Si 6.562770538780648 12.464600243663076 12.816705883380902
Si 8.109134985794427 10.681466549952708 12.98640380674679
Si 12.191180711071697 15.783021831185996 12.244542302618282
Si 16.455016568718744 11.168575986173096 12.744149809284743
Si 10.991455690244553 8.13789423779035 11.551611196139824
Si 12.925002996261497 9.437220996611812 12.247603512106476
Si 13.99023277418035 14.567349462059102 13.10093994701439
Si 9.403741901619844 15.089028633887018 13.458873771106921
Si 12.64268675343858 11.892733790446133 12.761957010783402
Si 8.10176547252516 13.401718104999306 14.30544398852088
Si 10.88392155580781 16.85123540682436 14.080572914641158
Si 10.80444207756614 12.970476244600455 13.880645755938929
Si 9.576304187566388 11.112844640081663 14.848705081554948
Si 14.48982335349757 11.104291141125012 14.130374758056215
Si 13.446985544620393 8.930593959577521 14.524089145800202
Si 14.143707284708633 14.85686838257589 15.418708858104287
Si 11.743001024238474 14.97206677683824 15.295951788389067
Si 11.789259469741674 10.371759530275627 15.40802342384113
Si 8.387100403930075 12.500449999515222 16.484070100790554
Si 13.79550409876043 12.597784964367898 15.725459241435678
Si 10.661981483563698 13.239722816529277 16.420593307055803
Si 12.291814801341921 11.72086825558071 17.26573740420969
