46
Energy = -217.24942423 eV
Si 14.285611536911615 8.356364933362466 13.07589269061803
Si 14.547272586110465 10.477867007598318 11.695984408948007
Si 14.324570580354811 9.183182443831617 9.37358897423963
Si 12.065947884646219 9.177964026421908 13.197114675984318
Si 12.41761816826782 7.338547475889358 14.834297069407173
Si 14.583605277767331 12.856269376356533 11.590265296902839
Si 13.186747724710916 7.882950618216574 10.98595405275681
Si 14.619880283374764 11.67729556380132 9.427691484693291
Si 12.427745470806718 11.661266604350457 12.137057964066358
Si 10.525319018485291 8.952863609698579 15.117536601030766
Si 12.568859787181193 9.31029803362092 7.702916269030263
Si 10.633354957321236 8.754480994213944 11.297379502213664
Si 11.307858865801707 7.280551650803017 7.506496613925369
Si 11.321705560615033 6.378434710267908 10.9099256332609
Si 11.179757512524745 11.203098848231903 14.280516645540756
Si 9.46263067071209 5.681684599174294 7.441473569719338
Si 12.085384231457228 13.754570322084959 10.83149242306241
Si 12.18647708507918 10.251827551977597 10.143526140101297
Si 10.766945021177023 6.859241852004061 13.212615963145128
Si 12.249143594944243 12.276908363975679 8.86333634361333
Si 10.267955986607385 9.35820531514426 8.5105002597532
Si 8.999238083027453 8.541467984591826 13.0791195529705
Si 12.247295833712466 11.437955285853068 6.503541441323701
Si 9.978275216403647 10.921434897672368 5.677622268993661
Si 9.956257213164085 12.681785041882849 11.295319036828479
Si 10.071345239100182 8.409575180980362 5.817916441394446
Si 9.125373706745975 11.2039823958203 13.03549417078712
Si 7.949683678326902 7.194028728050623 6.220027786715225
Si 9.640725669634719 11.592688906720651 9.239867937261918
Si 6.79693630272223 7.802091236376481 12.508689434963399
Si 7.387434027831634 10.795394682708983 10.08193941690199
Si 9.764608308441641 12.913504287539308 7.283967289455247
Si 6.98998877949231 10.163808501562324 12.384150844552408
Si 9.598949021125687 7.1862845854970825 9.388647113389206
Si 8.071819330579658 13.581387352085164 12.51966034667692
Si 7.811332594631034 10.759643852746944 4.500839822142392
Si 6.938154666483632 11.98958274632873 13.964925554872776
Si 8.147929224135181 9.555022715232413 6.839203520787177
Si 6.40375407753384 8.754779914770591 5.146707157033712
Si 7.753597512703258 13.296861180580267 10.076325289628526
Si 7.608918556423484 8.285899868206462 10.3132675818666
Si 6.012351271847378 12.360960153422377 11.625228511714663
Si 7.673380006595306 12.007879310534818 6.555910770737553
Si 6.551900775687717 8.10353294578179 8.068087375563639
Si 4.719618167197781 9.183923427571237 7.0140023228937665
Si 6.228841118618912 10.70050086568674 8.013121973627149
