53
Energy = -252.53802569 eV
Si 11.611982319795887 9.270432167389698 5.893619368429005
Si 10.943930850192682 6.381956577953261 8.315085182162923
Si 12.699465283918794 7.461571642380428 7.124283729046524
Si 9.031374621668215 6.734900887784651 6.977596916342171
Si 7.203588749219614 6.142947379776124 8.398930016711478
Si 14.300008042235325 12.012116992086074 6.321197987186359
Si 10.760728154651511 4.840597886196632 10.106388923150117
Si 9.255740646334047 8.927185675121466 6.2496943920884895
Si 11.978789533401157 11.489202000767685 6.870716391152345
Si 14.042002922309624 8.511539320403076 8.77880643015506
Si 11.924539906594834 9.51832863784181 8.426751233463564
Si 5.869657090636605 8.050548861755374 9.026195712093422
Si 6.675652363469343 10.130611670145852 8.180441680726366
Si 15.016369667902874 10.522454618442099 8.09103625522035
Si 8.352256501490283 4.925042983199135 10.262037002735763
Si 7.639990181180576 10.656634388335432 5.955214453531256
Si 10.653312137281961 6.72266844716254 11.501700004162993
Si 9.747469526076218 8.547353442644583 8.669140406797515
Si 14.865985457412267 10.78272131651963 11.432186293853128
Si 9.584261992779316 11.998830230749755 6.5802847851138635
Si 14.521996001417834 12.929567884116292 8.536842819760338
Si 6.948037328207378 3.8519500292933593 8.79789062875717
Si 13.43965509489426 8.945262648064103 11.033900979158718
Si 8.245576105607062 7.570546819386055 10.171009763398576
Si 12.425140079310633 11.134086388001855 11.003255401101264
Si 8.925200095726215 10.839369825788225 8.5506479145244
Si 8.439597544687944 6.498887684704516 12.273177633558378
Si 16.266332579671822 11.766677761456277 9.703344655578304
Si 12.381948114409052 7.652696873385762 12.736028235199537
Si 12.071070900187252 12.516194982510262 9.145522234036529
Si 13.305042672620635 14.690729725614592 9.51466758397738
Si 7.577401990947366 14.532522159016802 9.525140141255541
Si 9.054495572686452 14.143272429994115 7.529843786495491
Si 8.358190419411683 10.679473601127699 11.045669666360816
Si 6.466955416291396 8.983600133970299 11.148658883220094
Si 8.587538247998854 9.356777899900115 13.123421575255582
Si 9.578251306614064 13.039000548242097 9.829406471069762
Si 13.529792802833054 12.02792412038145 13.009041966516412
Si 5.829610376956253 11.078399469705268 10.211876472032305
Si 6.636786976998061 7.946299040957247 13.375015552366953
Si 10.41933687571774 11.187861783948478 12.24180049015952
Si 12.679449518091653 13.668478765170564 11.56919169536244
Si 10.972825987773072 14.861039337905389 8.766815889351484
Si 10.911722887545885 9.25401844570575 13.680327531359213
Si 7.063280748910906 9.887984770447899 14.982384859951964
Si 9.571973954121695 15.517456535762411 10.576441949671144
Si 7.099915578820484 12.765840365106133 11.259137714634319
Si 7.6741467821755736 11.69498247098423 13.382983389473486
Si 11.652636106330352 11.331582069320392 14.55117590222758
Si 9.447348052140882 9.77947255205418 15.634114013027183
Si 10.394639647179535 13.88108637811168 12.05801921068174
Si 9.66997250020373 12.783374661562783 14.05118956644897
Si 10.204536214636477 12.014217386502272 16.288324040719797
