54
Energy = -257.28712938 eV
Si 8.973129873956385 8.975546769769554 8.450569393599249
Si 11.640169145635548 10.15292775811096 10.173068080107928
Si 13.346771309472558 13.826176015557833 15.808639920888798
Si 9.57231010272179 16.038945252666924 11.633136262436118
Si 8.782111534055366 7.330091101387683 11.977543806524857
Si 9.077274031255 12.266008757777815 12.576537847200465
Si 15.166163303662909 9.742874700512017 15.090805829976114
Si 11.183512863073508 10.53456859393558 15.846325681239255
Si 13.016018038441162 15.710863974487726 8.223042598806703
Si 15.538580254478477 9.983044884075408 9.588448019815033
Si 14.122156414975048 13.6354065611349 11.070706515867176
Si 11.199698665534818 12.805039758177502 15.078560772710622
Si 9.082468220734864 14.747585975992234 9.680255783865025
Si 15.225435847024752 11.428302481565922 11.478135032083328
Si 6.512553092812784 10.638705113721189 10.695968195129446
Si 14.0386890125971 13.568959395626129 8.616937856835527
Si 13.281076619941622 11.807292780702683 7.061896161234372
Si 12.297310409126576 14.713589353573727 13.770161201502138
Si 11.277313480399183 8.137027706318374 8.9471301766655
Si 11.870333924893794 7.791080998307206 13.175653953729768
Si 13.553786069007515 9.753753342746878 8.296745910421453
Si 14.491550811527725 12.037331346757606 14.316660567172018
Si 14.047424802969427 7.262088627461362 12.242116026267023
Si 7.792302875555192 11.192414141349857 14.173963995016814
Si 13.06908106044316 11.267083659378478 12.566144250816665
Si 8.783054616300355 13.269007917315664 15.01974854496647
Si 9.352988468942716 11.270682612696575 8.182807534681945
Si 16.820858889232387 8.073478295824728 10.425060874770654
Si 8.384832558237054 14.575733716443095 13.088416775162527
Si 9.660295900856113 7.214133753687996 14.238460214072498
Si 11.35083806591459 12.768637543486918 12.60415651460082
Si 14.665429205831504 14.359061192515748 13.53432324285504
Si 6.764279613228339 14.047655510790404 9.525050537887259
Si 10.346590035818386 9.415151337187194 12.130155932454217
Si 10.950061819913833 12.50561055771202 6.958524333554721
Si 11.83296070247537 16.68312689821744 12.421574580909216
Si 16.65752175013015 11.050302125128258 13.407896259716345
Si 12.040206948003616 12.272441067882458 9.179840230416664
Si 6.76714940270775 13.43945260600617 11.858228333133066
Si 14.586060186305366 7.398855241596158 9.84038876539376
Si 11.073812843873752 14.408115024937349 8.417488298420778
Si 8.66314631664937 12.381361964604253 10.248492850671822
Si 13.311549524357039 15.823489422320904 10.64226973767641
Si 13.687167457259513 9.392509144753372 11.13393287105983
Si 9.572197469094428 9.606839946460191 14.418295799346605
Si 10.909025076362957 7.100340050357604 11.083048842478108
Si 13.273172850879016 7.448010655948852 7.7514085420516
Si 12.864455016891712 9.732077102395788 14.370404411646
Si 15.777657666863867 8.968532919793493 12.576347639138133
Si 8.364378583737851 9.236001872414965 10.706103216143086
Si 7.022526553889893 11.843747803468109 8.470355991610957
Si 11.416805623775247 14.424139653756745 10.949462786067857
Si 5.738295886539797 11.530443661039852 12.80377366291622
Si 6.332060763852573 9.540952912385272 8.601430398508269
