5
Energy = -19.95008858 eV
Si 9.948062282748738 9.654037745062151 7.23518111200498
Si 8.874150697790556 8.01547448579515 8.625046721259345
Si 7.588724085947616 6.399597734214349 9.846020559755617
Si 7.7699264273932185 9.158794454869547 6.916971331524703
Si 6.625512060854763 7.578471134793691 8.18315583019036
