55
Energy = -263.33535647 eV
Si 14.796435503253084 12.029260854207118 8.322267638637678
Si 12.235954996668072 9.098981515348509 7.9519159549985226
Si 12.618719619813147 12.818111109303375 8.401984594369596
Si 14.467698204640996 9.687858062668417 8.555058852507381
Si 8.777720990476958 11.258748409650792 8.611155146874703
Si 11.093307986286744 11.03258732735141 8.545862440070206
Si 13.48599800487062 16.747667623134916 9.224344805484284
Si 16.610932944008052 13.430536137594135 8.96055679837328
Si 12.034785735095603 15.087482761902947 8.383580866342925
Si 15.899244646427615 7.891782350163921 9.26099688556657
Si 11.789293380210216 7.452699892395658 9.63582402438211
Si 9.204123880912546 13.049532356204503 10.087095335460804
Si 10.026748806483104 15.181808362654415 9.535988802846793
Si 14.693188750629563 14.738766608438112 9.738083057331902
Si 13.382438166215882 12.204476062420705 10.658005500615406
Si 12.683406846598126 9.876880650516824 10.301422317962816
Si 9.738029130990988 7.765953865461159 10.990179081178912
Si 8.749213612849864 9.819991661950821 10.534101920765396
Si 13.932586258682297 7.735341586384409 10.643559889021946
Si 15.844058267529066 11.936283392404441 10.755805940780872
Si 15.92483099008057 9.544469085322897 10.936428524077575
Si 12.092594415350623 17.992088879653227 10.969483238003855
Si 9.768202777616363 17.39547968858807 10.35187033530417
Si 7.915827548280093 12.961651840850616 12.042423383888995
Si 10.85044103740498 10.018218491364102 11.714737995008418
Si 11.85768944956706 15.59539207561023 11.031067612646174
Si 10.51574302081122 12.539083959586783 12.039533102806752
Si 13.668632656951827 14.2740556528182 11.7771909370212
Si 9.207999446518604 16.95488994164828 12.671262284223488
Si 13.88821283782542 6.8472402031243496 12.80894568017115
Si 8.527132755196172 10.81591292273086 12.67946108483947
Si 11.903289483368978 6.68778147391155 14.017982437508318
Si 11.534469599118367 16.9919772666816 13.266779322305593
Si 15.753874362462588 12.602737902392649 13.061180239913945
Si 10.364711122388726 8.32574088571312 13.259204314562886
Si 7.425044981596623 17.033185360545538 14.179167705062804
Si 8.081274434295164 14.813124678706894 13.502456840554824
Si 15.002538959013027 14.755984032545998 13.652372301438408
Si 10.555529331024976 14.72810907899796 13.22216711986764
Si 12.02001376964827 12.181328207520794 13.865044202595067
Si 14.109135154521747 10.863070648917526 13.653516846234847
Si 15.652031741445507 9.072571296365602 13.237227378517243
Si 13.557255097294115 7.9183741922801305 15.047850365155893
Si 15.655873353705907 6.980532615597152 14.392531513647754
Si 16.536182052503076 10.942559273617855 14.597818693628183
Si 8.830182524869125 9.536259342190998 14.703220135846657
Si 13.541711594136235 13.591371901763619 15.162738029534498
Si 10.768091878088274 10.850289227140543 15.47992291275097
Si 11.277998863227403 16.091419586856606 15.460824893165414
Si 9.075442770935037 16.74147914857411 16.03238215284483
Si 9.274963320282723 14.455440644116882 15.455567099701055
Si 14.682115703229874 11.616069540981197 16.01151024350369
Si 12.968021709468038 10.063732991520558 15.78232296191608
Si 10.999051023899572 13.058308750263434 16.199725492416633
Si 12.526025663426765 14.69133978353907 17.012313927957443
