52
Energy = -246.18396342 eV
Si 10.028132245005654 11.145004647832645 12.81693704196889
Si 7.472071699120364 11.4569585290417 14.89194926126742
Si 11.302076841874786 12.541139419687328 10.690811274481756
Si 9.77478927555656 10.14462238184852 15.07213761787232
Si 9.769413518391964 12.587740231396548 14.77195922927428
Si 11.249285264644252 14.253645247129942 12.429056713918161
Si 11.293059270370795 13.75748250017536 16.18593522736175
Si 11.311048724493896 7.505907643201454 12.861598198423858
Si 11.285137301318382 8.238916315783586 15.171338170113158
Si 15.12755048387273 11.004441434797187 11.082893580386454
Si 12.447904257900548 11.119883435633119 12.642387040825858
Si 11.270407682167841 11.363752110435257 16.59514537504239
Si 13.84034458136164 7.331557141796213 12.629860124584996
Si 12.701171288834972 10.182140001201528 15.021726377606779
Si 14.955269270439086 12.783266830724509 9.057422567011846
Si 8.831915353913606 16.411975103855255 10.686920132133126
Si 9.073691859864057 13.95149258255914 10.39381635670404
Si 11.228939248595717 15.956300736412858 10.73630624426315
Si 8.96487446841808 14.886976661841468 12.719336065628813
Si 13.525113794462454 14.905983246935257 12.811226439728104
Si 12.517595361912226 15.46167137335337 8.648080453002626
Si 13.472750461128328 14.01705185548187 10.461967736318185
Si 13.630771892343521 16.46180436488187 10.754194761686305
Si 14.438128428899157 12.62547647987762 12.808142117039093
Si 14.982827460879307 11.216737356403808 14.81025988297512
Si 8.091864250116723 12.630426410145173 12.765711007180627
Si 12.620233446285335 12.61613716161618 14.56368344225748
Si 7.9961844045806725 9.802844133177848 13.174642236605695
Si 9.529731781800944 11.090192289038567 9.714931326682168
Si 7.602882360811761 12.679749359294508 8.992571723638866
Si 5.929681982818033 10.908937141738035 9.267042269296324
Si 10.01527238016098 15.434120500388236 8.58901782908083
Si 9.411664193561448 9.757278532307545 7.572424077864477
Si 11.29226102932699 13.254292519622984 8.348642821005523
Si 9.287636316652561 12.241112074271511 7.354327131680774
Si 7.341594238380727 11.039474699466467 11.123006825606867
Si 16.69040826839975 11.064918373141087 9.345214546945765
Si 12.598945844473572 8.896650739446965 11.162601322198272
Si 13.32824772824472 12.298287019133546 7.394928740648064
Si 9.9952466796669 8.95819397838059 11.258860289999372
Si 9.933721735039967 7.346820067318445 8.079370039513599
Si 13.097436575414648 11.12360016954075 9.619258818793677
Si 14.459000051304622 9.676884623227707 13.020352267932223
Si 8.736846853310977 7.534549508791677 12.859632819538248
Si 14.89536374966919 9.41435764005029 9.089353959247536
Si 12.31813721743027 6.993952237788506 8.726437077290052
Si 14.291527701147082 7.348172269686083 10.168018975379468
Si 8.515499400380932 7.200188035403795 10.373623616492253
Si 10.86133529937396 6.652819632142327 10.62006896556305
Si 11.332090484141213 9.279356344963226 8.984809376979447
Si 7.8309340250928985 9.30276771148412 9.283289681282525
Si 13.186666351080556 9.82667319614642 7.481454245023164
