50
Energy = -236.88133341 eV
Si 8.39507039479547 9.637424590432191 5.77267986273673
Si 8.213503201900748 5.972619629496272 4.625224160494983
Si 9.783518528119545 7.761707709009724 5.134008157383329
Si 10.800439115469088 11.12575663849237 6.127993704341005
Si 12.992563281360905 10.044171808175163 5.619958553404106
Si 4.56095332686572 7.510619964850178 6.191857389065467
Si 6.863249349884819 7.7252354721959815 5.441298968826233
Si 9.819548436052884 13.331038940215196 5.785628925717279
Si 9.421300952868364 8.42741903449173 7.634468824428929
Si 6.885984324497148 11.227128652520648 6.920886735381137
Si 12.175687814650074 7.663653385402504 5.007435113099637
Si 12.25862637757543 6.1781305620377545 6.995700501673275
Si 11.858427353799549 13.111956570445825 7.39334441494291
Si 4.780111631989168 11.245108455426662 8.28782306608389
Si 4.502354672719882 6.3443729725695714 8.3144854302264
Si 11.683305846967402 8.672111942061044 7.148882312280062
Si 13.754081261178827 9.71820428521942 8.041008151387807
Si 6.553729056251632 7.6363780595471 7.810477086448479
Si 8.01702796399382 5.670084146375744 6.98012866172539
Si 9.88408528027465 14.671601309151987 7.8961167994643695
Si 4.1012178655196525 8.994292599620438 7.982865898113901
Si 6.602322355387534 5.4573450470172755 8.924199949911594
Si 8.610948830775188 12.527422844844338 7.825295334858228
Si 10.070206698850873 6.129849683559878 8.024679193468044
Si 13.106714307819296 7.495689437754573 8.787344570864471
Si 10.981026916984153 8.212555596912635 10.058302590985159
Si 7.430757084100125 6.862901242914786 10.84073630057261
Si 6.819415260556708 9.748288869769329 8.781900853627121
Si 3.2134073230726647 7.692992185156947 9.756822100249975
Si 10.546831862902502 11.145337495752178 8.510695120907483
Si 13.20393575582885 8.81398805027741 11.720550414152969
Si 10.933072990757811 13.243850192924738 9.755305492254028
Si 8.980292558730916 9.627362674304667 9.759716423738247
Si 5.429102404162452 10.537271516396265 10.55005347116109
Si 8.394928562544674 13.90953719725544 9.788572289843788
Si 12.330826081027434 10.272993679272346 10.006597283086231
Si 5.238217032979278 8.190786120086194 10.980891431384261
Si 9.032075003184486 11.840511312911794 10.966118274209434
Si 9.735859682367321 6.111378219111949 10.395548071021835
Si 8.10284958966111 9.044941248671966 12.0679300058171
Si 10.603509681172461 9.168115064556687 12.39338234654572
Si 12.50991436187972 9.860857344498347 13.742750067357607
Si 13.818297312522297 6.650134437831273 10.94855905899073
Si 7.350846511274589 7.12907103852751 13.245384262768056
Si 6.984715276946024 11.154590723464102 12.27744357022563
Si 11.297204453408568 11.52356217235719 11.83843956571264
Si 11.592657716520176 6.5694896133373195 11.872636810400008
Si 5.759289540871959 8.963569983196567 13.22831761735342
Si 9.156022042027503 8.410789026848718 14.295920683868639
Si 11.402370763005576 7.578205250807813 14.086038125497636
