54
Energy = -258.47814457 eV
Si 14.088924640241714 10.518806054674707 7.440071889444458
Si 12.62104252713554 13.777781228718109 7.71891256219333
Si 11.756438740025779 10.331175535167423 6.86991786882302
Si 10.788406228307862 8.344505122938067 7.804486166570504
Si 8.070683778987865 11.08486377236633 7.676541700120542
Si 8.736831952103953 13.62907574224927 7.685709089918894
Si 10.786192063743444 12.368857114814222 7.51725610498659
Si 12.176453540107387 15.980053915297201 8.429725893121969
Si 14.536185391991854 12.627172979248316 8.379200878503816
Si 10.040133996027667 10.30865615384102 8.896495862617948
Si 9.996119574601705 15.207680748132173 9.062920677953215
Si 5.902467526266386 10.727593566108597 8.69287383836476
Si 14.696180387825846 8.785386097239428 9.014603220226467
Si 12.39257915078286 8.499306453042541 9.549901715524276
Si 13.570268229594681 10.882818266121623 9.866208865424086
Si 7.126201212481951 12.72406391375023 9.338133462389058
Si 11.914331424102224 13.959162847629015 10.034421706574813
Si 16.290783929078515 13.748797790153395 9.490543040126756
Si 7.781590127654527 10.304114656744346 10.029256201915738
Si 11.398266402205047 10.834745054393512 10.761270323928239
Si 13.28002751492901 15.940417821653384 10.578399802925059
Si 10.224690383001693 15.56216564541394 11.31800039599519
Si 15.479669780482832 9.952401048508753 10.962393605892649
Si 7.838908672730505 12.351171190447678 11.572646457694105
Si 11.588340480564645 8.70978426983274 11.787802074203126
Si 16.589750502533636 12.036692763236788 11.13590455104385
Si 15.555040234184904 15.534373763020035 11.01828222350709
Si 14.386683266441619 13.415335924896503 10.981788371152458
Si 11.319078936228934 12.606881251660887 12.380777318521625
Si 11.92096887338653 16.88941828063326 12.334882618549022
Si 8.231344646878288 9.711029560431767 12.260284829602963
Si 9.256004801641561 13.890865793630999 12.642600497156984
Si 15.414181274179537 10.25593466884018 13.963558742005706
Si 15.669172309860471 8.29751561113875 12.70230035205968
Si 12.27852285087844 14.847465184991512 13.533568511626576
Si 9.57662290523241 7.884323722870514 12.809589874516215
Si 6.767858296039785 11.162341309689694 13.298685293207383
Si 15.993066581755567 12.453185261443725 13.400476626840598
Si 13.410484230975865 8.67198102696864 13.343963718338115
Si 13.075662208814428 10.634595292414987 14.830013205174646
Si 10.849894347300557 11.391013767874792 14.436992467576498
Si 13.653943211627201 12.965686744422694 13.25980638186763
Si 8.388463117834812 12.022136994599217 14.814290906058748
Si 10.430574433950225 9.000806178660492 14.728826600678879
Si 8.702012497154685 14.336358803375406 14.912117304127262
Si 11.021347922301713 13.845086409609067 15.302486689297904
Si 16.247136592597943 13.060464393900704 15.791574642329003
Si 12.516396633101298 8.138491093145094 15.485549987779905
Si 9.37828687708815 10.4601685766531 16.31013332319204
Si 13.152476604231193 9.742403371762167 17.17773623472043
Si 11.483544685003201 11.488974256078796 16.88595504097032
Si 13.880484027719843 13.080188647363741 15.737786867554012
Si 15.114772177305843 10.87267331803637 16.237924656544994
Si 12.213157429317967 13.70170117070788 17.363098889104656
