50
Energy = -235.8876359 eV
Si 10.010568469766142 14.556475039092312 15.96055105321386
Si 10.146290148742734 9.324540956179492 7.257064071465365
Si 13.55761044516313 15.40973938889838 12.931325760959549
Si 11.022200858507038 11.590546619470338 6.635948133462432
Si 10.47765433385482 12.24862644227617 16.996238906294828
Si 10.777759855070594 14.60159657460213 13.667734565465947
Si 11.26216490177666 15.405888328125808 10.299971526595227
Si 12.03018755801236 9.4092950933132 12.077593197955506
Si 13.474569180593912 11.784563704187597 7.184622044927255
Si 9.68619280494723 11.7840691508129 8.80295413648518
Si 10.501207688151231 10.225360167181785 10.417361417277979
Si 16.120760104797434 12.578585028235183 12.291892627618699
Si 12.728503998906769 14.306680909178842 8.76212734222524
Si 8.149765628932474 10.017398279941311 8.425979239039625
Si 11.002019448136659 9.36470723237211 14.309471898887573
Si 15.510346364414412 12.481284198719907 14.685523063805086
Si 8.676024707452871 8.584752034916127 10.388624056599712
Si 13.737030444370019 13.36837133197647 11.674320866333762
Si 13.456493910871528 13.742059853090675 14.671977798581691
Si 9.339562878259578 15.410156319941139 8.804594228341655
Si 15.592141392331301 14.878745684654822 11.646925097703773
Si 13.562956594190034 8.188578858292075 9.154366983925232
Si 11.54314151607572 16.544346694907546 12.452561385559914
Si 7.465049700460059 9.954291367795488 12.052541082207984
Si 9.349200604896309 12.43520436643629 14.734175082088344
Si 13.44809740566821 8.550655047353132 13.919503450844193
Si 14.026609992312885 11.32428183478577 12.934072028006684
Si 11.607577547481919 6.922206862115242 14.243820296143353
Si 11.800293779243564 6.950632384348058 11.63260269564611
Si 13.096417445644501 11.955067383776237 9.66576291245124
Si 10.6846891108003 13.748850437118245 7.647767983892412
Si 12.169709792631016 13.914662369855211 16.70831751575205
Si 7.109218822524155 12.193844659622362 11.341277302166528
Si 14.699760491784902 9.739897756053658 7.640141551670181
Si 14.279247396609781 10.099345505292405 10.75955775311503
Si 8.570802931740127 10.07358102438062 14.198985802965598
Si 8.895324780197436 13.595801937114418 10.275978941446157
Si 10.82851645369332 7.879759089531806 9.382084556598057
Si 12.1761954943931 10.040672112560975 8.433734859026607
Si 11.998311785367202 11.3033695714432 15.424890447010549
Si 9.872619415091581 8.002177482072103 12.611498502883626
Si 9.39176940903779 11.496667321716812 12.29709124158997
Si 14.987362793473835 13.813036363340059 9.460722574502222
Si 14.080931193634605 7.808170499721994 11.630616143213718
Si 8.67759063692726 13.973550535212993 12.634341833809431
Si 15.651622876224648 11.363853012782245 9.290978464757666
Si 11.743733263388938 12.378705395780266 13.270738330723825
Si 6.9937921942049 12.724955395042974 13.75238416116524
Si 14.250342362291633 10.449715220834477 15.246927440967157
Si 11.371700239374885 13.059656737775926 10.880258365161847
