50
Energy = -236.92368006 eV
Si 14.071363311170822 8.00385783234392 6.520450683823342
Si 13.677517126441371 10.177286078636694 7.420803210207816
Si 11.78939283296937 8.525769666039425 7.005658211541151
Si 13.486047484476135 9.11524410984899 10.213700152144792
Si 13.63086953379882 7.030730393505948 8.705768625368313
Si 12.379327790114829 11.320055511054615 5.748251973047677
Si 8.289081973545604 7.281868405935379 5.737220211797155
Si 9.984736809267082 9.178803149632243 5.575967725226731
Si 14.351130549781503 11.234211146280327 9.519711825960904
Si 11.245754850117859 8.841584399911032 9.462599370703845
Si 14.677250531946203 6.960963174653443 10.787168962244621
Si 11.246333285847422 6.510807329255691 8.42879451979831
Si 10.619629147922375 12.758638055464147 6.616329604626314
Si 6.812597992295806 10.643310360457853 7.551090620126808
Si 12.764707994216467 12.433179809132245 7.978442184887785
Si 11.011947658441622 6.612985132530234 10.797698657016097
Si 6.318641815629108 8.250466176530688 6.918783504112477
Si 8.986498769793368 11.0746398927067 6.625421431940304
Si 13.847382444920951 8.805932558820995 12.5809709337038
Si 10.531400509354974 11.176896626569967 8.655839799015384
Si 8.894575230499434 6.140807153077731 7.7944048379099415
Si 8.15458994769722 14.947194449298427 8.083927351351727
Si 10.65442054131015 14.875697542926725 7.881659447375682
Si 8.693488719713331 8.646923598058049 7.622865414715542
Si 12.179370267715287 11.904554714290075 10.503557445845768
Si 12.854110061992593 6.440656836174475 12.328179096535669
Si 6.893549495272555 12.876677385863024 8.564307027488612
Si 9.514070379789867 13.301975340827662 9.3347517351012
Si 12.23434925716705 10.753374567589287 12.907486652524565
Si 8.284424549839674 11.09505902133401 9.600763607499509
Si 11.651874247291124 14.311259340937674 10.267110117939659
Si 11.330594557477141 8.38997330875404 12.709932643107793
Si 7.694392282336818 14.647667542376297 10.43384102648211
Si 8.747962071947898 6.665453492458051 11.466366281171211
Si 6.874072327640869 7.087581090384084 9.08056876619566
Si 6.499746971337615 5.793298791095945 11.136603454686849
Si 10.301702163110274 10.249444968181745 11.41465816359789
Si 10.024715856031694 8.44764512859297 14.74808843131647
Si 5.605130163491529 13.465462804226739 10.50010962883952
Si 8.73998493307553 8.61405857557054 10.003190932573814
Si 8.903249306193038 11.941509587010367 12.447800780401268
Si 9.638098607340416 14.044245372076004 11.63439874568112
Si 10.134825061360232 10.864825725384321 14.192132753309025
Si 6.37209203642603 9.437515344158017 9.992613817810328
Si 8.55664025981666 8.922315551570591 12.721640250165185
Si 8.4465337598712 6.765524344885769 13.828907800180867
Si 4.986849609805254 7.838504593088911 11.21494518221991
Si 6.033272346340307 7.0185058011635695 13.30682115481558
Si 6.765301246687926 11.588792615611831 11.479262625080803
Si 6.228088660130051 9.501786175921643 12.622106935072418
