5
Energy = -17.24890992 eV
Si 10.741147840416609 8.57647576906853 8.942146872327072
Si 8.905023879663101 10.190027124847207 8.648878415814394
Si 7.250048290106309 11.237202559387057 9.699405068077489
Si 9.015521986256335 11.295375726504172 10.961074397315295
Si 12.347074824712628 7.233203937433286 10.167073290207293
