5
Energy = -20.3720158 eV
Si 4.506188599039649 5.106236882331099 6.322032153062138
Si 3.860896841869953 6.318555869486627 4.458316064600813
Si 6.076010559767407 6.948186502799403 4.849440123897908
Si 5.623998084309675 3.0948714118287906 6.064322765007072
Si 6.099530409313328 4.6797956161746255 4.475692634948862
