54
Energy = -259.45582278 eV
Si 11.590022371351651 12.010632249852165 8.363725359774586
Si 11.488086956450493 14.366606622878802 8.749925679366529
Si 13.390682506830343 15.807090475406167 8.535295748738136
Si 9.18956566149748 15.008808882095787 8.854728646824805
Si 13.17143995271975 10.84866303589286 9.600265585228223
Si 15.431612725270055 10.696239969963273 10.092146758487564
Si 15.427822600757374 8.263472326751522 10.039292583048326
Si 9.969296403705135 11.37437300803565 10.058198811518714
Si 13.030746623073195 8.605710133370273 10.300964231631614
Si 14.35775667071861 14.281987576153313 10.099981926345178
Si 12.425914456039072 13.0089457714492 10.588971260528341
Si 10.051071356228016 16.63257306967241 10.417771434591442
Si 12.356762980423602 16.640882677857416 10.479712769198459
Si 16.30234068090206 12.9038367540826 9.662278299334575
Si 8.965379660737321 13.478074725535578 10.682073407166188
Si 18.199814850463916 13.77599897933258 10.778833772684889
Si 10.781577824771277 14.79746764370205 11.886879460512763
Si 14.808803537048126 9.269351737787199 12.136788899867101
Si 11.311668888252916 7.502408165820413 11.502536972516664
Si 11.508176479417276 11.394350221990791 12.037049206156894
Si 18.270170593334395 13.800943438536654 13.240597387463044
Si 13.454502548093297 17.552531910209858 12.346655352552592
Si 9.98467539601218 9.463336044052195 11.400493698434254
Si 16.047953116053247 13.825979766208613 11.919818167825595
Si 9.343777063529615 16.908967538014693 12.67048548411567
Si 15.363942562230921 11.62281422075206 12.565058983268019
Si 6.876312542858403 13.513257853721521 11.761935749233825
Si 19.362106701800162 12.053742663385885 12.161904942352198
Si 7.454426492306517 11.816707885909278 13.332832722137484
Si 12.391759101592088 9.248387645970807 12.80219272056189
Si 8.437629849459169 14.753339718323671 13.005469249458757
Si 17.493903224931536 11.192804861726058 13.43610419647192
Si 14.284468979153012 15.328747505605797 12.678734717400511
Si 8.32265259912466 9.668492967131337 13.098968479611568
Si 16.41252650703561 9.044699774708466 13.973421854185816
Si 11.578547755833617 16.68290386423464 13.550068209977132
Si 12.418414687492922 14.202983493278476 13.773156824822976
Si 12.602096655085035 9.055842752952957 15.190713802083016
Si 14.408362880414472 12.644718484070262 14.622131621589913
Si 8.784687609696563 13.588553050874225 15.01222436326467
Si 17.842545709659863 14.94412767285824 15.260244921001819
Si 10.730880747648136 12.485973512409224 13.945244523638397
Si 15.517362959372063 14.932430512592768 14.749756657533165
Si 14.67738856113576 10.152081665227914 15.148417660272706
Si 7.141998219900705 11.979166758665322 15.676001901888649
Si 16.87430827479824 12.738154711346041 15.242527502270429
Si 9.0416379225242 10.643958144212863 15.092789723716153
Si 12.159127374584644 15.787390981563926 15.624341403746344
Si 10.803313320905191 13.96517184454487 16.168346647780293
Si 11.303735883103762 10.980970392589448 15.706433455497047
Si 13.638024463093952 13.258321850122424 16.866343858450186
Si 15.440240877222461 11.671430629696777 16.805540291740574
Si 14.2679575060913 15.552913205181188 16.726954071244382
Si 11.591617011469916 12.352277535897155 17.65826692509369
