51
Energy = -241.54373279 eV
Si 13.649127773867745 15.504628239442724 11.124170896933883
Si 9.777818325055236 15.649630725173969 11.272934953175758
Si 9.365817468494344 13.124575419221328 11.703605716130507
Si 11.032739145697462 16.016909731986733 9.24753806429697
Si 8.692964018032434 15.193762088375058 8.983103357284671
Si 8.845125130325837 12.829053415264088 8.040359334572397
Si 7.536085636837257 14.76095305468409 11.142552632285394
Si 11.008876425670808 13.74098565122752 8.509022874977052
Si 9.702826737875956 11.541561945950722 9.950238545191688
Si 9.308965362951824 10.381814125933717 7.677514298401262
Si 7.534960404122037 8.805785288486511 8.073036220044028
Si 7.374187157185046 12.478849335329288 10.086790769813373
Si 11.694876856457803 14.013913999256218 10.99821084346572
Si 11.516159652016349 15.75851918232244 12.897284741327477
Si 10.688730834319655 13.7760959927783 14.025150076791837
Si 9.81178374785186 12.924666684302315 16.119338800855644
Si 10.722773832550173 10.114171011491111 13.284774432174734
Si 8.12964680084524 13.818656572366283 13.620657163558995
Si 7.881970628263513 10.020767868825297 10.125341539300535
Si 8.487134018605307 9.646050975772868 12.458237343107209
Si 6.904855423427698 9.63716437997082 14.30278237020756
Si 7.223000439110342 11.729576182234503 12.699323977998164
Si 8.380512767233162 11.444638577527833 14.912116908043442
Si 9.571224814510376 7.901964456384583 8.937611446263487
Si 11.890451038876586 7.314821807484777 8.542608289572803
Si 10.234966871643898 8.337079638304438 11.180205155933388
Si 11.661938973277667 10.299536268170327 10.729646319934
Si 12.304985425738385 8.391800303473943 13.778850879520418
Si 9.193271991357507 8.979082432562928 15.039260716690341
Si 11.028660221706659 6.627410731695787 12.688992483432925
Si 13.508646780144318 11.076414503179402 14.397623979030366
Si 10.664152675174961 10.697188667133126 15.769799309367714
Si 15.027426406280764 10.544443209671527 8.597619496779856
Si 13.191416288310187 13.45128820215941 14.635292527920878
Si 12.711376120966875 9.465217712427473 15.94862691789845
Si 14.57498525033062 8.383139846429009 12.932065089033417
Si 12.469470455193102 6.978694733790242 10.848475671611448
Si 12.066584677193191 12.100650575879655 12.694988645364027
Si 15.357872154806598 10.60892491846422 12.997052754027512
Si 15.555715129068874 12.654599399568133 14.396324922355308
Si 13.884664117080451 9.460724895651229 10.872747793722041
Si 14.376924167257972 8.26700060344952 8.77413950881208
Si 14.854909586539778 7.131788665992258 10.886240612299627
Si 13.193377225129032 11.105165201335474 7.281193052499909
Si 13.063049045681195 13.551261339930745 7.303042287578531
Si 12.879290439524329 12.221605558834511 9.443580898101281
Si 14.3559038881649 13.659596203879284 12.524062005942694
Si 14.919731934810672 11.918026369304236 11.01350021873699
Si 16.406393274074606 12.440957370392264 9.266844213108872
Si 11.523974882367833 9.735054789695157 8.348497870522552
Si 14.500431270208969 14.02656426239509 9.159754958437984
