55
Energy = -263.98933403 eV
Si 9.319126434514539 11.548735802402577 8.082485495043011
Si 13.269915466235116 13.863189471702245 8.790388087558256
Si 9.227465005474446 13.880007449878647 8.590105382821333
Si 11.207584680498732 10.532315770474868 9.079675285136174
Si 13.175669546978064 11.680801867651912 9.566950838644685
Si 7.262747280784475 10.599420173699007 8.70503177362603
Si 15.107317349019723 10.652954949916815 10.27308307265469
Si 11.26110334287853 14.94104037870793 9.33261989551474
Si 15.008036349024959 15.278884090370967 9.401483936903224
Si 10.793707596735812 8.383890979931188 9.96493226759979
Si 14.244466118678975 17.571226826264702 9.402062606915711
Si 17.18764470356286 14.401477358031029 9.988490940756645
Si 8.923067983154732 9.85760354543236 10.167241292374067
Si 11.792792528798582 17.252943735026566 9.434736799416694
Si 10.066431307868928 12.426343151639532 10.44237030851502
Si 16.504487648054067 12.374237047466648 11.1569407732327
Si 7.820883546089209 13.698484173292867 10.480468865175864
Si 14.247302559690745 9.167557445123782 11.83551845398618
Si 12.969376705997714 11.313190881507213 11.96352575834903
Si 6.210510415983018 11.97470502518476 10.547821487706965
Si 16.170910307902062 15.200410482804626 11.985671861972719
Si 14.732689970526602 12.961193000862796 12.752204950298665
Si 11.895867781750448 9.125201301873659 11.981494493094704
Si 10.776969272844381 16.55194133368812 11.467010152012131
Si 8.224462368564076 11.444868984491693 11.756883418354157
Si 11.092072425794099 14.04573401707854 11.889303580670283
Si 14.31182046895324 16.643543311668203 11.561301984758797
Si 13.402497644605171 14.286794433216333 11.247962480326168
Si 17.65846390144708 11.238499459828015 12.929041950763056
Si 12.997351495764908 10.890854423151563 14.826175315714773
Si 8.843988549638377 17.343680457458856 12.500096313988553
Si 9.30962604972995 11.667713475716267 13.87621212915836
Si 11.535145949664964 12.678357529054901 13.842727928718526
Si 8.733008161785731 14.946135484678 12.318515967705268
Si 8.121795548696737 13.73679181401401 14.255115370885084
Si 18.282836011674657 9.024230653069043 13.605191464178093
Si 15.920142222143733 8.78858850844182 13.416656817183263
Si 12.689188961461197 16.12129187205816 13.177124683820008
Si 15.462900573424873 11.156924982864785 14.265601459076473
Si 11.363743042846826 9.08571601873446 14.331872916315357
Si 16.142366133159385 14.738197680487648 14.232357465259312
Si 17.384146234565407 12.75237671012584 14.667439725009444
Si 13.734221580588317 14.38063156608957 14.49801213200317
Si 10.64000719449169 16.89247824959222 14.10422444596965
Si 9.248013975153938 9.752390951751732 15.334318284784858
Si 15.373825911693766 7.410599913208673 15.331408025588985
Si 13.345761466445303 8.634596703147931 15.595896103925469
Si 10.021668059659058 14.758583452058927 15.024710450454048
Si 11.390739263458032 13.412614174703554 16.270936629141314
Si 16.822844948612083 9.304522076606522 15.615177136461725
Si 16.581978580909112 11.470708269815379 16.48048393039884
Si 10.956083604320973 11.08555327511485 16.36525173877877
Si 14.290990038691143 12.06633649680113 16.61880692849309
Si 13.503884055280105 14.274491796177385 16.87095067514626
Si 12.94140100205134 10.23148634417972 17.30097709598232
