55
Energy = -263.65913255 eV
Si 10.867720261824442 13.944120647041283 8.229808272771526
Si 10.151492159794465 11.993021424383391 7.070529303536991
Si 12.226162663761807 11.130254870956463 7.901628022995429
Si 13.024703824836962 8.984074066875916 8.314159621897254
Si 13.114906674987648 13.31482019641015 8.324153824875513
Si 8.508589364817535 11.215836176775131 8.586596820105665
Si 11.728811545585618 6.9399699867340034 8.415967580543688
Si 15.104722457465986 14.545744755904677 8.961480104707732
Si 10.023506946174251 16.0672557236714 8.911983837337475
Si 7.851577156111126 9.055364844389162 9.369209777489356
Si 7.045249126143001 12.855092161761828 9.59418237085313
Si 9.78655801767875 7.65864050422646 9.58155693964309
Si 15.213469034437479 8.481608822538021 9.126158645545164
Si 12.004997170736365 13.11333629130817 10.540095501841526
Si 16.587346510916753 12.7443838655252 9.76189234609967
Si 8.461285322384796 14.70078685549766 10.148115608306808
Si 12.11990614198777 8.082756355287257 10.448523640802755
Si 12.041395009825798 10.541205697792313 10.255601708807701
Si 14.433390572901859 12.940214431002671 10.978278696817293
Si 15.461100847719106 10.65578562675096 10.024407677239857
Si 9.76610044305543 9.993409467675745 10.636476270638575
Si 13.829650494013212 15.381615209772992 10.802619722351789
Si 9.55346051911949 12.523366934638648 10.32459091994882
Si 11.46958770771136 15.52545716212204 10.777156621544012
Si 10.1982245599077 7.3620399678877835 11.913571806787893
Si 6.82165111856153 9.349992313837584 11.608463100019009
Si 17.39810494299124 12.568704178509025 12.1002843927764
Si 14.536027925023687 8.079953543639418 11.485182834481806
Si 13.82402110840633 10.334917305010892 11.877019330027487
Si 7.256241617047872 11.684475793522683 11.667202727809203
Si 8.286977770138481 14.882739644389797 12.505788521781014
Si 16.38277739155482 10.411570033626411 12.233125965497168
Si 14.539826851759488 15.439101944570341 13.023692980850454
Si 9.414697871922769 12.78182225867398 12.793018632608836
Si 12.533840026988726 6.888853029333748 12.630680472062132
Si 16.39330843622345 8.213644839797102 13.164524664207363
Si 8.946466198749894 9.226986658259417 12.731833875089334
Si 11.104779424495906 16.310749305353724 13.030773766138934
Si 7.004363828510855 13.129875078589546 13.487646697715897
Si 11.014485265989693 10.758860051813373 13.514298939382645
Si 13.09043006875917 12.132521394099152 13.251302524414596
Si 12.321526916269988 14.340329207011985 13.424075164744716
Si 15.472800885750488 13.284641660060176 13.250745075110247
Si 9.029358612758552 16.340843993996337 14.213073220830795
Si 12.559662769236423 8.905208481095064 13.94792655062239
Si 13.026123316631553 16.452750401883815 14.56663713148727
Si 8.655016114115408 12.425239848728108 15.11018201113213
Si 10.107163300007656 14.334329144253033 14.923666011517886
Si 14.821285608832339 9.746469669838703 14.168674596278901
Si 9.135236379960714 10.050474241298126 15.005122041860377
Si 14.691270580376548 11.963602985254784 15.134224397458384
Si 12.230387662413234 11.670351662405741 15.64258379225407
Si 11.314020445950998 9.48479534433913 15.898646745585706
Si 12.30162972713614 14.49550043436082 15.835318388948433
Si 13.5650834713507 12.913013677332865 17.128019975631233
