54
Energy = -258.86035389 eV
Si 8.25690636413825 13.938194291551728 8.26718523691016
Si 16.163493561543017 12.01473204023001 8.16081666876281
Si 13.926565643866518 11.351616132270921 7.806772827633892
Si 10.755788597379723 15.99234670350591 9.710014210131622
Si 10.66536635021418 14.308623894860146 7.927627394983427
Si 13.653881373923701 9.029164239391163 7.67001322857771
Si 11.878183806633466 12.271055149029232 8.632799070444449
Si 15.381605536623823 12.924442854679178 10.247882092652874
Si 11.902998675610199 8.560562151484293 9.13215129418539
Si 12.641136421129067 15.12512107635324 10.89443644521468
Si 7.2382059277952795 14.881418503663587 10.252339733714544
Si 6.8994947264392215 11.929875578759667 8.445319049645514
Si 15.540262446157657 9.864197534386742 9.13531781731843
Si 15.597833213964513 7.6784432993703025 8.20436956201132
Si 10.593577930233103 10.443904511775399 9.445782125318784
Si 8.23270863667759 10.348301087301214 9.623602643103375
Si 9.187819561467286 15.294550956612948 11.509482624891877
Si 13.049314521969377 12.66359514103692 10.713900991031304
Si 7.112396260597562 8.999743467074927 11.18614702302718
Si 14.824185146872656 15.41072803902051 9.893262026177172
Si 10.625814613371524 13.608661971043807 10.342313083925566
Si 11.994095582031742 6.57440068831055 10.262915836935845
Si 14.18718771944947 7.5948052159909105 10.135044878328479
Si 16.45704323732699 14.37235388842421 11.858025488914715
Si 5.828582800895144 12.809345171474076 10.490704217745543
Si 15.115771190577433 10.599448117070187 11.32907294250957
Si 8.33461424709365 12.706213489677086 10.386688595103196
Si 14.828103730289225 16.114343403397115 12.089630725379429
Si 11.296616897988597 7.815711911519714 12.177731694478481
Si 10.882417542691764 10.37682077050308 11.796907128060463
Si 14.834650762714404 8.130302605767458 12.352664469164878
Si 7.110530597290605 11.321413709875188 11.952206328275064
Si 9.155970344793548 8.7307517945389 12.427204499179386
Si 13.124768526701718 9.91856835700908 12.588160927693606
Si 16.589035788646473 9.661745832398232 12.950371211786027
Si 12.897415502918935 13.203194520474854 13.019928164363458
Si 12.031095533059668 15.514846660804038 13.198354383265604
Si 13.02446118356244 7.561867525757949 13.810166717229192
Si 15.171830093456059 13.345136460558425 13.61719796176524
Si 9.6775322320214 15.88739062989344 13.726970739823267
Si 15.102452177275817 11.047890952987176 14.230995856361314
Si 10.977981333604378 11.97514550079752 13.606608916337287
Si 13.749124888762275 17.093875428252343 13.956676464401038
Si 9.040981740028858 10.166489285943245 14.268249680229264
Si 13.911649447343438 14.926626022358672 14.858990441339925
Si 9.347782289415477 13.550254306773011 14.18859554482615
Si 7.5281151164456235 11.926448874905848 14.222839227061078
Si 12.981814569976013 9.597986058733898 15.026471891877792
Si 10.894842572581274 10.496453957865405 15.623710807464898
Si 14.569650819731127 10.590127347318147 16.46112834950861
Si 10.647977665324767 13.22507468579314 16.18650996837991
Si 12.58046409033467 14.443493193036515 16.786096564744586
Si 12.83868525781056 12.1565496115739 16.97228651701029
Si 10.691445870537732 11.457876066104344 17.77158838008399
