55
Energy = -264.53095215 eV
Si 12.66397939780022 10.280094833461057 6.721707461639176
Si 13.580685940389436 12.545837915620615 6.57441882784173
Si 8.754467470214813 11.614543169554825 7.7837722584660165
Si 10.719272948157107 10.154769949218142 8.113249731204872
Si 14.47341127298234 8.987438645224147 7.796008716779821
Si 9.750460612639387 13.732330876662445 8.053259145607653
Si 12.029484610076471 13.953401288461993 7.635474972320402
Si 15.13505312849545 12.871043376829293 8.345482318423556
Si 13.568191028910741 11.116335452041522 8.81623013821883
Si 16.121089676520505 10.71963755069147 8.56474772764926
Si 10.654566108935844 8.116861462160085 9.31506387691474
Si 8.778290198129648 15.582571820943595 9.095169054480957
Si 7.9281072917684545 11.800338781846214 10.069683015594451
Si 10.404267803225345 11.821708113230416 9.721672391798645
Si 12.874484849309733 15.61397826003113 8.976651343044129
Si 13.014772813676004 8.2728581715704 9.693729355865917
Si 15.203562803303601 14.965465700342717 9.582228972405352
Si 10.853101765073887 15.756922195062678 10.285307603448402
Si 8.001406165466472 14.116273973322164 10.794107151802754
Si 7.3872620437728065 9.767384847527135 11.194006699428202
Si 10.944412340652072 10.726791756666843 12.118515865019052
Si 9.629541193790821 8.875739630963766 11.370234439052153
Si 16.17198436238752 10.131024081042039 10.864776099056433
Si 13.036588580536424 10.332294742001421 11.029413679332267
Si 14.05465128661664 13.599833635861133 11.179381745939605
Si 11.896047982851387 13.59543023218919 10.136502503097928
Si 12.952557216619216 6.39326041809873 11.369995356658336
Si 14.26921815161234 8.366207393205169 11.905059820054689
Si 9.694192286001062 12.797093793459425 11.93625026666238
Si 14.787555142818752 11.553366910849924 12.086014875858663
Si 16.71142763501688 8.004260578284741 11.59779375028966
Si 10.509691590750641 16.721783935044684 12.45343006107909
Si 13.266221727440364 14.489415386129107 13.207444162246647
Si 9.747280023721316 7.464303272449989 13.35697677991853
Si 8.150842410176107 10.912268745914236 13.08846635741079
Si 14.148445738828107 6.277688058112805 13.452651170635525
Si 12.121751189458308 7.600106115174967 13.415912455984802
Si 11.993099923090831 11.205580921397079 14.192642257590101
Si 6.752672161494492 14.92125424965734 12.65019545087208
Si 9.68823419843922 9.595194034600773 14.308117062982712
Si 12.364412942469018 16.587795479516032 13.951043029995045
Si 10.928692223442784 14.485124058823553 13.31341308741127
Si 14.511796672338209 11.172076851395008 14.41158102275308
Si 15.681343542952959 8.109794097851351 13.790094694440475
Si 8.6719086469649 15.930030852412317 13.668390158667933
Si 7.707219044950783 13.066744872347918 13.742308275823028
Si 13.460358621582545 13.164704911904895 15.143110102797447
Si 12.974776389703521 9.116622141616638 15.064807529933644
Si 11.015697277904769 10.06651140506172 16.21281673662683
Si 11.257014263272051 15.55729039606142 15.733157036287245
Si 15.249310135630699 9.37661473481403 15.791396254820306
Si 11.119029966843527 12.453117904753956 16.123948635439845
Si 9.387736657268979 13.803333223478909 15.211183619571582
Si 8.913270562472164 15.96806249542973 16.09331426006902
Si 12.584534900551715 14.038917219127182 17.14712555218717
