54
Energy = -257.91698701 eV
Si 10.602384478797076 15.226747617473771 6.690750038406602
Si 8.096972564521218 11.60922577316522 6.595068564436477
Si 14.584710537672267 13.833107747131809 7.272876503858044
Si 10.127783518676157 12.881533569091728 7.082853439644692
Si 15.47228717717149 11.646254327018275 7.311664894616928
Si 12.58637242716068 14.925840297630137 7.987988721085672
Si 13.54244082275146 10.578826866819064 8.242351893659777
Si 15.979909582548524 15.271819280567078 8.544455071789104
Si 9.501154101251172 14.77351462466011 8.740080368125808
Si 11.651622739221295 11.892513709153121 8.5454253032999
Si 7.957930930485264 13.070810224791817 8.44109766207158
Si 8.40374750629392 10.483988714329124 8.756167326275394
Si 15.937872156391439 13.013394226362273 9.178862380526459
Si 12.52805661052171 8.724462082226145 9.282921026963002
Si 10.579280616199618 10.146448624986942 9.646113351478377
Si 13.905835376816386 15.665590704573573 9.741283190783808
Si 13.668652697432233 6.690416373493962 10.125831838941385
Si 13.683506008443656 10.211104561627348 10.859303374115731
Si 12.40497836957176 13.525764900362402 10.031840076025869
Si 10.395386826051604 14.444301235535745 10.944408215839418
Si 6.615822454922166 9.850777688313647 10.247289798481885
Si 14.349549474188374 12.411089122496586 10.78903388461755
Si 7.325033634744246 12.06673015833061 10.473877529008218
Si 14.833947532091285 8.286583487826107 11.548065942034746
Si 11.524146635125234 15.747939344185909 12.536953441653434
Si 13.52662280463888 16.86378422356283 11.77531989640327
Si 10.188554278148509 10.556953700092318 11.92219878580884
Si 12.766247708777875 7.163636570170668 12.353268338803357
Si 12.234616366799882 9.428252381449596 12.565502629338496
Si 9.014176563583554 12.780117830218357 11.949153913770038
Si 12.53560981504063 13.83726158561131 13.568854540682684
Si 14.680196901667228 13.017340318618617 12.985551681291671
Si 7.949776941697422 9.824097758249145 12.244900871338745
Si 10.92320506136679 12.083919648008136 13.76005953882294
Si 14.527294847927067 15.561705496788234 13.532212987157287
Si 16.444087610810016 14.18527166457378 14.002865228292315
Si 8.537618745668878 12.70316280410904 14.28392978548155
Si 16.387479574317144 8.912166997143505 13.450165374109645
Si 12.89555831916281 15.678809070375623 15.253270454582227
Si 14.99705615807216 6.790215974401356 13.521789479854093
Si 10.598535042458181 16.265528297545696 14.725511983197674
Si 14.80688682186838 10.619761520686255 14.221691233048494
Si 12.852830694629006 7.0474154493104155 14.865054368989247
Si 12.776662003494394 9.524961732230864 14.891990878296744
Si 8.001399840910942 8.541871511084372 14.215999115498253
Si 8.97012778691305 10.16786443294285 15.528088116852313
Si 11.159244521339794 10.990812416633172 15.821726239137325
Si 6.940305728789961 10.872454936365232 14.23040814396933
Si 15.120624774425936 12.669163416441057 15.382088698742981
Si 10.159263436947414 13.964876693473258 15.420512148202272
Si 13.003111429770277 13.551223396618395 16.09096900364572
Si 14.959529332657675 8.295101551524153 15.456799289994539
Si 11.130670018323888 12.838413186182912 17.34098314621149
Si 6.793015798666697 9.424763881360864 16.162263998660777
