54
Energy = -259.54786158 eV
Si 13.170564349002822 10.054801995609454 6.807446541166115
Si 10.464724972190673 13.027072289590347 6.580281314643694
Si 12.655814730260236 12.31767628604589 7.3770422137757645
Si 9.128621389975887 11.210680758263733 7.476353284998593
Si 13.840173896152232 14.470269264894442 7.96566492067973
Si 11.14047428218486 10.057472277112536 8.136593439576014
Si 14.50971962347397 10.098761567490744 8.867643184222667
Si 16.75442246131063 10.581521939418826 7.994483639731813
Si 10.005127627913716 14.558587243690585 8.301354849064236
Si 12.00279209917066 15.64355010803303 9.023470383545401
Si 10.807438678312193 12.33839172842728 8.967919708232506
Si 8.488981242710613 12.455271041259499 9.495900309091018
Si 7.830655039799161 14.75644410254982 9.233075257910754
Si 12.929820498427414 13.43018187328993 10.005138400223853
Si 14.88869135093572 8.732576351509975 10.885032685061732
Si 11.447782228315022 9.68553153003604 10.451606062200469
Si 16.480908540363117 12.258607759468083 9.61032106397181
Si 16.888668040676436 9.876789281111202 10.285174197814268
Si 13.291622156077926 11.140007804048853 10.625761574394073
Si 15.3319990890255 14.281851012640429 9.861876371735239
Si 14.117788169435983 6.487128869433179 11.357212969774526
Si 11.928408730624486 7.492796115763568 11.170168613608205
Si 11.29165280563713 15.599750904058762 11.286483142534154
Si 9.93950468021738 12.928367289031845 12.540409548127123
Si 8.367588999848397 11.417990525623866 11.623538136671261
Si 9.04390251305194 14.958319174895324 11.287614194128032
Si 9.610049157464125 9.424126147529913 11.907086380527382
Si 17.772133230980035 11.690283015172106 11.494219901453592
Si 9.536533461981115 6.9938850008972375 11.415453627570432
Si 12.276232847095368 13.606429220588765 12.586506195790648
Si 14.642118548036793 14.044441352986881 12.151737894834918
Si 6.934070748063696 12.602935621781386 13.12215984798959
Si 8.35255579734932 14.525773159380384 13.474626373192416
Si 14.33049608675486 10.365615412258869 12.53049862457453
Si 10.78907460980195 7.174670444525892 13.437277666193093
Si 15.875621815380837 12.105335601459263 12.860961917287181
Si 12.183929126670405 15.990368494975659 13.392516826264206
Si 13.118050837821897 7.333131695467771 13.37287310691982
Si 14.588900046715656 16.029864147557976 13.530632275838945
Si 12.829951728528757 12.635853376474442 14.760385615584696
Si 10.286621770022998 11.895536329904639 15.002330469705367
Si 12.959695907591867 9.55735067403461 14.258190228072268
Si 8.624452272488735 15.637019024467715 15.630760287329604
Si 7.78698503592278 11.733427013408894 15.104497570888075
Si 10.573347579468205 9.450516965474996 14.123544515332398
Si 10.834588282580217 15.136008151087447 15.115967131501403
Si 15.318723356746506 12.415559438570323 15.152483268320562
Si 14.389772623904571 14.50313055270315 15.32821232936722
Si 8.810585691587118 13.35746859628235 16.344787216863274
Si 13.923080841581376 10.728387946697882 16.15189410284833
Si 9.013127804519401 9.880298535667116 15.933537704924012
Si 12.110021988786551 12.018832442024344 16.986069694040147
Si 12.477965361196038 14.343258395288156 16.661653285563066
Si 9.879218445438774 11.53584734960797 17.527323133913995
