55
Energy = -263.18934948 eV
Si 12.885822249399482 11.149802226925711 7.137650981578023
Si 15.274355838793964 14.388924922977871 7.634382154597902
Si 13.178679948457965 13.341555068181144 8.024246875287673
Si 17.241791080386392 12.792063819808298 7.8536487800598245
Si 9.25368282932635 12.826427197264234 8.325087682162351
Si 10.914466383479146 11.12709773161655 8.411131872454108
Si 11.10482503736352 14.381961149401656 8.57788712958547
Si 14.008497839264574 10.23879847409964 9.053371512890182
Si 15.311977238401973 15.798025942127364 9.566875750146943
Si 16.293183819535148 10.819331275553656 9.096071416683856
Si 16.05548210085385 13.397760649863597 9.876034605226343
Si 11.320306064843995 15.573294600762328 10.618622470443038
Si 18.58263088053127 13.836638971570647 9.756233250648524
Si 13.075478823469124 8.13255087512773 9.803450319552903
Si 11.0039201706193 9.297707207618306 9.861509621198024
Si 12.625819830640541 13.412596908046233 10.395227125333665
Si 13.58182311106589 15.503199389669943 11.099349025495792
Si 8.99731044768638 12.566765605769902 10.68851126102618
Si 14.590024922733832 11.812584979353957 10.816594887439413
Si 17.14011722367637 15.359466319847728 10.948188344549022
Si 9.561443593025386 8.336393320291414 11.502028028616541
Si 11.24445011602051 11.56500473030347 10.902397518323115
Si 17.163573283441366 10.38525642570676 11.264656048562514
Si 9.52261727264908 10.941621696822171 12.598607199903311
Si 7.219926859643277 11.516549005500897 12.14470457582176
Si 18.102872353341425 12.488580459507283 11.683174756993468
Si 9.229473331104113 14.185943445948556 12.369844395718264
Si 12.358585270904491 11.637190637402096 12.984061057548097
Si 9.86355199839026 16.403149888255925 12.334160090466247
Si 12.455451708046487 8.322523037804661 12.072652949210932
Si 7.730591016070943 9.126556879946959 12.778925670274647
Si 10.756133617231583 7.038983576416169 13.05508136095641
Si 15.4251026507381 10.69065125338718 12.814006636710664
Si 17.02264881813247 13.690840588743912 13.299030650718821
Si 14.664156593406267 15.468717925004176 13.195475191208143
Si 17.016634070836883 16.044792610738405 13.259145263132268
Si 9.892721462467307 9.098313157324753 14.03000965101323
Si 8.236421971251211 12.781921077634102 13.98939569933656
Si 14.149020890712402 13.119439094310161 13.472920528596818
Si 13.478716932037587 9.673215491363806 13.680883551962607
Si 10.657153342674906 12.735363971624425 14.207699766932759
Si 10.854682929228003 15.192196060930343 14.16872316155926
Si 16.071395719864547 12.049627036615172 14.659606392675318
Si 13.089417534283069 15.028180935834392 14.866665532868097
Si 10.873209363572025 10.71473828337531 15.766574400782613
Si 8.256917437651241 13.019827130600856 16.429267576896805
Si 14.057742849168273 12.123382549697611 15.874081998056692
Si 13.13726622647961 9.937351577399173 16.05734839794251
Si 9.707013583220059 15.172419687339893 16.342270882502397
Si 10.805714754823702 13.038329559473725 16.793910506230365
Si 9.3891097147158 11.291651881803011 17.62570447993708
Si 13.053725996962445 13.958819009711535 16.96606156681027
Si 7.818055856255323 14.883169778111471 17.84258834856195
Si 11.133993036700446 15.014066412406507 18.250687299531908
Si 9.466429837183991 13.47479633984107 19.079691630042156
