55
Energy = -263.00497026 eV
Si 10.435249918279053 13.421139570487798 8.041480550367169
Si 14.487393775533967 11.828453232309267 7.615812135378374
Si 12.164074052196673 11.738786952579051 8.309695320358783
Si 15.538675419729536 13.827478758310045 8.597546393123233
Si 11.130289307773285 9.606534599707963 7.685470684568246
Si 8.978065567480622 9.785471264947862 8.867109904419713
Si 10.300426713578982 15.457510639088603 9.518491352917712
Si 12.43155267753335 16.70783997794986 10.02086342366857
Si 12.11474831838624 7.857556770733358 9.06812349534264
Si 8.93662290464509 12.110404298352767 9.360556164429465
Si 15.37644853068347 10.429271287276334 9.38739370076308
Si 14.124403896290483 15.06990020105348 10.079964885516917
Si 11.875203859394194 13.768450467911702 10.156137301317848
Si 13.927014965763567 12.368863596867758 10.00778839118901
Si 16.3556312643642 13.113892043234918 10.740991691301868
Si 14.216943579932845 8.553682444259067 9.980477037813069
Si 7.537459574952237 13.157730462384416 10.918694251588645
Si 8.595655247709347 8.540838630533429 10.92857236872078
Si 10.89401551543415 8.030186199506337 11.083591305236043
Si 17.181503479636774 10.906094953716005 10.91133282049556
Si 8.820931204442335 15.154266778743162 11.560884893492904
Si 10.008208270534208 10.694344038931295 10.971018029558246
Si 12.443095598483058 16.773042336654438 12.41235908751443
Si 12.150861832463772 10.089544588572373 10.164163638979478
Si 15.141313324983301 7.906227514650954 12.054326170835587
Si 14.208459677078688 13.723455855604731 12.385690588384252
Si 16.040252049936687 15.261809357543553 11.643802068314937
Si 9.138064773750372 13.241508000069212 13.145392548978668
Si 11.27470193592237 12.705141713134566 12.1416453092508
Si 14.03493654178274 5.956409638491095 13.1664746596518
Si 13.462613760176385 9.870030418141527 12.2010768376614
Si 11.67379406014168 7.023654685425927 13.052231056943736
Si 10.23599101664103 16.533062008251747 13.09966956908022
Si 8.878592736436788 9.993617494270838 12.913665536724688
Si 7.834232451744678 15.432075909131834 13.680776583157957
Si 15.24861805626841 11.357641764107761 12.505281792446036
Si 16.921964369133438 9.48084540245181 12.925708964191434
Si 7.23357496182241 11.775800971277045 12.879805063168542
Si 13.638304632472366 8.058500248105323 13.979640256871624
Si 13.652039766723776 16.083236565680256 14.329034544825236
Si 15.809599149037533 15.089638417380803 14.017666977244435
Si 11.766805511738252 10.95334988973627 13.700215138814999
Si 11.885412636993603 14.52747193961705 13.493026283684063
Si 8.899459323513188 17.230221441000666 14.880514809434555
Si 7.120294299751304 13.375369737013434 14.751123397003274
Si 10.663647558234617 8.918691353609558 14.215552877719892
Si 13.64789345144592 10.120915640070658 15.046504772783301
Si 14.932130648933109 12.916908917630817 14.605021270042112
Si 15.96123038845287 10.761003314349662 14.981147713794826
Si 10.480549900713342 15.546899469052395 15.485336365660375
Si 12.665623036222016 15.888230344035929 16.537956517787258
Si 11.189415063849966 11.989015381449164 15.769049993727384
Si 11.623072744259698 9.681795118005807 16.35929355896294
Si 12.84190579377346 13.665362007153432 15.545261388582658
Si 9.382180630034064 13.451975116635763 15.630738283399255
