5
Energy = -17.73377633 eV
Si 10.738080806216898 11.968568606483641 10.477438032729479
Si 9.445248787650106 10.273718047562664 9.681900591775332
Si 8.467475451812776 11.783482226806907 11.089974832438973
Si 9.379383064436725 8.16446834924783 9.01385751592126
Si 10.630738095933866 6.470753667752274 8.397794426976402
