54
Energy = -257.80321077 eV
Si 7.419140478567573 9.431550816879254 6.9950126240570905
Si 12.52005872797209 14.743426815745423 6.640157905093836
Si 12.451306650801326 12.38729258914422 7.095557815664149
Si 10.617963855790352 14.084843146792085 8.023717509626989
Si 8.234255298194933 13.677461661173073 7.836029694911114
Si 8.534826279149645 11.349741342222156 7.610036790859477
Si 9.063278030823703 8.066316292260671 8.08191403624318
Si 11.209964283497838 8.944539441701673 8.939426390700334
Si 13.774867657864252 11.192250824080704 8.68803793362106
Si 10.741969218311349 11.194845134955301 8.334609722302693
Si 13.597979976202692 8.65752048642786 8.56008689180037
Si 7.173577406114609 9.146378144004935 9.419339853237272
Si 15.166556283980357 12.752450939916057 9.79009967355325
Si 13.447580813900583 14.077466384090918 8.780057783118503
Si 7.981706038316639 6.922321485938372 9.860367790946649
Si 11.579507301097829 13.992412265505967 10.14329437713604
Si 17.175236898730017 13.723222618978685 10.596714837719537
Si 16.57218952383441 9.230684416623685 11.500921500741347
Si 8.01337023546053 10.818229606202353 10.963286800598368
Si 8.140553118441975 13.056113224560388 10.11431377007171
Si 12.560502560726658 10.436492489320168 10.540886977139452
Si 10.344746247335426 12.044566902447155 10.519902870331553
Si 14.29341980738093 8.799278547525029 10.864653505765517
Si 13.52694376129015 16.30230278363123 11.972399331580162
Si 16.87001488690182 11.603961450773014 11.775039033989033
Si 11.294028006586256 15.037694261547518 12.206194487266027
Si 9.51629863990656 8.576886821682331 10.650981531643078
Si 8.545584028400707 14.465741451317127 11.961186393262858
Si 9.499258771921431 16.610774216030265 12.20665602515469
Si 10.965094480425735 10.896877672958059 12.543893000777542
Si 14.98421431829687 16.300748797167575 14.028739575980964
Si 15.147477885768048 14.568615436136309 11.836147900215266
Si 13.541175887117328 8.304750016359915 13.02984402980044
Si 10.680368972021368 13.11518678984352 13.606471769732893
Si 10.225944162221165 8.627152294616126 12.929013714953621
Si 14.545063322870288 12.21511832716741 12.187360785709652
Si 7.086670104423861 11.008357573349867 13.171938953376616
Si 15.583257141552055 9.175146793599005 13.633779645220367
Si 13.169028355509981 10.746967120606882 13.457666756241707
Si 12.696540731202548 15.516344380463119 14.255484061908113
Si 8.961693448106844 10.099564160981137 14.149233235060116
Si 11.760868007835064 7.306396747148844 14.196258193940167
Si 8.134320379665938 13.079513502424687 13.716149913051371
Si 16.50663823837222 11.872227334462748 14.056244009556607
Si 10.27671943912569 15.954260465275205 14.379036046456674
Si 15.283858151482097 13.846023598676153 14.13664843001584
Si 9.344175664893584 14.05727918349944 15.487482693527037
Si 13.094942443183717 13.282058951912308 14.935695580552341
Si 11.847298562950204 9.309814774668315 15.469599845171512
Si 15.971948228181008 10.247479663899469 15.664283478990912
Si 13.633448433160968 10.80561285080806 15.912336420743328
Si 10.909212177614549 12.42534292515099 16.192845380581144
Si 9.919589076454724 10.316644166922671 16.25877626367679
Si 13.007580370035798 12.739562680398542 17.237999226597942
