5
Energy = -19.95006109 eV
Si 9.954664610251054 10.77742820427225 9.678615431763014
Si 9.35576067645122 8.719480968175493 10.378034527644676
Si 11.082321610462511 9.92691326522083 11.538290994716712
Si 11.601872411314119 12.045635173595443 10.710608525992129
Si 12.764189383584368 11.345465616335119 12.511700836947757
