5
Energy = -20.49615579 eV
Si 7.88249896073855 7.122518742636271 6.698603728219033
Si 8.400011069613992 9.163316714630284 9.594798014892415
Si 7.34619953552789 7.244117418147815 8.920955800428322
Si 7.3843340314283505 9.345175316394892 7.432562399812116
Si 9.707937284576824 7.845852690076107 8.074060938533249
