51
Energy = -242.41501657 eV
Si 8.578483142102648 8.129882310478848 5.0303997659664
Si 8.730553195006626 5.7486767916880765 5.025725762123278
Si 10.491990356248092 9.552381850096557 4.749011353146334
Si 10.946014518101256 6.274108768104193 5.8025728086683515
Si 6.571181182314808 9.431869239351773 5.121048326236912
Si 5.372704197807994 6.306756870230871 7.125295129399042
Si 12.824844397499822 9.475593354420237 5.636785784449316
Si 9.606828423079655 11.470516797443818 5.832314730629945
Si 7.291530133742918 11.41392255698328 6.203200024596197
Si 4.756796201396466 8.474818592903757 6.329731576416269
Si 7.954488115856919 9.13825832978475 7.225194298360067
Si 13.086507497355758 11.760838738873211 6.602708472719596
Si 9.022562532442597 6.823883777405193 7.309507612661599
Si 10.164462922706887 4.616309592043942 7.736854694741685
Si 7.507461373884485 4.966314421426172 7.204396934907787
Si 10.9171518786674 8.489678605765372 6.954726840603536
Si 12.565922929621848 5.76893920018201 7.586102366430748
Si 4.402574212588044 10.016131632969985 8.094093397179405
Si 6.138717777043423 8.253890153498785 8.461039220584988
Si 4.95258194999767 6.284364223211368 9.47334090568439
Si 11.063488315989371 13.297677377256672 6.287652111905257
Si 10.076891021138783 13.805901829220703 8.568627703048781
Si 13.240216662964668 8.165342696290699 7.7604843867439595
Si 10.945687099331446 11.532240320179175 7.916253706896146
Si 6.58474076363857 13.274229677721122 9.752858139919965
Si 11.66389725674346 12.751861493076824 10.001298280319864
Si 6.2284068550905145 11.47987444124805 8.291095850921533
Si 10.906981190643224 9.487904036439918 10.852322781653024
Si 13.112293000141987 11.176505121319702 8.922356339253849
Si 13.164225598446443 9.015748355928762 10.062142748204314
Si 12.036674701690393 4.251587469461337 9.447864885423972
Si 3.1571365584004756 10.250884745347227 10.138656907808363
Si 5.322745462918412 11.18566727812714 10.744786792050226
Si 8.674795695251845 11.940032905374672 9.531043246544188
Si 8.65721943981996 7.58272026500524 9.82011578699849
Si 9.84434140194651 5.271617706323429 10.158445581068714
Si 11.346083040823768 7.263618478188383 9.282546869872931
Si 4.692220718906708 8.452910114180211 10.502111091242803
Si 7.242513610450358 5.54951926951007 9.667675033258114
Si 8.094123603285084 4.278820700827374 11.642271968700944
Si 9.61260741396432 9.749635834684485 8.813392097929592
Si 10.304443867100991 11.66704919619413 11.615675787236166
Si 5.959944593860621 13.005046611405696 12.114239922477253
Si 12.004778812477358 5.959935786639993 11.234613404526316
Si 5.885751680365556 8.18844696070594 12.66220620035583
Si 7.940420747820578 11.648840333577692 11.980481244263379
Si 10.010296620764326 5.601942849609144 12.666675977143294
Si 9.597192237414639 7.957632035869641 12.145139571844636
Si 7.518894996046195 6.628723630063647 11.902118002616621
Si 7.058465211113586 9.432560694018036 10.727698474600276
Si 7.910791141186884 9.490012236544812 13.024725356868066
