55
Energy = -263.03081001 eV
Si 12.478670537777122 13.97431697347812 7.94332659596965
Si 11.919255404958186 11.891614492158608 9.080671000887993
Si 9.587977810850644 11.337638126198051 9.032443852435591
Si 8.299343227398126 9.727809771337267 7.936793113353993
Si 8.894132250565821 13.551953784261329 9.648398167650937
Si 10.951994174888245 14.699403066314852 9.623341658000573
Si 15.774477211497084 9.916745535510662 9.767364210652557
Si 13.439095031209439 10.430802929538945 10.151647790049699
Si 16.914644795491835 12.028861487714519 9.840517975812876
Si 13.925743861933158 14.612212204634105 9.730136002459762
Si 16.27409087299757 14.260399626409031 9.51965355005941
Si 18.12014293149683 15.062837099490466 10.937586178104311
Si 18.821925883794528 12.668290675831285 11.274209017855283
Si 10.978564124780736 12.750656978316709 11.15495047291879
Si 6.908605349376525 10.043687951842685 9.90076485560592
Si 9.506278458553812 8.788697094243728 9.848189490496285
Si 11.883857862541621 8.683269741579629 10.658811371668735
Si 13.440689625596196 16.521451805005416 10.9839132846265
Si 11.117055810380949 16.65608930001177 10.952978435433751
Si 8.643023122922898 13.094987675841018 11.93680096132566
Si 13.192072281939582 13.773289305649799 11.95547767746628
Si 15.93467934563336 10.301792243099237 12.062353132275058
Si 7.669437157286513 8.175432123293946 11.2253504042935
Si 6.866033448735817 11.462996946372574 11.900848874986169
Si 13.527347711127229 11.431375494877528 12.484641116249625
Si 8.965568005560506 10.416310387021353 11.502441305578031
Si 16.44494900105823 13.438535005897906 11.796619915195539
Si 11.438068513174894 10.263008884615495 12.401127857421946
Si 15.096293882597028 17.61791186299402 12.220190419865546
Si 9.69980632671041 17.142043087581772 12.91068611105838
Si 16.64178623394069 15.753280699739356 12.716358329209749
Si 7.234742857253949 9.435226612035613 13.329140019460782
Si 11.52653448030409 15.246584626481589 12.933694057573707
Si 14.83731434528649 14.323085190681605 13.688190098105292
Si 14.410929483844418 9.303917423585338 13.458760885028893
Si 12.686828117432352 7.905480051667953 12.770897406883446
Si 9.246282523880176 14.751748456301208 13.490885892504716
Si 13.66773148295305 16.90939538840598 13.927933450377127
Si 17.45053794028774 11.720426949260997 13.135756346510561
Si 12.359651299975395 6.827747369022495 14.950155949772762
Si 16.131893986055637 12.7332300102918 14.860082892959387
Si 9.413981014292748 10.13083096028519 13.929803289334577
Si 11.450361323900188 17.09061436170072 14.59458323405855
Si 13.670840261691852 8.829311195332934 15.65201206826559
Si 11.289548891589545 8.882874893479821 14.638681429691
Si 10.2197551428658 12.137921522120122 14.991863645667461
Si 12.536950183590266 12.58278169115544 14.431359879504205
Si 16.913075651359293 15.062579134712063 15.047486876072085
Si 14.739577186964869 15.848002797944194 15.676555398402874
Si 11.216518150682717 14.874330570694 15.479946590897065
Si 9.023686994699327 14.044973521684783 15.790484923609474
Si 14.159879004161578 12.018436434006672 16.1812274350702
Si 11.8708818168674 10.745807361819637 16.111940553452825
Si 13.252429182409893 14.181682530613088 16.44218477785714
Si 13.607860416534441 10.208710581514737 17.661181765630264
