54
Energy = -257.74693075 eV
Si 13.713355177791934 16.009528553899404 7.026122033064539
Si 11.009209741812235 13.178772065236162 6.984897459069072
Si 9.581909049224855 15.095419149546185 7.262890406525642
Si 13.41339267753039 13.62061799484132 6.857420304581736
Si 11.50519774139438 16.3777223045014 7.731698418778863
Si 14.84812880766533 12.668768590592602 8.416849585780735
Si 13.819676235466575 16.778943073494048 9.3347988130119
Si 14.460586288116124 10.458545432692397 9.122110330984528
Si 10.631007301561537 11.8767665115943 8.914286982209674
Si 10.69737223070082 14.328020746696334 9.245546090860936
Si 11.915628873212832 18.195205433488557 9.219463121786255
Si 16.560639252151034 13.771416278999649 9.718109062199918
Si 13.045555905671769 14.32135549825046 9.206373849384919
Si 16.08232179884503 9.83653420075383 10.769837851661016
Si 13.394906713976626 12.290416974568954 10.615880306406408
Si 12.210913539237342 10.259058477175275 9.583628351270802
Si 14.850061117222097 15.216970030159947 10.662253443343344
Si 9.32128056764011 11.36887011959958 10.828921570611442
Si 11.162909406480026 9.124856615130208 11.39846431826853
Si 15.66863600681683 12.14997070922168 11.290663206898719
Si 11.739229666966686 16.909555855385086 11.146281902738883
Si 8.76889103700399 9.027156277263739 11.094239249654942
Si 7.7139453153462 15.361978679009136 12.038615208462396
Si 14.576027026065152 8.943115533791186 12.347543547732297
Si 8.14285930911237 12.955908820237214 12.22206791818461
Si 11.662152313761373 11.390726427162889 12.036595974561585
Si 10.656552732777442 13.484289543174294 12.751773444155045
Si 12.842652649219884 17.34904599459839 13.19838047877271
Si 8.768648839160852 10.233484093889333 13.117500466561665
Si 7.1873962100067175 11.743822943989056 14.044698599902468
Si 12.719385969888751 7.493543951283047 12.278608744018738
Si 10.00378129288158 15.25475397555059 11.347915729295897
Si 14.189575185450385 15.339568703103817 12.956014304541345
Si 8.871926744069508 15.449912936372591 14.219916101241344
Si 15.819032100441083 12.424062035679738 13.67656789995694
Si 15.452563095396886 9.111121633393054 14.494799970326975
Si 12.764182877676557 9.064255787683063 14.178229474915533
Si 9.07756224993134 13.12482315029257 14.632061578024485
Si 13.41136445104694 11.647894937765468 13.994371064390698
Si 11.14912778178389 15.831295804245393 13.89695549472696
Si 12.435018050619684 6.564685544097136 14.541352233451159
Si 12.599602098506322 13.975244028183226 14.279201750630252
Si 16.193510239920492 14.747934642136007 14.174697642471159
Si 16.758281065394957 10.867675398343696 15.311318412908141
Si 10.668867443874099 10.141023151949538 14.529115016509046
Si 14.136221581668739 7.683986626044854 15.782284806714793
Si 11.155719756150933 12.320669226418884 15.472673807349114
Si 14.591232801730168 13.620903504804252 15.51640452890555
Si 14.53595384999031 11.253428993460542 16.1084987699599
Si 11.518614100977151 7.859643109479788 16.463603838272363
Si 9.431195907554926 8.988860950815297 16.38548348256714
Si 13.201782132262602 9.81383447152328 17.468193258913164
Si 11.055370454417037 10.592471470626826 17.079951564062178
Si 13.324972403750042 7.5174502051281795 18.039755395744994
