50
Energy = -237.46584726 eV
Si 7.905499893445483 7.591348430191134 5.690678668337015
Si 8.881862414469744 9.668319231379352 5.199307961767376
Si 9.763522439350877 5.996729742560901 5.506175656183757
Si 7.022383276629534 10.867874860189657 5.973255596599021
Si 5.815057966991574 8.876807091348764 5.211031187401904
Si 11.902823867120805 11.682857802635882 6.5965691239769235
Si 9.99141829646591 13.30114336336609 6.673289046536061
Si 9.374025834263792 5.8408567296423435 7.848042320071687
Si 6.316695612854802 7.539597058135552 7.546844011354423
Si 10.813509172198145 9.628476268310845 6.530046030861569
Si 8.255963258656115 9.304249711092641 7.70229780067978
Si 12.066097199242792 7.557884023586105 5.906205299166535
Si 13.27286042288913 9.730001743308783 6.105653658895432
Si 5.82287234381301 9.9613229293544 7.88439258032888
Si 4.201007082438024 8.418270435551106 6.998345750068211
Si 12.831806907706945 11.290383916430457 8.716701911246444
Si 7.519534773345832 13.134560248502707 6.564482532582393
Si 8.717497552626307 11.932003800730861 8.415115222605028
Si 12.102685325771649 12.86096073344218 10.329326473677494
Si 10.659022151543454 7.843513796260598 8.01941594088166
Si 7.504015321255486 6.383193238039669 9.252399344027893
Si 10.302554162267965 13.782571129280784 8.975282141068021
Si 10.644887656555024 4.822493048685389 9.59244499872053
Si 13.076384301087005 7.406290831794158 8.152316553024905
Si 8.386057274780828 8.588485282084367 10.08178531286376
Si 5.922157229894538 8.279016783562048 10.452270491595486
Si 11.989262713339132 8.966122606453121 9.842330050532134
Si 8.193072546791013 14.0673174683135 9.885609638200586
Si 14.305934065826136 9.397239198069524 9.116516719106997
Si 9.236418425095096 5.1528353061616174 11.51011273139481
Si 10.687076343725753 10.911239126962466 9.900576266190011
Si 6.600967283882286 10.77109112995755 10.130838850902117
Si 10.244655490168286 7.101357849219526 10.456364008151299
Si 6.847590578829898 5.656996796584428 11.49697819828298
Si 12.942643775288943 5.604359971360876 9.832455316455667
Si 10.483573101847476 12.821387597436942 13.268892768083546
Si 8.740656608240226 10.736191465631789 11.251705810181054
Si 6.4333558941686 12.992205694916542 8.74379915329802
Si 7.507012341179519 7.918133922318726 12.343679134961894
Si 12.755031979099325 12.958589358650766 12.637687237959984
Si 13.716771863764528 9.15031021695692 11.669736701772635
Si 11.87890155436811 10.726418865475448 12.09655064019205
Si 8.582953268140349 13.059183628052981 11.945899569419934
Si 10.49207409763254 6.60703781575938 12.869926961081735
Si 9.883565602730414 10.022182082066916 13.374733529639876
Si 5.908803772826437 10.004494415769614 12.445404160077569
Si 9.436820846802938 11.649235456645359 15.083366978548037
Si 12.440847269838915 7.139517961484307 11.624055155941258
Si 9.028538474070093 7.943460784012521 14.202267925239234
Si 7.663259509915482 11.425868197509418 13.418826025100524
