54
Energy = -258.46725607 eV
Si 10.094754410836293 11.920034645088652 6.90751699629414
Si 13.237694339429689 7.101983756603491 8.479219769552293
Si 10.265802319435105 15.891397803298995 8.125296572821838
Si 11.263089996424553 13.683446719448307 7.950355822791508
Si 13.604116241306091 13.08397313903165 7.6920937739518935
Si 13.37895916780227 9.20999106440948 7.227274628558978
Si 11.37585739196461 10.287459469193163 8.06834896042381
Si 11.08315769859247 8.093425963647151 8.90554776955991
Si 8.54384389282241 12.182432648258482 8.642945599167632
Si 14.11259457554753 10.908403729978087 8.630002606225647
Si 6.5645453206890805 13.46398933268521 8.667626695224639
Si 8.495920979296152 14.768325313759409 9.320081728202636
Si 15.95898668217044 10.857957980491587 10.333161293683483
Si 11.885322990698514 11.265315722998325 10.209034857109927
Si 14.601686383594718 14.258323991559557 9.43620955568745
Si 13.127406189038807 8.245975515131517 10.513413854924082
Si 11.223576837729714 15.951069879537078 10.345548987344221
Si 12.326791028441324 13.620102619653926 10.169577996914828
Si 13.782618879862598 10.499006783952124 11.40615259808545
Si 8.346929792843197 10.557397513166608 10.35586358268617
Si 8.542189772520251 15.388253517978463 11.589688310218863
Si 10.599486921731593 7.724375427557985 11.234133948809887
Si 6.613634246072173 12.449111513007272 10.86435340279654
Si 13.544786285332501 15.882843194627682 10.703532231344106
Si 15.576431879177314 13.041760238047068 11.15029351009157
Si 10.181150841241282 16.90874743872968 12.277982762031614
Si 10.2904594714418 10.138062174210878 11.655496535130226
Si 9.35987995836913 13.019507958992401 11.018295327134355
Si 13.597033691853602 12.663672768087253 12.952087808216126
Si 7.556631832602239 13.588889484551018 12.642377059456354
Si 14.588118858301806 15.067906817552489 12.697974603591582
Si 16.800096426589878 14.130491159605526 12.828613546483059
Si 6.292923420325069 10.159806816585053 11.429254425531651
Si 11.288200749280378 13.272659774832618 12.487997846925838
Si 15.953283952612406 10.18810676386439 12.69246798545004
Si 13.782505437751148 8.526570034757805 12.93445957721755
Si 12.447572824403208 6.530093633687233 12.20583877959997
Si 15.808909424104398 12.193372636944112 13.973263188835306
Si 8.048035435442719 10.280835543086857 13.096875296905466
Si 11.597305552929853 8.02046046447233 14.011335292279915
Si 13.230220346390448 14.938277314321818 14.535804435118791
Si 9.305159554573661 8.16223728353492 13.238242301174607
Si 10.984985028196586 15.21829789587664 13.78613160024193
Si 10.364204396630505 11.314299969007404 13.7308897279584
Si 12.664918714975963 10.407149275240947 14.174445344191284
Si 15.866543257569662 8.142435540025962 13.964145027600809
Si 8.001086941371495 12.245663906351004 14.55479190869425
Si 10.07793009814392 13.428146481096316 15.001909808366268
Si 14.619355203093995 9.734879718876075 15.376018630741438
Si 13.54495496360535 12.83107603409902 15.560222535048318
Si 15.551356979479804 11.75160689456383 16.309288009141078
Si 12.479586473412223 8.663569539711592 16.125820994328777
Si 10.833686831416484 10.353773084866686 15.880413250284656
Si 11.456934913237548 12.506261912062172 16.653497142552624
