5
Energy = -15.7373753 eV
Si 11.280401356471641 7.749971857143609 10.789351732444144
Si 11.736350163257953 7.788111883740111 8.546364291760083
Si 9.754463137024855 8.646130052751168 9.321196018695494
Si 9.496975060438176 12.608367396646134 11.795886208181605
Si 9.41674667424915 14.818775088576569 11.226272964923139
