5
Energy = -15.63462395 eV
Si 10.703764146524662 10.359634734828473 15.331334965458229
Si 12.352465370036409 10.149307595991127 7.455843443804272
Si 10.890977820008338 12.337733847070883 14.182858374510138
Si 10.647614572948825 10.527510657601997 6.171997093029446
Si 9.730933552385972 10.587610351983647 13.262195974881376
