53
Energy = -250.91292822 eV
Si 11.20672254567076 7.826953519630788 7.642968729798841
Si 10.483300895708318 9.440883452373868 17.19892122321567
Si 13.849474405011696 10.11923672361492 8.428882252651508
Si 12.92059843425382 9.122063658506756 16.847124280772025
Si 12.35088233979057 9.673669457073512 6.574493496443333
Si 11.89766637250566 11.438244692449302 17.206036524528145
Si 10.496936479582352 11.147730861458111 7.4710899209028225
Si 10.471872222083508 11.228128892890695 15.23191301692224
Si 9.3146340100108 9.179431547456588 8.17683433195452
Si 9.08596583126095 9.09101454631424 15.22322764317659
Si 10.948687968497355 7.7199064042779995 10.020862494590055
Si 14.006538121403953 12.421258195251271 8.840814401312928
Si 14.91222146479738 9.432697200489326 13.825931747102528
Si 13.603612575269985 14.702784546941752 8.169687600307903
Si 13.188788479491238 13.053423868193994 14.330831227735702
Si 11.279035002674314 15.473065375987762 8.159723849924585
Si 11.911965955770876 14.487676759428616 15.77970454379301
Si 10.392200424020437 13.293484378540008 8.639218316798399
Si 10.159902623832755 13.510797479280248 14.485644492606736
Si 8.858775449570668 10.150887082491495 10.615026706421853
Si 8.845339126939734 10.262002920016982 13.13599018923691
Si 14.867326678158864 9.028119458205227 10.309655384509696
Si 13.889676871770943 7.841417279606781 12.22511078401462
Si 8.511429697666497 7.791457739289603 9.973079130924322
Si 9.272968442971914 7.604253563266471 13.313524608147874
Si 11.474315785720805 8.089104886827208 12.486432360762718
Si 11.559168731080996 8.881391007947101 14.811483758141826
Si 15.952679882814502 13.413491624129808 9.698730946837102
Si 16.77999904050308 12.404341293638858 11.713475548308521
Si 15.231530533997459 15.766405137623751 9.681859220035975
Si 15.461489755426564 13.133328432202205 13.684933215874738
Si 12.701325266391347 15.427089905427778 10.399990713322453
Si 13.336869989456819 15.521166476328027 13.69413422015617
Si 10.748277197301293 16.846598457215585 10.113820908363895
Si 11.401810408005002 16.52984211506886 14.450823432922101
Si 8.238228652349989 13.92445508139158 9.439867010524296
Si 8.146131864532586 14.434590967501718 13.43716524151091
Si 7.317588839583516 11.934936198248034 10.470604895622317
Si 7.4096821939069955 12.222723768574648 12.846062897160861
Si 16.29263215507787 10.028902717933954 11.933843786044493
Si 7.431484007415407 8.551057985759567 11.984110892565711
Si 17.196217545922472 14.496791723327076 13.012799034331898
Si 14.989261408623216 15.035893523234682 12.030559897818927
Si 11.200831875997805 15.11492100547021 12.447240893657014
Si 8.979680995901889 15.47299412698529 11.295947016104073
Si 13.021006540392623 10.785423874232336 15.036387835558914
Si 14.303633889712447 12.682092277262122 11.524121639761653
Si 9.275760989971042 13.061875864956908 11.493307910112923
Si 11.643714458204258 9.931928567290647 9.193451033070147
Si 12.154768051108679 13.125902606486436 10.239218067019348
Si 13.737934629692171 10.359943574908128 11.965313724625027
Si 11.027296250153407 10.341238725476561 11.72899530290452
Si 11.455581394303765 12.642538854354225 12.558431941050202
