50
Energy = -236.97397929 eV
Si 12.427169700291763 4.768509402787856 7.970452736172857
Si 13.25425594327433 6.883643377851743 8.887002030083993
Si 11.351699121307236 10.676336077739938 7.4995913817074955
Si 14.392957656755005 9.032905881389043 9.048834753739593
Si 11.152671829139662 7.076751988963796 7.7578871598752235
Si 13.559503799157355 11.216145912926304 8.415860618880364
Si 12.796785401303888 12.421851696934354 6.373262652345946
Si 10.514396817082536 8.827563603763197 6.267932565727064
Si 13.19477361250392 12.102494803653142 10.675267375487461
Si 11.762427142132283 14.172953738273232 7.659069098052669
Si 8.145534385117635 9.426590985276897 5.405585065707093
Si 14.834286091838408 8.64166300424475 11.401557998812667
Si 10.35558017606311 12.587268248512071 6.2465162655728665
Si 12.295628970062069 4.89293846694344 10.407648102886913
Si 13.15547819001764 6.929132058705528 11.382213923312772
Si 10.089865628515623 5.222089181778866 8.766651043505282
Si 11.062640508940838 7.822284165582469 10.059129190451747
Si 9.476114189647928 14.70870182164889 7.153433812907306
Si 12.567696642767768 9.700181835590602 10.48175428753141
Si 11.43999914457382 13.459567325832323 9.912291026652587
Si 7.969715824495139 6.278765736300335 8.124359254521751
Si 8.677801883058862 8.676662961604665 7.80404858989139
Si 10.048609511611529 11.610872111050037 9.189626777582234
Si 6.867131400428676 7.655777874104415 6.501078604601434
Si 11.580069732405434 12.671224134614995 12.89011746699374
Si 13.989626276001582 12.403015530343652 12.853611736810617
Si 9.064059907011298 9.005643840331556 12.166443352576819
Si 11.120423312640062 7.627787514330765 12.594140240049713
Si 9.188524616766443 14.80314344536177 9.669332888538175
Si 8.258422444444966 12.815870808217147 8.100262218853928
Si 10.138679689034207 5.711319628986235 11.256518696272488
Si 12.044033475889362 8.985341155685546 14.325335114575617
Si 7.987719642812753 10.225727374260412 9.458257495631614
Si 9.842438754708345 11.157050512642256 11.491777758856115
Si 10.386534779011741 14.548639362197909 11.825483172042404
Si 13.439471863000545 10.073053964433335 12.73688064799451
Si 7.166835065474924 10.890727279548912 7.127607126389903
Si 5.285152331783266 7.907937394468206 8.27180202089648
Si 6.238240075680809 6.397642404091011 9.914232303890355
Si 8.615925549108407 7.3911782261293615 10.27488486214475
Si 6.79706498614044 8.92068852068999 13.23277625477846
Si 8.410578705229412 13.050317263090665 11.791288283882556
Si 6.984710021624327 13.852815929708454 9.955603460574082
Si 8.24378339946191 10.613702039427116 14.361266177471542
Si 10.560431278465838 10.777670916116689 13.87129951462636
Si 5.442625741783384 10.232348205941383 8.640169774396387
Si 6.254638963859605 11.669105264404022 10.388679171918609
Si 6.506839171855803 8.669668698339752 10.659665264687227
Si 6.3654512858461345 11.220387500731768 12.720503447903576
Si 7.382923603377327 12.866272223089018 13.974774379118221
