54
Energy = -259.50327575 eV
Si 10.067307840810939 12.354165728868658 6.496640650588486
Si 13.922441973032269 13.358086046368554 7.6689349376315095
Si 12.111416290186394 11.735812764063228 7.55038646611935
Si 11.060787271759603 8.121711998116501 8.925042203341716
Si 12.744613311956305 9.516576717870532 7.9866247582217085
Si 10.35535700806931 14.183575449371055 7.949040708598156
Si 15.028486271771836 9.006875390013672 8.571426265206169
Si 9.018809255452561 15.333937034300117 9.496694860588963
Si 12.49044823314544 15.29557641827629 7.978419346206842
Si 9.348235673917776 11.577464844958635 8.6498925745234
Si 7.3316526626207565 10.404486537918812 9.085445658814901
Si 14.619790009822612 12.816001046914412 9.879403136265903
Si 12.068244444912386 6.426271974070142 10.247866779205657
Si 14.958613351850666 10.568977643333762 10.383158437407793
Si 12.259169549469766 13.384724842756968 9.599230278640695
Si 9.167025452075777 9.127259875146308 9.912760781910743
Si 14.189671345590703 7.463808556192415 10.174219957526942
Si 11.305552807331457 10.52265450108874 9.74800137948661
Si 10.227033790563794 17.004337163646618 10.728872410930236
Si 12.24441725839051 15.89934363782408 10.259042026323664
Si 9.830788809727894 13.176795364161304 10.391904248437552
Si 12.89652390356208 10.346551715104802 11.475413394194751
Si 7.530281596314251 14.208239192103084 10.91708657172452
Si 14.187635115645111 16.43462765907759 11.516304045090616
Si 15.274642046770989 14.29790930469465 11.603614883812847
Si 7.4406621009014415 11.852858951547304 10.9584754414895
Si 14.701820960521442 6.693182449723593 12.370414094196393
Si 9.813954219180122 15.693780263565166 12.633441599470547
Si 12.624464491273777 8.009982282329853 12.069484393960371
Si 7.548939960855587 15.264076909971783 13.056614654849243
Si 12.940160981838577 14.40768749909159 12.172780241097716
Si 10.776640813793003 13.288632965949985 12.690448459156977
Si 6.642432403715572 11.569175184256986 13.193780386771232
Si 13.741951659099241 16.212899113413236 13.892137273772061
Si 14.364860386937025 9.045567756819947 13.52850767459871
Si 9.41636746467594 8.993238091684587 12.275762821586548
Si 9.107016056061026 11.331393352584778 12.839811115588834
Si 16.13760429573635 10.249554114490014 12.454480188806771
Si 14.930015234824879 14.138170247857623 13.9402662721147
Si 8.085947763891085 13.249231632714718 14.115659636951825
Si 16.536036113720535 8.046064860458813 13.43010395095495
Si 12.258369386636799 11.508278378381927 13.428941637520172
Si 11.56189927313832 15.419765103250043 14.218551204774641
Si 10.829337349404282 7.631326144415076 13.546029623867113
Si 7.723705081889617 9.590167038077526 13.946519088656391
Si 15.871604670002155 11.064043216537032 14.620217391329485
Si 11.23125069044217 13.341608720499252 15.27038759210615
Si 11.285831038695717 9.663250461030982 14.661958655930173
Si 15.805641091228368 8.895756187025587 15.676624286567566
Si 9.311237055037559 10.677807090654754 15.33515505693732
Si 15.653759881622008 13.09960425387032 15.862656353259723
Si 13.433168125865768 12.347481184800355 15.335701448003078
Si 9.101114029939094 12.869375709109574 16.243515077856795
Si 13.493022262889482 9.88802954821697 15.64390773559558
