51
Energy = -242.77277857 eV
Si 4.9925012237369675 9.533354498997094 5.886845400883954
Si 6.838493510317809 8.327160566447617 5.028256088983248
Si 9.057595287843677 9.934596097572548 6.005582521450315
Si 7.069172931331715 10.74556145684681 4.906776180540998
Si 10.738622337445998 8.396028573269492 4.928613413436167
Si 12.828917115522376 11.520227988640722 7.193737089241474
Si 10.248572750297072 6.174624927628105 5.864480686945806
Si 10.418630051073402 11.505341720606152 7.2059317459073124
Si 8.060555538552773 6.883977372311563 6.4521465013745525
Si 12.943223643218854 8.555544289273781 5.982566048771802
Si 5.603098624462941 8.587437871434211 8.024657150848004
Si 7.912365162139933 12.753397430880709 8.669879022927173
Si 8.051898796337825 8.819565065931721 7.967647069919937
Si 6.708318016016071 10.980422752732757 7.334183621552605
Si 14.59346571333426 9.997716399044101 6.96492744046587
Si 12.771336695799516 12.926177928826279 9.129451683417168
Si 14.6527845701766 8.278621856790288 9.161655474299703
Si 7.388655695459924 11.005493268673439 10.20728048505778
Si 13.20357985029377 7.024843802988539 7.710606253267941
Si 10.968185363014602 8.013027552731959 7.383096670326757
Si 5.289507317343371 9.71860477345665 10.101988674345677
Si 11.285985271389011 5.649249543694013 8.071591275073095
Si 10.398413514518845 13.076037617169955 9.098866718164281
Si 10.70919041105803 9.837734524610367 8.8489189033704
Si 6.84173636794543 6.624459064345509 8.414825743000044
Si 5.173964646108561 11.881109551601936 9.137043412857617
Si 13.050632997628 10.012674420116722 9.151678236331778
Si 12.23146731802045 13.211568975350552 12.2938150049462
Si 10.601930329324984 6.828626636810415 10.07516124357844
Si 8.967561125234841 8.745581074511513 10.234625643917896
Si 6.753051989147664 7.878704988082126 11.111289592477336
Si 6.611835045469782 5.573499450676396 10.515832131397115
Si 14.522072464847254 7.4920592576979015 11.595007700259563
Si 6.4529477277489065 13.365548668947584 10.517627633716236
Si 4.874857398013142 8.875085216831378 12.313410304256688
Si 10.942841421983063 11.569502208429993 10.92916438654079
Si 14.273136968085172 13.543078115482494 10.970265356893153
Si 5.688188538768792 10.549241705878742 13.879663805452397
Si 12.189538725293236 7.470840350864926 11.675207914242794
Si 7.01520805253639 11.887223966691282 12.40614978463149
Si 10.146511154618937 13.912453625274178 11.375797987307287
Si 13.480420918331733 11.34216193871227 11.084862053532618
Si 8.7493437216722 6.222162661566336 11.383736063218516
Si 8.549015122855344 6.998458245054367 13.621442544632519
Si 7.3780077708116645 9.08337733780942 13.18572911237148
Si 9.311540965093942 12.28909454118556 12.872643270024636
Si 13.555070784002812 9.464254360732328 12.497027856419422
Si 11.254667946742405 12.318221855145596 14.397622711247287
Si 10.675200310553917 8.055116612063726 13.414006423669772
Si 9.560577113405264 9.9043599130041 12.260986660245564
Si 11.78884141134227 10.03002510284632 13.92892902853088
