5
Energy = -21.08971606 eV
Si 7.5926025875015855 9.500970355013102 8.763564825056193
Si 6.686113937674091 7.080090814179721 7.114508625826749
Si 8.29501435302538 8.695768105788503 6.708405525044043
Si 7.637994456058488 7.230417397157263 9.220403015682226
Si 9.615201714139566 7.319680376260523 8.020045056789899
