5
Energy = -19.95078343 eV
Si 10.415215065474872 8.918414613399102 9.518414649172891
Si 9.59406273120171 10.891100041818595 10.24262833609867
Si 9.191790015485367 7.424341031107714 8.226316171686008
Si 8.217085376648997 9.430925740826947 8.919379595020748
Si 7.063702553046911 7.794562623425853 7.582816756350128
