51
Energy = -240.66921195 eV
Si 14.232240805687425 10.30431371866014 8.086068255737779
Si 13.452665844150136 12.659746502810947 8.430849515776814
Si 11.45331460472414 13.984428570599325 8.479884776849982
Si 10.757274579305804 10.91730321104694 6.573703437635819
Si 9.231556438823723 14.353155849668065 7.440909480803233
Si 8.705791751379014 12.038152287505419 7.257773738539461
Si 14.506352142878052 12.881414838299685 10.639070245971995
Si 9.953694225169635 8.850480510574036 7.3713391110078135
Si 14.467502941359266 10.398163761423339 10.486075967056014
Si 13.93678636667057 7.811384116300961 8.577118624939455
Si 16.03007552539787 11.622616755932523 12.216830364250702
Si 11.225820356287633 7.534209574744576 8.89358687586491
Si 12.771975182190163 5.784687678354007 8.118912511853827
Si 6.969374799583017 12.226447784957156 5.559030586117281
Si 11.258503109633068 13.931407130314165 10.80799241622475
Si 14.265472684056993 7.663700585646584 10.906545598596395
Si 12.288677467752327 9.639538593761674 9.502109056038234
Si 14.05093708184893 5.320647317363748 10.173104464141684
Si 11.06819070457128 11.75230877862622 9.238705628686878
Si 8.626519504761568 10.478821086857184 5.291192074698587
Si 8.012732003684 13.746891649098053 9.382918782454936
Si 12.466802225240194 11.726776397945347 11.348776703956203
Si 8.40869651524006 9.95520806139352 8.80114959323902
Si 13.078642473258855 14.116720306848848 12.326577064268836
Si 15.132110362894526 9.245313811939418 12.491575243889221
Si 6.585312821329329 10.542398661023567 7.177087399926024
Si 11.90802318414907 8.155180205614602 11.396927259371637
Si 7.748560385732038 8.457718228200767 6.572163489388863
Si 9.511894924535241 4.829829250065143 10.331774566317607
Si 13.92664258959111 12.114127466120454 13.555666363252348
Si 9.07432171081086 11.269983636732738 10.77547682862528
Si 10.412635266525129 11.329815758559842 12.855730263490743
Si 11.421207547580186 13.170496968024562 13.952835889222342
Si 9.074308743731205 14.12837205498945 11.692557925193789
Si 6.9094576495971705 14.91148809356918 11.087353787187983
Si 9.03208484633043 7.222492677172768 10.023757913918597
Si 12.88087616092766 9.931861566752772 13.025186727371997
Si 6.698366396502174 12.008808302734195 10.42646905268515
Si 11.732143735368417 5.81614378977317 10.604118293383168
Si 5.968759024504716 9.864371393269288 9.530063120572256
Si 6.934235260616131 7.695190730274258 8.978228005917478
Si 9.688714168777933 8.191210379037178 12.314336906477477
Si 8.674203884139466 6.072457231408541 12.190004067065063
Si 8.547264159921214 10.945379797437667 14.519830882382765
Si 12.365192748716133 11.255797492772091 15.171628217689396
Si 7.80241826049049 12.519523395640991 12.866519210978502
Si 7.876678857038586 9.7574755408198 12.495557703869876
Si 5.621043665018238 13.155476614751446 12.223121450314126
Si 5.629217990900308 9.35204398785227 11.946139869824105
Si 6.822774235775718 7.383553218135922 11.387765229767544
Si 10.725413836041007 9.471145087596092 14.30376045830414
