54
Energy = -254.78805392 eV
Si 13.96409848547995 10.089046335867838 11.259302161295702
Si 10.990316268699893 13.266528118717648 6.744724862426876
Si 9.889906095403674 5.916077282512858 7.129093448495647
Si 8.881637200376128 14.176003423952764 7.6780338575436415
Si 5.618494178322197 7.682385628183331 8.873155825768631
Si 9.844589236704373 11.126939273371391 6.801964186484615
Si 10.63711769249701 8.882679761998942 10.037332917829078
Si 12.073534148923276 13.251467272316944 13.01915946020274
Si 10.624641489917506 6.545363009543653 10.714760676204024
Si 5.205522113152608 9.588417200492447 10.508194971322862
Si 5.898087964198872 7.43581774934799 11.424695565862322
Si 5.201164663678509 5.447633098302693 10.093033072205394
Si 14.360659744957232 13.116517423675432 8.783664811331672
Si 7.02133632970715 12.67814138648214 8.371082726950412
Si 9.894689550479614 15.03439802830286 9.756718028241155
Si 7.460337496502788 5.40788528974875 11.111561540933563
Si 7.941192105132756 7.135611878196389 6.398845423815042
Si 12.120495778128273 7.3432849481383435 12.574893775884744
Si 10.417052914152476 11.159993281755858 14.420261847077619
Si 8.580049234013241 9.946973805144639 10.478877357163723
Si 11.154683085132179 11.476342475685728 8.888552139090857
Si 5.534033039582982 10.683781963949027 8.344507385365231
Si 6.830751415055584 5.677008013852912 8.176390334697043
Si 8.29998621381952 12.138653989633907 13.534171096761517
Si 9.0459660665386 5.266579789592836 9.300743032806007
Si 9.92710140606323 11.633538367084268 11.859329647770382
Si 9.509253657280938 8.903546882519501 14.32278167779682
Si 14.628615646903093 12.872508075171568 13.112942596519053
Si 12.699273009809351 6.669765019903313 9.445263385765033
Si 14.124303882431231 7.639038425903702 11.250324187857382
Si 9.704368501614638 8.311899475270966 7.765009450498458
Si 12.961161285721507 10.890648200194049 13.32013998542698
Si 13.539464304289938 13.938768007186365 11.07863348614625
Si 9.150190219368366 6.482338031198123 12.626422102194228
Si 11.287671231899056 9.199892037445926 6.002399036633779
Si 15.250136687033132 12.093220701912138 10.837697614861714
Si 9.107876846305105 12.63707794027429 9.712921926631925
Si 6.419960563067497 9.200934947855167 6.630723195545946
Si 7.900813526054959 8.567645944219079 12.558721693674704
Si 9.113114888071777 8.864860613212695 5.2178038501541995
Si 11.879464025067074 13.802050725036066 8.990683403462807
Si 7.79646619371927 10.847263015247146 5.447211389130925
Si 13.307423564288408 11.029886309005855 7.90865410280155
Si 6.829616601840525 12.915184889361088 10.757693951545338
Si 8.731338093154205 13.949616141424714 11.83962863777401
Si 11.025496798661779 9.467608834579483 12.513143612954302
Si 7.896455211453514 7.517753425188479 9.803417304646526
Si 11.949825333883304 7.0907605969319105 7.121068910607281
Si 6.849215761335954 10.776046565417175 11.921362509637063
Si 12.20477872397292 11.81181003091453 11.054147992061942
Si 7.965015041190243 10.347200683434414 8.169402693384416
Si 10.70658215211233 6.773972785160095 14.48563767852721
Si 12.88237573589039 9.165064846172502 9.349890335656331
Si 12.374704348731408 11.338973805780412 5.68562888634628
