6
Energy = -26.46102959 eV
Si 8.663250522252259 10.437138705817718 9.466739117266128
Si 7.286434299619218 8.612854233237954 8.87599777198586
Si 8.3962857505848 9.47319653289867 6.931267303900162
Si 8.539667725693414 7.024110843599599 7.5821572401976205
Si 9.967026031092704 8.684343420111684 8.572352857067536
Si 8.835367533201845 7.505333196604803 10.271920466462456
