6
Energy = -24.91177785 eV
Si 11.129976351412278 13.221777121221399 10.859622640248634
Si 9.65331716176391 9.732210577600899 9.591258933013401
Si 10.96182642636556 8.57981100384204 11.317513430343642
Si 9.515645482120435 12.171270199511392 9.510931776068968
Si 9.633485963373058 7.495720707488693 9.711953422015075
Si 11.076610162929047 10.996825017608463 11.0021412730883
