6
Energy = -26.45992065 eV
Si 7.809278753847591 7.928229559315213 9.52177967915517
Si 9.539511185859128 9.587999309610913 9.567289486181803
Si 9.165721403281125 8.765736100336863 7.346858642308881
Si 7.350126900368563 9.976925689095559 8.355274294429273
Si 9.753714359075412 6.909192795319287 8.669487544205714
Si 7.1154265364811415 7.571099881674355 7.280384789799398
