6
Energy = -26.46160763 eV
Si 8.374913702889643 9.389226970633095 8.802047587561935
Si 8.626565344773308 6.550959286617714 8.996346077094064
Si 8.898082629221323 7.918299682151765 7.050284798653398
Si 7.2460174545402625 6.188803962542709 6.869806574964471
Si 6.775965976168851 8.735110620613417 6.359311788785207
Si 6.651747134005726 7.809668965707028 8.540570159628123
