6
Energy = -26.4579516 eV
Si 9.563351116767238 6.709766893984699 8.062741935945802
Si 8.050500553874896 7.926989173739177 9.408546762535655
Si 6.4391639759203345 6.85068037264642 8.061439922422817
Si 8.05062787533113 7.926987275756267 6.7156337963555295
Si 9.38369705776723 9.41169255265127 8.061455769203988
Si 6.885220842879936 9.546445153763049 8.062743236076855
