6
Energy = -26.46283167 eV
Si 8.87805965467749 9.98499688070939 9.726603486116083
Si 10.4824285565956 9.542044848591834 8.010832216770929
Si 10.061562634586434 8.01189284940494 10.260338634927649
Si 8.925349328929594 7.743073806915102 8.205311169456524
Si 7.191081415517614 8.328875722135619 9.700997590235266
Si 7.935743400378201 9.821920251724809 7.540742880434631
