6
Energy = -24.78746194 eV
Si 7.979231301265347 7.807555751684191 8.332658863527474
Si 7.747271794861954 7.196962683480324 10.55046471719467
Si 8.33335845277126 7.046344707208057 6.172558850979543
Si 9.721567315145936 9.716893302291526 8.494134269897078
Si 8.110929831329619 9.428058401053502 10.160998241768658
Si 8.591063056702685 9.303425620696569 6.494355833464132
