7
Energy = -30.79513636 eV
Si 9.534739674031778 7.751354619298272 9.757358876370319
Si 10.677794034445688 7.867590517820937 7.725327352378123
Si 8.088371082348596 9.81557751313354 10.06452973166886
Si 8.485765488368367 8.284764448919315 11.736425101105523
Si 10.35119506490354 10.038181912764216 8.82788043139285
Si 8.527406389883636 8.912620256102496 7.67247601372139
Si 8.285834620153674 11.230165703342832 8.220409678531404
