7
Energy = -31.78215279 eV
Si 8.625127481295758 6.3977794589539565 8.523781592877807
Si 10.57560365874271 7.962923666241328 8.522833946922004
Si 8.522654123099816 8.522718343965801 9.78758024676947
Si 6.531640526373371 7.772602808607599 8.523285445506984
Si 8.521932688055832 8.523371689552386 7.260006946372285
Si 7.195961658235139 10.186853120089312 8.525350229498681
Si 9.693474934529982 10.300145982921983 8.523556662385253
