7
Energy = -30.97389843 eV
Si 9.78278026752947 10.695682488933759 8.886616203441706
Si 7.856186285405043 9.843664954368654 7.858615015908461
Si 6.177273846537953 8.572029733073359 8.886804765374839
Si 7.876380741496089 7.329018436336772 7.857240726788705
Si 9.819385774064875 6.510390215072149 8.886564688098801
Si 10.044373454391268 8.606497455135116 7.85792627911517
Si 8.592142589091218 8.591239675595737 9.914755279787867
