7
Energy = -30.78090966 eV
Si 9.744740287267737 10.607608431109083 7.190935024320162
Si 11.003371413151294 9.83649575115804 9.002066748293696
Si 9.62677677166969 10.035407015248767 10.972401353830039
Si 10.406936712237826 7.665483515094216 9.8039174948345
Si 8.812059286630475 11.47271465580872 9.247778839400933
Si 8.49485591144777 8.012788003323402 11.242003882784543
Si 8.610491847134668 9.05860241874647 8.896582367497839
