7
Energy = -29.02809935 eV
Si 10.189506398997743 7.635554317395849 7.044693309024096
Si 7.141660199017255 10.297645842674383 7.728925526262741
Si 8.21469440725065 7.6002066086671505 10.631388059903339
Si 6.6317385337796715 9.170649237115759 9.777246495539218
Si 8.609486533452205 9.2072201889313 6.189517678592354
Si 9.656167385042073 6.498068971248908 9.078166727394843
Si 8.417544680572718 8.409519052324125 8.41277115679933
