8
Energy = -33.59740438 eV
Si 10.08127031307108 8.459074180079261 7.794277420833831
Si 12.716249923112919 8.1189124542856 8.644451745314397
Si 11.041052267931377 6.445947718563404 8.302636668748834
Si 9.100228303062439 9.637490525600438 9.518888723050695
Si 11.059551421716762 8.58122861623075 10.137252321130942
Si 8.325311121939613 11.793066710019781 10.00693269549819
Si 6.120615560278095 11.87962032486891 10.571875363797941
Si 6.829910311148839 9.76043513464973 10.096237457891755
