8
Energy = -35.20534745 eV
Si 10.157605299089065 10.234258352821222 8.919325401950852
Si 9.225896728555869 11.60232556258811 10.485835303875959
Si 10.378012680786078 7.655117466920083 9.225239250004108
Si 7.435894658877355 10.663177783411543 9.174384297855871
Si 10.862637264177682 8.787865280485098 7.227374695123912
Si 8.356992955253137 8.556899663306629 8.00024854520867
Si 8.61730427739252 9.018632381738056 10.485873393738995
Si 8.21211628812455 6.798761787021222 9.685407365389292
