8
Energy = -35.30187906 eV
Si 11.200918570032075 8.178773828415894 9.825220328860619
Si 10.246894531084472 10.016161228649922 8.416087549781597
Si 10.347873677955093 7.781195783343933 7.488470064404716
Si 9.62526151726023 9.742146353260157 10.8880876557271
Si 8.77159806576374 7.891274823492981 9.326574696939533
Si 8.226618693014876 9.133663182767817 7.2292236193825925
Si 7.9128142891119175 11.185471194972068 11.51199261427451
Si 7.874280699408511 10.30198847815752 9.364031991641115
