8
Energy = -35.06866207 eV
Si 7.848027572517136 9.980641774067701 9.079053422250766
Si 10.56201708703955 10.757591239915708 11.990205718191035
Si 8.771750059687179 9.215915918766026 11.22093727705576
Si 8.36299106650406 8.393425836744418 7.259670083868228
Si 9.75151877693108 10.38655826888762 7.40223576145237
Si 9.85674642142488 8.356480986501271 9.04755151405165
Si 10.209473763903645 10.737906514946756 9.69236753053063
Si 11.238798781599248 8.671891160660213 10.939653982834278
