8
Energy = -35.163981 eV
Si 8.165934040370772 10.399937289214837 8.419287399736362
Si 8.3162437928558 8.714075764099102 10.22765799959207
Si 8.505720509320673 6.432782904088248 9.128444508743886
Si 7.3799968850408675 6.783228123712761 11.06815639204297
Si 9.455073149225942 8.310772088033815 8.139632329252336
Si 9.931463605789233 11.947107452958264 8.69464211656016
Si 10.498116792939742 10.078596941682976 7.187823166086087
Si 10.410190760482784 9.909005636567425 9.792597276664385
