8
Energy = -35.33069132 eV
Si 8.253178894811422 7.617460010948928 6.280363534753113
Si 6.173087827435961 7.859158179456706 7.5931806809445455
Si 10.12992922271535 8.608746302255474 7.570192787472389
Si 8.284211375306615 7.299490512341787 8.754440177491647
Si 6.67931375235624 8.935960364204181 9.754364285501968
Si 10.485174224179945 7.454393261716938 9.705994405881574
Si 7.842028536742439 9.69633294148781 7.644136147366689
Si 9.101774166628234 9.475479270939376 9.825426943466944
