8
Energy = -35.16290663 eV
Si 10.933957853458837 9.320519319118898 9.818345375867526
Si 11.785385426365751 9.921228112850594 7.705642721819896
Si 8.671498863342208 10.292020611424777 9.68773414828758
Si 8.926435878153328 7.902186860146304 9.489878935053369
Si 7.234529224120469 6.77040314483238 10.569329131354229
Si 9.507540641827573 9.283906040335285 7.55143342485251
Si 10.184503693856435 11.570894108154384 8.595569657669511
Si 6.981116737373263 9.027182844723745 10.666876046864534
