9
Energy = -40.4354662 eV
Si 10.376409409666683 11.102267483587042 9.689177524688919
Si 9.840275328258588 6.957695816435892 10.090478410724778
Si 7.979130082354232 10.557618355159754 10.43806464739517
Si 9.775982356932147 8.99185807984649 11.316984258301115
Si 8.92430742815577 8.652921805009772 8.750707494428495
Si 10.652758564826057 9.862202116243946 7.484035428003636
Si 9.73314319059653 11.288233035050691 11.931129164406915
Si 8.44568873925478 11.086267968304988 8.168459200713587
Si 11.415635174398522 8.63312910319729 9.366047294453102
