9
Energy = -39.81293884 eV
Si 11.73728059641968 7.685920658005811 9.373590172228113
Si 12.053990848503005 10.197228756192734 9.823911548306295
Si 9.634676227892436 7.007391828499993 10.285169186938928
Si 10.348707148547629 11.401390281376012 8.541403641509428
Si 9.894062644804041 9.153249747352765 9.339645210781827
Si 10.014130220188393 11.11246569300676 11.07714829578837
Si 8.494994857776733 9.072229413000615 11.343535478552258
Si 8.001706170779174 10.65892887942942 9.536282253577278
Si 8.920553044303059 12.846009257079624 9.793345236284798
