9
Energy = -40.70074921 eV
Si 8.650628937054707 6.681045773468169 9.718072530312112
Si 10.007306053173279 7.965076042294043 8.2833183178368
Si 8.094022152401765 8.113550400303406 11.563649978528007
Si 9.986054306744828 9.009305592215222 10.391352982844618
Si 9.93480696127285 8.659053712228179 6.0606123415694935
Si 7.693836246408624 8.96815855675622 9.414742789260858
Si 8.945655488795236 10.270024507023702 7.559419090966177
Si 7.754500245405797 8.122762879839051 6.9540721323222785
Si 6.560320947643711 10.070319352377695 7.666985143317688
