9
Energy = -37.38264567 eV
Si 11.816129991750646 10.785531958761585 9.640801418380947
Si 11.161222159989288 8.56915445054248 9.564007642537263
Si 10.28158475572992 6.928210365686264 10.645262204174623
Si 11.340371693631653 9.654651352179119 7.551824078766233
Si 9.423026986536408 10.817334515684271 10.637266605394911
Si 7.820991081277915 11.115162340622657 9.018659645211692
Si 8.932152395777354 9.44750582129516 7.921333751106931
Si 8.469472500625393 8.63744559481148 10.20353259962362
Si 6.460548254793423 9.62921901639018 10.376773796970053
