9
Energy = -39.13100461 eV
Si 11.107205299803788 9.489213422820345 7.129061581934806
Si 12.565789374648428 11.009208605153958 8.188214799630169
Si 10.011840837135592 7.862215470201598 8.449609664517205
Si 8.244142535637467 9.157826046870088 9.395840406705267
Si 6.887377373498924 10.761841952654423 10.409494915006094
Si 10.836360897823846 10.135335639610396 9.38549952531562
Si 10.072594178297066 8.537729415110741 11.04832037433722
Si 9.226956855797443 10.997765044557934 11.053267776995876
Si 7.902959158234033 8.889974581657672 11.779066930390478
