9
Energy = -40.38975729 eV
Si 9.920874947503577 9.279221902172699 9.93317397954144
Si 9.739686550125441 7.861725795292627 7.622456423062427
Si 8.873975101071162 5.765119547502633 8.215072881510034
Si 7.2774337590678755 7.393683302300853 7.135319767546036
Si 10.446405084751138 10.235263785108126 7.854385142472408
Si 7.950925931846513 7.429433470363732 9.592562733094512
Si 7.767859277601492 9.598768295382275 10.80874903826029
Si 7.895120342182514 9.410546016143522 8.128852596337936
Si 8.578778127483849 11.350518267027752 9.159093620563212
