9
Energy = -39.67265189 eV
Si 12.062672298092542 8.742481909415604 11.075008191671353
Si 11.244673979915927 9.940301415780107 9.107504541460669
Si 11.127023009701313 7.457941297788154 9.149701838893684
Si 9.63304461168695 8.611152628995374 10.71506272038344
Si 9.172414998265829 8.75103526593343 8.234284786339682
Si 10.669529214843116 10.705652733192823 11.505305918522758
Si 9.026077653051223 10.891380864620327 9.67092343892291
Si 7.235015146963892 12.147112727591908 9.105859418643002
Si 6.990568982427884 9.905247683247016 8.621940624662045
