9
Energy = -40.36459952 eV
Si 12.256085689334231 9.024976729692293 9.138845425205464
Si 10.788754170188207 10.872716973669263 9.281725231367727
Si 11.294700775940672 9.456334633055278 11.26050097245569
Si 10.103344835600696 8.068779518506936 9.633067731868284
Si 10.06126935145334 11.393605940875803 11.586572986809772
Si 8.527864878098924 9.218567247593613 8.10594027783242
Si 8.599174020133288 11.519444037808775 8.368458426362121
Si 8.256673906456722 10.165972470294045 10.389436568192249
Si 7.729331501501259 7.908792847888347 9.897696680077338
