15
Energy = -27.80572983 eV
Ag 13.104126494337892 12.095852226187159 8.040938777075256
Ag 12.274652444859289 11.184535996047876 10.442802965031374
Ag 10.793679994356483 11.420336650636877 6.6244913958870155
Ag 12.154953832504809 9.493544571630759 8.132164448704682
Ag 8.092288554291097 11.832162990314957 7.063567969241925
Ag 11.588572802134836 10.161533020298432 12.987217369799213
Ag 9.562890504980635 11.060389601903738 11.304415075028421
Ag 10.570153385010688 7.2809380396541945 8.46841870230707
Ag 10.95613992109953 8.713163113115776 10.708694440245873
Ag 9.165962083421332 8.759280426161014 13.033924539436718
Ag 9.441754912723669 9.919034873633075 8.476321675109439
Ag 7.292724506299618 11.369341904922607 9.6691548818064
Ag 9.363671754238535 6.5233663313656916 11.152491300724408
Ag 7.109074834352591 10.70191414250514 12.456797280782538
Ag 7.955100661656129 8.78211516875331 10.551645064298226
