5
Energy = -6.94337189 eV
Ag 11.678463401757035 9.0621995917339 9.850797906935695
Ag 8.04094990890556 11.22264330931208 7.832166760651176
Ag 6.483246904917798 9.180782593276911 8.653878939592918
Ag 9.125024985579442 9.095188261970092 9.055422716237567
Ag 10.161904073590268 6.847477399679696 10.083565671411645
