12
Energy = -14.26035606 eV
Ba 12.479176450843285 9.614032043665347 12.824085500138528
Ba 9.668713969899406 9.696929537364667 9.892381802923284
Ba 9.536545687078892 12.834806549828198 12.467286456396984
Ba 10.865660707549196 5.910364956014341 10.82513945186836
Ba 12.375612055500467 12.005050916099316 8.545227236677327
Ba 11.087955744244043 7.658368140331772 6.685760482846602
Ba 8.136263692916458 10.868485505400185 6.317202013152234
Ba 6.933764694174282 7.0667881572814135 8.808766057459463
Ba 7.942505173626656 8.482617025115124 13.221902192076163
Ba 5.935241606717878 11.299859049360562 10.230434588659769
Ba 8.718912847474037 14.178743998297149 8.676697618859576
Ba 14.163931136296117 8.228237420204545 9.349401066299823
