11
Energy = -12.15755016 eV
Ba 12.41895631185879 12.374005085940356 12.385700318112619
Ba 6.722591224839822 10.233786872378715 8.314975005753386
Ba 10.230021905145932 13.027436793889038 8.453804974604575
Ba 13.987732208973757 10.534153327124665 8.71221778777186
Ba 12.746534585329876 6.343398750908478 8.784093210829102
Ba 8.339163947705575 6.122986626984433 8.413211370227668
Ba 10.529045738726222 9.200034597962977 6.171302709929556
Ba 10.400681130298139 9.348207149316758 10.36770432682597
Ba 7.929400064229182 12.205701951594234 12.174135889808511
Ba 6.6461324705010325 7.871198312698864 11.89947121131055
Ba 4.191437321418421 6.842123670675611 8.623142656105312
