11
Energy = -12.61033033 eV
Ba 15.658142175677137 16.680114633647722 13.807496812839275
Ba 14.968341398936435 15.05227879811432 9.802978181699459
Ba 17.05399942637828 12.54739792329342 12.823679445988782
Ba 15.111620866593293 13.378531254956306 16.787508158503844
Ba 13.912625470754971 9.76877413999985 14.413198543515183
Ba 13.922368413043964 10.85122566958705 10.172092866528462
Ba 11.615277572289827 17.08194929371501 11.758169339710568
Ba 10.083135863679596 11.000983811500834 12.277590245719603
Ba 13.04938315042029 13.594524218392163 13.185572843836136
Ba 10.855317486223036 12.178309743786194 16.42769758305992
Ba 11.924612168484849 16.37569103755644 16.06868355023172
