10
Energy = -10.07165448 eV
Ba 14.027280794918424 12.995919351790173 16.36700282963501
Ba 16.153880746334863 16.53257252869421 17.311210647027565
Ba 13.727831688102317 14.616347164558267 0.09524704531061519
Ba 14.360066575179546 11.242006794749829 12.404173357963707
Ba 17.19308186820652 14.192826748978998 13.610266311553326
Ba 17.78895456600857 11.98792916997324 10.024135900413533
Ba 11.547971700117678 14.347960461336598 13.228686647947056
Ba 12.04136514819646 16.678865585497523 16.930236177589414
Ba 14.386525801617767 17.23744024878931 13.484865421964077
Ba 14.548905432739083 14.673135612943257 10.230885175890915
