14
Energy = -16.51986443 eV
Ba 17.87479374924276 10.495392577314373 13.705352908401077
Ba 17.69415083359676 13.661193171931096 10.393995228420208
Ba 13.79509464644174 10.73536310930223 11.01848757445167
Ba 13.829436010443311 9.929635992517554 15.245882693948287
Ba 15.445435620332267 13.618292848567583 13.65205775623724
Ba 13.534731042325019 14.906166519265232 9.992608617613811
Ba 9.751797394629595 9.941705836235965 13.686437989930916
Ba 9.58029821691591 13.090874268767692 10.32934084068684
Ba 11.295674653359605 12.510575708172663 -1.1723382797652269
Ba 15.970701444981467 12.840314996887736 17.507287811577648
Ba 13.38954735307889 16.289471536973057 16.29647042384476
Ba 11.741567616065634 13.365209163977346 13.638894172745422
Ba 15.688743098442774 17.4615346645512 12.633758892842467
Ba 11.025332267860046 17.152639637657728 12.5960237811123
