18
Energy = -22.96870197 eV
Ba 12.683444615712196 13.27344532380691 0.5593938313361819
Ba 11.362743319740822 10.456880154891905 18.15285185530504
Ba 15.095712788443056 16.532467006501516 19.03793503694453
Ba 12.866758016619604 18.919698419388453 15.972467540250948
Ba 11.428597358455967 14.80866242350687 17.23978283447605
Ba 14.682391460117042 8.442300409658868 16.173877304960467
Ba 15.042848216091297 12.333435402319369 17.791866041345138
Ba 17.296768000446548 18.90035485683289 15.596731034226586
Ba 18.64086255941889 14.78820385532653 16.871402265579178
Ba 14.941752533030225 15.413151693540065 14.891594608981473
Ba 12.631133001103303 11.904676068587083 14.13876677696083
Ba 18.410127412548377 15.932310068143357 12.543811997530534
Ba 11.200761908970394 16.008622920843408 12.938703522009371
Ba 18.745409721146572 -0.42484689734871356 11.547200432668761
Ba 17.030211578003957 11.724591051527243 13.953583158126238
Ba 14.837002710876828 18.45063913045008 12.006137503234843
Ba 14.755080597619973 14.181723126463142 10.774880568784415
Ba 17.240338535437676 17.320494184064874 8.551377404380686
