19
Energy = -23.71147312 eV
Ba 0.06479693282412186 12.581913875787864 12.95590602512864
Ba 19.025367520503323 10.66994118750387 16.731843790839427
Ba 15.387878106616661 8.261907414104662 16.485928782878077
Ba 16.749608043629365 15.047465689636972 11.475277632780138
Ba 16.151362811155167 11.455849548356206 13.70323929509522
Ba 0.30069063707209776 16.942641472271937 13.162790473822515
Ba 17.925880776854203 14.860815299497549 15.820425390030291
Ba 12.919192864350668 12.75929423615343 10.910699324277013
Ba 15.052295955415058 12.404697412440482 17.846518022094493
Ba 12.113804446789391 10.720525492458432 14.808145547498913
Ba 16.370191126958613 18.413398626832794 14.0917252656303
Ba 13.50228383948048 14.95234615348864 14.64344201564886
Ba 9.531733234839194 14.291735061785738 13.467098181143351
Ba 10.948662986647028 13.413415124053314 17.94942511798133
Ba 12.690378921171256 17.17941373785589 11.233203669843933
Ba 14.20752590631632 16.94837762351584 18.057621484227266
Ba 9.900106544601696 17.204923458694175 16.615508703063092
Ba 12.450713813863024 19.618051315606618 14.740315225477708
Ba 8.9793084424229 18.418118453625095 12.724955796962165
