16
Energy = -18.17352529 eV
Ba 16.198852610376875 17.079559166991025 14.627372867583171
Ba 19.660981242139574 16.223351619700903 12.120501362563212
Ba 13.27207519634379 20.29570574183181 14.483472371823607
Ba 16.672710377992455 15.494141498065924 18.58786334626441
Ba 18.447895369849054 13.378145789240307 15.011052298669693
Ba 12.356382948845134 16.383676863183197 12.680290441552483
Ba 12.01889690291144 11.607581266093304 12.73596634258381
Ba 19.86807465228118 12.226471566960134 11.15276759015007
Ba 9.449551705590459 18.87552505847425 15.03060481204191
Ba 10.522349221684335 10.850626340824642 16.981630397342013
Ba 15.842908750124309 14.168827847229617 11.392765854807966
Ba 13.935996011777986 8.728291085218082 15.773458152692832
Ba 12.67581329266593 17.082689777794435 17.162182529623095
Ba 16.29451009157704 10.305062534890034 12.804396371143913
Ba 9.723680803263367 14.508220454070367 15.272000423225759
Ba 14.112912819958073 13.195386641678732 15.716126371651626
