11
Energy = -12.30938914 eV
Ba 15.790524868340304 16.83139837727588 14.90064993250486
Ba 15.264251634273078 16.52242040438106 10.590284905955777
Ba 15.726824219072785 12.701723833871517 16.56513674451747
Ba 13.502933360756739 13.815262997680192 13.209759804200907
Ba 15.119609229291537 9.89506859196879 13.19386753981564
Ba 11.218953621054085 14.835531993725931 9.855917294863312
Ba 14.671726548143607 12.273165322582352 9.481176646065135
Ba 12.225426179223962 15.20215875737514 16.96711714483133
Ba 9.322611120435392 14.14744014870322 13.809160943534359
Ba 11.096076837868466 10.785920359474176 11.503047072676532
Ba 11.747114156800494 11.016599718817425 15.84955167805643
