18
Energy = -22.30864984 eV
Ba 13.735870402267675 9.687145043423328 14.49115241216047
Ba 9.889250134113247 12.364019687368643 12.89272091140458
Ba 17.486711351360032 10.842778605946455 15.808285043815916
Ba 12.619425538474381 9.800236391984413 10.583417246234754
Ba 10.819623976865314 11.042529035364801 16.97541415623889
Ba 19.28095479854354 13.528298739363088 18.69141175337346
Ba 16.426675373451662 12.01848027050383 11.605568352741622
Ba 14.567090014143014 13.492506254731394 17.897406422680948
Ba 13.538996820315143 13.612424736810718 13.89590855089437
Ba 17.160316843196618 17.240363053164494 18.610495680318746
Ba 10.438387978372475 15.159131163501344 16.460006642091862
Ba 12.792152215196262 13.86385875126949 9.708867763708065
Ba 14.056356876714267 17.439213667587957 15.66524339301199
Ba 11.214494745479467 16.940736734122133 12.490861484908853
Ba 17.609975164579325 14.92486807755287 15.029198853841137
Ba 15.565536157449097 16.73795530836308 11.645581337236234
Ba 17.629342518052532 19.387947556938194 14.66062072035075
Ba 13.715952467857292 0.6466109443990081 12.906986786182266
