21
Energy = -26.53202712 eV
Ba 11.35284177179344 13.594652803127845 12.0281105201396
Ba 10.871458881000413 13.40156902189245 18.962664748493545
Ba 8.830064386202823 12.708569984922729 15.278618408327752
Ba 10.256659557888549 16.680166019086155 15.059177745531885
Ba 12.33491262333972 10.379032533935616 15.000338734234184
Ba 14.241089611283483 16.850666665869717 12.62450504828182
Ba 12.966444788273872 0.10667924115765197 15.24922492524938
Ba 14.421799507821426 14.616978212069464 8.905812943790249
Ba 13.487069311207218 14.231933134704093 16.03074735826415
Ba 12.227225910234166 17.69788829276786 18.753241570675748
Ba 17.27325097202437 17.855516883939785 9.539704287943787
Ba 15.631948276511203 12.710151283206947 12.616008124621594
Ba 15.102966335853289 14.81283127855014 0.12488424304953909
Ba 18.63782030132618 13.764984173238005 9.52870944661074
Ba 16.07180907289598 17.555750776728743 16.664394236370008
Ba 14.51146793852177 10.777885209913958 18.74624286954644
Ba 16.557479948059804 9.41198192857072 15.24744335755974
Ba 16.919735905912994 0.23733832445883296 13.286311718626159
Ba 18.40947019751374 15.93785304366588 13.199717696405202
Ba 17.589364285804237 13.234908574029015 16.684826879493656
Ba 19.782857658722982 11.635800978156153 13.255232832619521
