24
Energy = -30.66588117 eV
Ba 16.850533073386412 18.4367045049788 10.911653111291853
Ba 13.069681150836173 18.578097038070997 13.176634165801483
Ba 20.88535393323792 18.339655411285943 13.122949747281837
Ba 18.382951667817174 14.90277039744204 12.722349953617705
Ba 12.914089211973788 18.321973634961346 8.778648702652765
Ba 17.071376725812826 18.871928508023863 15.228465583903258
Ba 13.184367865576876 18.80196398432806 17.54151551498583
Ba 14.181689694235239 15.017181381993574 11.323287999305654
Ba 1.572561729254369 14.36254003175752 13.626377628026466
Ba 19.770228792865115 15.765601462669927 16.548598228586496
Ba 16.728183824134746 17.19017039545862 19.42692428976746
Ba 10.06599790387317 16.07652967031976 11.228860294355291
Ba 15.117534135374099 15.239141783763465 15.625677167315127
Ba 13.172477373204828 18.631681600310678 0.7970146512338357
Ba 10.850230458294835 15.457869375191242 15.670317506667057
Ba 19.659148450464986 11.589193371842532 15.315627897138274
Ba 15.75421613939532 11.466813677357239 13.6382171431665
Ba 9.543897548352854 17.614467233736196 19.560611045382743
Ba 11.514749663648187 12.133374763302731 12.876999081705279
Ba 16.979031318723774 12.776920069051961 18.465032243439193
Ba 13.023243829412458 14.945753174662036 19.57694201274443
Ba 13.00169430448548 11.47964025726974 16.90502801875857
Ba 16.460342671736782 8.71977233567898 16.795159449730136
Ba 12.984062790603254 8.112302635865502 14.121342871872535
