26
Energy = -34.89851393 eV
Ba 18.290183084227536 10.953182465718752 0.3977196327354041
Ba 18.246181317533726 15.422693578540429 -0.3985526831136377
Ba 14.545152596564208 17.852787853072567 19.40000458980592
Ba 18.728050792758285 19.609120374857003 20.314101448412305
Ba 14.821692595530957 12.978872500436653 18.954646045063836
Ba 18.777162157364494 12.648796661548278 16.81118818132006
Ba 16.145970189897984 9.110558221483956 17.312387887474788
Ba 11.918025537490825 14.934005273248431 16.303483189392605
Ba 19.96199596292206 17.3593046192911 16.442783865545124
Ba 13.165628929898674 18.976281349489206 14.912388608213766
Ba 11.726883942249083 10.562610240534708 16.677068553561885
Ba 16.78195587407271 -0.01758695475338743 16.670722487962234
Ba 15.099580902895843 12.19507500424327 14.67996481462896
Ba 8.089771623856523 13.083261538270252 14.971917062560978
Ba 18.41550781598891 14.388041175593674 12.75816183412861
Ba 16.122621539349733 16.062362768910113 16.128791729917907
Ba 10.03319642896097 16.43586847499918 12.607444813932318
Ba 18.288791453583446 9.84449091606146 13.285911729114208
Ba 15.403232328367691 11.980881508029897 10.37866060211825
Ba 13.173803692300726 19.005440726782805 10.426529602767385
Ba 11.479099743708897 12.202961376327087 12.54982858227522
Ba 17.109931297385398 18.65651448420873 12.73061365276668
Ba 7.855169786098342 13.309573390856729 10.428439511483019
Ba 16.326269051146426 16.203563475781262 8.975451035175247
Ba 14.189200506327571 15.541355889223043 12.46537307325475
Ba 11.948330054669233 14.791178345507307 8.99485157953596
