22
Energy = -28.91207787 eV
Ba 16.530835426258832 11.610654933347858 9.62289313310746
Ba 17.350856464019667 16.021379560467146 9.978348733087524
Ba 19.796756397164202 13.721301507140234 12.445104431418384
Ba 13.469761048251375 15.195762226256878 8.71969250544856
Ba 17.90204062021739 10.23064370473867 13.677515192424542
Ba 12.07804573200077 11.574976171638438 10.244939299298027
Ba 14.074007151948718 8.895710215153315 12.738536622512125
Ba 15.099879185714245 13.49994881181731 12.799464849682968
Ba 17.626200142241835 17.18673038619218 14.253843776463668
Ba 17.965465401192194 13.626243064908037 16.52160630335077
Ba 14.03590025674525 18.024276147885548 12.13773654300313
Ba 14.674015858393647 0.07559482259076934 16.105693340488124
Ba 16.704324633722596 17.34318872855867 18.602734815295065
Ba 14.717026559220646 10.884971993928335 16.6867006679213
Ba 13.651110253807119 15.416564593652923 16.047329888071925
Ba 10.798820816647945 15.287179921872484 12.305491849234622
Ba 11.13193466061945 11.715848532368097 14.583618017926403
Ba 10.838468118530978 18.699642942069207 15.14160366415776
Ba 12.226526817558264 17.297854198480902 19.207557403802067
Ba 15.281286704172102 13.724328410696575 0.17979227297748274
Ba 11.391968101630264 12.867820925807061 18.870172445458614
Ba 8.975497837402651 15.192332533659417 16.397201685210415
