24
Energy = -31.45971235 eV
Ba 16.536868801537008 19.74899422885093 11.362134065395821
Ba 20.748872520120507 19.754040570684104 12.467599847326618
Ba 16.269531576152787 12.018742890521029 11.79131700370465
Ba 18.468350442329587 16.07652024020664 12.318057090166372
Ba 14.321849682535605 15.85945615153245 10.795648944467132
Ba 15.374707978219764 14.665886347346264 14.85769325115706
Ba 13.385688641945956 18.619130404102833 14.031338336251752
Ba 17.463385463023496 18.791985085006488 15.577339439856202
Ba 0.2702432153455688 16.618813834904515 15.43323047025296
Ba 14.152180632713915 8.220859274786857 11.364740297492563
Ba 19.241590748898012 12.639861165343182 14.996941080297914
Ba 12.127063454047645 12.064496598955637 10.684738174831372
Ba 16.8777968941581 8.95708616243151 14.728740380060307
Ba 10.39826511157724 17.985405180395684 17.169328731309562
Ba 18.277181538856976 15.413841405796315 18.2156690529435
Ba 11.187017277627481 14.834839847576243 14.00543718543463
Ba 13.096694033086468 10.998690084217213 14.726945667557354
Ba 15.8549334256741 11.780233824258286 17.982384566920658
Ba 14.297657010948189 16.96752410556419 17.882740098040802
Ba 13.80601020804202 -0.018248204038386995 17.709446545673035
Ba 16.847078288720986 19.014760583898422 20.336590807786717
Ba 12.317317860816685 18.132365315894248 0.048013547436691166
Ba 15.18514274851542 14.83311376706836 0.21938564971133923
Ba 11.873734910484929 13.836801905351258 18.317526667778463
