28
Energy = -37.76719356 eV
Ba 19.90170170485202 18.573935675716637 16.26784753790997
Ba 17.365043234508583 19.36227430157269 12.712792277943288
Ba 1.0952257849643694 19.465315652734862 12.311768670596157
Ba 17.48076673981622 16.306305544504713 20.626541084290075
Ba 14.88597693104253 17.05313903537898 9.415835873794983
Ba 19.131327167728003 17.446958836382276 9.27435431530831
Ba 15.409792318606131 18.515264309434897 16.803927754955986
Ba 17.933751544147377 14.880613822459347 16.61106839830504
Ba 12.6861884442666 19.231123647377053 13.049042054040626
Ba 19.94077529880657 15.596069101484465 12.960960429318746
Ba 12.225717758115314 16.074159638601035 15.574926973896186
Ba 10.857585402825334 19.31610829024109 17.39046827440526
Ba 14.375438643464195 14.802401512401495 18.60921462902132
Ba 15.689200723678535 15.663688878865338 13.126050687121827
Ba 17.50046064933055 13.354141511823514 9.938534868113992
Ba 17.933981606536154 11.494966816620176 13.95439437753138
Ba 8.446416826322125 16.737319598297884 14.629530595842205
Ba 13.154182026729218 17.784855092602147 0.18212506329524586
Ba 16.725448660541854 11.348889172730328 18.80932971121651
Ba 11.485102003619472 15.310748461760715 11.603560169205405
Ba 13.979099479206159 13.443221369118483 1.5391481680735177
Ba 13.830326154600165 11.771504208218458 11.579621780530093
Ba 10.382594900326223 12.323367153566977 14.822987506994028
Ba 16.75391978653514 8.757113327409563 10.945210796737788
Ba 14.393677582228035 12.72612724624732 15.384180509204974
Ba 14.386171520935566 8.816639924184674 15.000775388929682
Ba 12.329392359960211 11.085987374283526 18.678330768000265
Ba 10.157382330051378 14.991453492636614 18.861186313605128
