22
Energy = -27.7282302 eV
Ba 11.25830708343826 8.66157665406443 12.894666493112563
Ba 10.09645459807932 11.000712175096375 16.340967299308897
Ba 8.542960028996042 12.279578946775064 12.526293185452735
Ba 14.29916291311516 9.955171373279635 16.108402565487964
Ba 12.638049274593111 12.629244120208712 13.249861915751367
Ba 18.80310281386273 9.224887353560504 16.00253337858415
Ba 12.97259111224092 13.62430348917834 18.509472230036963
Ba 10.384598485417037 15.389449166285644 15.518744411018188
Ba 10.80643350299808 15.975827152021607 11.181575245537854
Ba 17.049154785848142 12.218281846552877 13.401252980460281
Ba 17.068542059479203 12.800301052488885 17.74394814322187
Ba 14.913508326978217 15.47777723139812 15.107394786039725
Ba 0.4327884062350957 13.282880786507766 15.735366633239945
Ba 16.191986312647405 15.800732576947292 0.4425784764003714
Ba 15.097674834551887 15.775599216697216 11.03591787105045
Ba 13.775484440023268 18.13692091616691 17.90502338096974
Ba 12.051552908762758 18.89200779401358 13.92540228815521
Ba 18.971728919971184 16.038426873669824 12.827272913124952
Ba 17.85045202658767 18.729939092216092 9.48942628887986
Ba 18.273881719621375 17.01217356290981 17.017842100669494
Ba 16.21990620218735 19.28937817570178 13.585576691379526
Ba 13.549802034508149 19.54073616041368 9.948587604693024
