20
Energy = -26.26201474 eV
Ba 17.95467459656335 10.532436250431887 16.604400259063638
Ba 13.399721208264454 9.264063272325972 15.800195873716016
Ba 14.487111710812536 11.884428000361916 18.889511859930263
Ba 15.889674811435723 9.515797540425032 12.223886117137472
Ba 18.96397421286863 12.616192659920282 12.409635200788362
Ba 17.924557102935896 13.70776869045482 19.702977932022268
Ba 19.144620386565045 14.703915669309579 16.045771794460258
Ba 15.342609094455353 12.869696440279398 14.629457743677825
Ba 11.324246613960405 13.244857156115636 16.39666501990736
Ba 11.800034186837783 11.656014803730196 12.339808929179286
Ba 10.887326955910194 15.112829210071917 9.545492583134665
Ba 16.946965511500586 16.61339925628741 12.959093174661655
Ba 15.107038980471474 13.63725608863925 10.310684441169748
Ba 12.743242663156671 15.815098693827311 13.269507075000844
Ba 15.01662630532603 16.09799159768575 17.274410907780716
Ba 8.633760340696531 14.883866974902118 13.34613492179301
Ba 14.079687140125982 18.134046779398 10.005485637958369
Ba 13.983591480364561 19.66166699420592 14.290671818115765
Ba 10.203422291475887 18.845917211473733 12.072805421051825
Ba 10.62505124887008 17.654852096081996 16.341356964552944
