25
Energy = -33.28491918 eV
Ba 18.308722776031765 11.839749266313271 19.863700798623118
Ba 16.271198142955225 8.134028537305795 18.805101930585597
Ba 17.96534503228562 10.907414294320851 15.749483806454966
Ba 19.776073723695912 15.06421336003594 17.30287110129251
Ba 18.995526419056116 14.43225003805945 12.759761190478308
Ba 18.999926061152472 18.35710558302455 14.696466745541452
Ba 18.04088284598835 18.676265017082486 10.454121125819062
Ba 14.102812349663965 12.015820180902319 19.07102112656857
Ba 15.168219261235002 12.31300248272445 12.439267318478676
Ba 13.794946813415459 9.600931123879988 15.512952443143096
Ba 19.046649811269937 19.11339303397312 19.130380070678626
Ba 15.956846881715498 15.10233698084688 9.096546031088451
Ba 15.863230310310392 14.321614918294957 16.229163419775414
Ba 16.486561782175063 15.713204688097774 20.309740599011512
Ba 11.222855241465414 10.615628637461931 11.938912848776122
Ba 15.59530782910927 18.26810016179748 17.006038886689254
Ba 15.429767698381799 16.671236072266982 12.873112803301598
Ba 11.958189410559148 14.853356870283003 11.01354446952665
Ba 11.94477195539797 13.600550085426718 15.237695283238422
Ba 13.528570599881853 18.837364948126698 10.026256877114742
Ba 12.382983820189736 16.483131474936716 18.71205654199411
Ba 14.958123868876637 19.794926564329927 20.8195652401983
Ba 11.929768745323571 17.98624927784201 14.385195763385495
Ba 12.542692590037865 21.0905352715996 17.408384750621998
Ba 15.338750489537823 -0.5554141124190229 13.679500391906174
