27
Energy = -35.52893073 eV
Ba 9.842956171355805 17.57327062418117 21.288264804747577
Ba 13.41086659041307 18.613900302260504 18.909738190267507
Ba 16.361110641996557 20.47497049447824 16.383292106226147
Ba 20.95768267683827 19.50247618864447 17.659029187002922
Ba 13.91082838339488 15.91044544576802 0.5070684177802562
Ba 17.596402585787192 18.06670915422998 20.296468938934794
Ba 17.901128595694566 13.828910639788425 0.6620274890865915
Ba 9.745844454968255 17.862837019557396 16.767263665683537
Ba 19.51855997574187 20.13371367991947 13.427067035765477
Ba 12.6388093944859 19.452166221101795 13.94587076220467
Ba 18.17311487482523 17.035296444023533 16.196854352005044
Ba 11.59308716789317 14.554269154813921 18.74759856257437
Ba 14.08919259259685 16.140267309476613 15.758249835153242
Ba 20.39067457960681 14.797456648981903 18.831517012287637
Ba 16.253517907790698 17.459542481336165 12.73767133743282
Ba 16.0515212445736 14.569573550701508 18.872493214681654
Ba 17.467711943464366 19.313346221194195 9.438959498330512
Ba 10.916595131418465 14.68720841347968 13.917669749007326
Ba 19.99584168286611 15.963487767223386 12.284639099346682
Ba 13.075361576646634 16.77336977224698 10.372042297765582
Ba 13.971858145586722 11.80147607308691 16.376183171757454
Ba 18.0686121833557 13.192221730823162 15.186306426497278
Ba 17.747097469364256 10.817750101164435 18.85157047752139
Ba 14.983990719249022 13.224033117431114 12.421140107196623
Ba 16.968770146525383 15.06213771140264 9.133848068725479
Ba 16.784180292582104 9.291801981235425 14.335173897502937
Ba 18.9129844180478 11.727248290759745 11.175596545825286
