27
Energy = -36.41442677 eV
Ba 17.604315007110312 20.992215871739184 16.743291838799955
Ba 18.118556543259203 20.63571377204475 12.484096221086459
Ba 18.546563670137893 16.957209532944937 18.675801820993527
Ba 21.054245783677313 18.326387792778547 15.3254996653974
Ba 13.588361754711924 20.277974848877513 14.159740269719459
Ba 10.827929842898346 17.592315787658336 11.003567820928144
Ba 15.11424115483514 17.437911431822677 10.859974692437904
Ba 14.345784566378105 18.13670895413033 18.169856579706963
Ba 16.96565869036985 17.40754115348061 14.695579137187545
Ba 19.479739752268387 16.49316921083637 11.409226955424618
Ba 9.117495721593935 19.807374717650205 13.805035106182423
Ba 10.192100859563915 18.190442220026213 17.222857076452133
Ba 0.8354395551709508 14.867654058138875 18.495542375865618
Ba 12.900027872625449 16.155107116494438 14.444357068129762
Ba 20.07340298271927 15.202668589040705 1.0091548992780561
Ba 19.644901507733085 14.10638201171576 15.215731113823695
Ba 0.5038184111341251 10.759442532437227 16.838410301866
Ba 15.675070955167053 14.149060777729401 16.95906887088683
Ba 9.063946396500969 15.19631796436692 14.246193108697264
Ba 11.964592904914447 13.711801108098097 11.005226537601887
Ba 11.710033423196512 14.432433622549395 18.427001536740406
Ba 15.588193046520166 14.856193823648503 21.179783065968152
Ba 16.098648862767803 13.552293522100916 12.668526949543754
Ba 17.323343583893315 10.386802420209374 15.750337354456573
Ba 18.78196305188618 12.468346700922831 19.33103761637961
Ba 12.682284576037379 11.798772053700468 15.024937685262952
Ba 14.439336577536197 10.897524905913778 19.202813897304114
