23
Energy = -30.44229934 eV
Ba 10.285700315726901 17.108558542017747 14.583333990653871
Ba 8.53098274101576 15.353476012971608 11.052016231793166
Ba 9.672882453488928 14.052905537257846 17.71350751485906
Ba 11.065360551384805 12.973765528198737 13.634071229562794
Ba 14.662253525903463 18.57176477591473 14.84409259920489
Ba 12.965817646589265 14.437967257548847 0.21492634000596794
Ba 12.88780251966049 16.434913179931236 11.162041929099615
Ba 13.376776954174813 11.13246891270637 16.87286091950238
Ba 11.707218967945895 18.221738399869245 18.584276390865313
Ba 11.705285713282239 12.610377518033332 9.523458166436958
Ba 14.417758427403376 10.042758110552063 12.095397552386565
Ba 13.49535536564713 15.142417570379607 16.68614499811547
Ba 17.570613235949786 11.011734842859772 15.355314628262128
Ba 16.237613049748774 17.522996530006466 18.961397265706843
Ba 15.779899259702322 13.542399389667889 9.222959076493714
Ba 19.05915286010353 19.229774177714337 15.772629847208254
Ba 16.79164832396648 13.174925446951281 19.057471699755446
Ba 17.57005474445428 17.089504722106273 11.769850439495684
Ba 15.08887014553533 13.746321088411174 13.248028227765767
Ba 17.772948780766548 15.313919077287869 15.612214837533463
Ba 0.04992808303846012 15.848820947271323 18.47625711802697
Ba 19.073857176278146 13.017031044878681 11.917305426518082
Ba 1.0448859378059694 16.127431116493614 14.07138900180871
