29
Energy = -41.42010681 eV
Ba 10.470481182283477 10.47117514 7.079971669671964
Ba 12.603617533516664 14.160817337450734 12.798082834301006
Ba 10.470481182283477 10.47117514 13.862378610328038
Ba 6.216875611167041 10.47117514 12.803131426762471
Ba 5.638488991250743 14.484240474236186 10.47117514
Ba 9.400599310499567 16.674992336493926 10.47117514
Ba 8.29949027286854 14.23889505120544 14.304872947050663
Ba 11.773215434167172 8.209674526085594 3.8884122332112496
Ba 14.81505276863851 10.47117514 6.6313888667543575
Ba 12.603617533516664 6.781532942549265 8.144267445698992
Ba 8.29949027286854 6.703455228794562 6.637477332949339
Ba 7.86069213647228 10.47117514 3.8850944904290143
Ba 11.773215434167172 12.732675753914403 3.8884122332112496
Ba 12.603617533516664 14.160817337450734 8.144267445698992
Ba 12.935508135681495 10.47117514 10.47117514
Ba 9.237925778287817 8.333629353570336 10.47117514
Ba 6.216875611167041 10.47117514 8.139218853237528
Ba 8.29949027286854 14.23889505120544 6.637477332949339
Ba 9.237925778287817 12.60872092642966 10.47117514
Ba 8.29949027286854 6.703455228794562 14.304872947050663
Ba 12.603617533516664 6.781532942549265 12.798082834301006
Ba 5.638488991250743 6.458109805763815 10.47117514
Ba 9.400599310499567 4.2673579435060764 10.47117514
Ba 16.371523196833078 12.64410977464683 10.47117514
Ba 16.371523196833078 8.298240505353167 10.47117514
Ba 14.81505276863851 10.47117514 14.310961413245641
Ba 11.773215434167172 12.732675753914403 17.053938046788748
Ba 11.773215434167172 8.209674526085594 17.053938046788748
Ba 7.86069213647228 10.47117514 17.057255789570988
