30
Energy = -40.41999211 eV
Ba 20.17806818185761 11.978526093446746 12.506142319400325
Ba 16.7494787996833 10.412448954150891 14.880109706877768
Ba 20.888853102720095 15.6084443690189 10.140533592340338
Ba 21.00082402975941 11.481203366986554 16.522357811156915
Ba 17.004599572954106 14.526621927104726 11.556937343065234
Ba 21.539737912794322 15.527923085901982 14.62194558805205
Ba 13.612300131630105 12.267907722664134 17.886777546095505
Ba 17.232890251539676 17.733912087468372 8.755496260330458
Ba 17.722622388026316 11.57793292414511 19.368493784775115
Ba 13.449202844014515 13.598543125197216 13.994703211898665
Ba 18.835945079594808 18.34797573062463 12.654160496668823
Ba 17.73717497234505 14.203722437473143 15.68771434569356
Ba 20.46037329952054 15.065940184057014 19.19459743357804
Ba 13.457262428959337 16.68672172329542 10.581522891007847
Ba 15.061389107925793 17.547394688402363 14.652220418953569
Ba 9.785819190400945 13.479727747431548 16.35448450581842
Ba 18.718603222504345 18.280609990765818 16.989001917726238
Ba 15.2641248050783 20.52708289984937 11.471435454292578
Ba 16.08385136216592 15.531544322327486 19.243531240765186
Ba 10.554762772618654 17.08168757566188 13.80835529459964
Ba 18.02736036877773 14.578812389493956 1.1273978029957707
Ba 11.160563339920747 20.149151603672724 11.05411602040085
Ba 14.392817414067277 12.656534152142935 0.29202464414850887
Ba 16.872263655090727 21.726251137431362 15.265163941872856
Ba 12.213005131384548 16.649485721782735 17.75783960394134
Ba 18.156451236325896 18.624259482842767 21.355472056217373
Ba 12.496792465383166 20.865136687196884 15.015599959503119
Ba 10.79051987430616 14.119054246293706 20.658245316516034
Ba 14.95718113856767 19.777655095929937 18.616533174570783
Ba 13.814340128142915 17.029858306755404 0.378915788226625
