34
Energy = -46.41431134 eV
Ba 20.038056969385117 17.119613827160983 8.305231437598158
Ba 16.40319025217335 15.058617087068136 9.29642707887261
Ba 16.75806457477256 19.326859515199324 9.068216063254699
Ba 15.715096294417947 20.987289518826362 12.890336977682566
Ba 13.14213918869656 17.916628539904547 10.881598637780025
Ba 20.148032445609463 14.814074686021343 11.737605926107616
Ba 12.390640044693251 19.090145691456318 15.071908685386282
Ba 12.744107368982116 13.576175548488298 11.613029029543194
Ba 19.883262608124202 19.275637120496576 12.013467952898536
Ba 18.646237008528175 20.720003233112728 16.181945174641456
Ba 16.446010028614335 16.87590643966483 13.245935371706222
Ba 9.618936198868383 16.621438601631233 12.801850127506496
Ba 14.52347351129487 0.9146327741824956 16.617367486164913
Ba 16.706600582386226 12.615402264364048 13.296452278431648
Ba 12.973123598369618 14.879685151924125 15.547667514245015
Ba 9.274435013631281 12.788148742925534 14.459054802806376
Ba 19.885209208594922 16.498716107137298 15.775030856467001
Ba 9.512321454328816 16.590421327933075 17.30039180834175
Ba 13.25258697472163 10.744937434763003 15.312822564620475
Ba 15.688550239273434 18.17553540746316 17.632358622403824
Ba 20.62863969733229 12.229272006206003 15.186824857483874
Ba 12.248868524979768 19.893732212475665 19.420570223978554
Ba 17.041541014092573 13.74505424572684 17.41597406286047
Ba 16.60224949208272 0.004917733900436188 20.14279288009426
Ba 10.405730295167798 12.344916603962755 18.469172947120505
Ba 17.425262927932877 9.459187591058189 16.680936971495086
Ba 19.154406884182098 17.902862660532687 19.90341316660344
Ba 13.043752472086448 15.56788066427734 19.75787670735755
Ba 14.350945024148942 11.358257572426066 19.550971887818847
Ba 20.922464991639906 13.71670451605956 19.4066907240573
Ba 15.317387351823953 18.296484443584713 0.6530886605546616
Ba 21.415589602028486 9.602067592027858 18.270044405873033
Ba 16.918009353392147 14.470235205057982 21.549130069291017
Ba 18.38009180659762 10.52312733706286 20.736930349724275
