36
Energy = -49.48533405 eV
Ba 17.84754248944597 0.9864890659336786 21.407106426585553
Ba 12.299373457705816 -1.099867200201131 14.48558108470394
Ba 14.829034594833173 0.7580580682727797 17.930481893251216
Ba 14.3601253055782 20.295476766180084 21.62931459039265
Ba 10.525250634192025 18.339868721523825 11.747151869883842
Ba 17.68156965058346 19.807015012621765 18.74652997315719
Ba 19.18630884407441 1.2729149495129521 17.111433921604128
Ba 13.708540099110168 18.605972395433852 17.653170213369886
Ba 16.56020455782556 20.390600404242413 14.626181084344283
Ba 14.816922853636761 19.038140356082717 10.512685041944579
Ba 17.229305375991807 16.206770973161877 16.291201580976914
Ba 11.67221463038537 16.797803587491536 20.996700146958602
Ba 14.49571018873953 16.823819600370484 2.6173874897434066
Ba 8.25892985191857 14.888797163194607 11.884283025866607
Ba 10.051865995541137 16.873152562482503 15.8586463080364
Ba 13.86830919300404 16.813136396601962 13.829539170802295
Ba 12.55246388002657 15.180875418552025 9.80470927733274
Ba 16.0405073829751 16.43989985346145 20.63503073501113
Ba 18.58035515765122 17.118376901794754 12.352284725487028
Ba 13.391229385981411 14.19861683402276 17.79406595189845
Ba 20.660161676110246 19.283359915045672 15.776809339778069
Ba 11.650724950293396 13.266366428334026 13.670922546912921
Ba 13.974050738962982 13.025569484853547 0.034611461441964836
Ba 16.888192978381255 15.673649161598036 8.26134103703324
Ba 17.372373943124963 12.647633580833668 18.98688480186078
Ba 20.17362273497686 13.389927842768557 10.849936017887048
Ba 20.447641236330302 16.134749406792913 18.93461870874323
Ba 14.112435062439053 9.705655831665922 18.965823835979236
Ba 18.93577258066598 12.842635066425785 14.933831447650634
Ba 0.026315328620458572 15.173950782054662 14.742547246408213
Ba 15.147671402717789 11.358767955158665 15.228189687202255
Ba 16.001033605758987 13.79892018042436 11.948189537744359
Ba 21.678945240097523 12.005131764512205 17.980806889878934
Ba 18.500741574611435 8.9996235677485 16.699365291138108
Ba -0.014055994656464768 10.474534724592568 13.865184692959442
Ba 17.96225635786145 9.733530799298535 12.2204228301588
