31
Energy = -42.98598451 eV
Ba 20.434282169790233 14.85110602453862 12.09737616562345
Ba 18.73195658690194 10.844582283595805 13.487924975972323
Ba 16.710839514599495 12.821824679888808 10.137114610437365
Ba 14.745285173186087 9.09051409971657 11.801945612712379
Ba 17.710103028461567 17.18486672928702 9.25932271702142
Ba 16.922579305753608 16.133945589324455 13.253532049031978
Ba 13.750802851731066 15.836635856935112 10.464924134978522
Ba 17.517081194327172 13.381453029835077 16.38422441557286
Ba 19.643284545230358 10.225981587176252 18.11749272288092
Ba 11.511188230942844 12.324127233717796 10.869721873507501
Ba 10.29482931089159 17.676197867364756 12.01366641554532
Ba 15.555480343920214 9.514145272818574 16.36112453869745
Ba 14.443704572410391 12.7289829732332 13.661648107266318
Ba 19.289207155546844 19.493175661523733 12.54130233813782
Ba 14.645085222556027 19.65122137144644 11.893290089604955
Ba 11.413920231983075 9.87071243739124 14.62572576312602
Ba 16.240226099083923 11.962413819466542 20.24171933777478
Ba 1.0679921614345667 13.24738529149013 15.924633688107663
Ba 13.188124147258513 16.56588864539898 14.845189070983222
Ba 9.853165923110803 14.072438896325036 14.66044476233442
Ba 19.737192921584587 17.044004522636452 16.14077445122443
Ba 19.720900102888052 14.684293438118502 19.76850640106383
Ba 16.267378413651734 19.60898187096491 15.9525120606441
Ba 8.179005090351135 18.11795298561446 15.745041733442754
Ba 11.783429797649335 20.34175185839266 15.493205080889354
Ba 12.962094468925333 12.877563508952809 17.5619740800369
Ba 15.612827803867075 16.225814473439858 18.57539593929826
Ba 11.097754025063645 16.793127379313617 18.393109703319016
Ba 18.414945586135246 19.216600571535132 19.788193407316722
Ba 13.69341619167999 20.078423415107988 19.451924026116515
Ba 9.324585209936396 0.017341933252650363 19.12094913298234
