36
Energy = -49.30469679 eV
Ba 2.0821722397235254 15.96957546167263 11.736987163131115
Ba 22.430884741413198 13.421877827948252 14.722853763925642
Ba 20.22462471404951 10.898471157230205 17.992940495996333
Ba 18.21026074903621 8.484193610581363 21.23879029199114
Ba 20.3411723406226 15.270970096888304 11.3998985349178
Ba 18.14017207954378 12.637501771935327 14.604727495499782
Ba 15.942903424288428 10.203125353023513 17.959547991291114
Ba 15.85270691330533 14.69012512818546 11.380821178827318
Ba 13.704912839458165 12.170724967815033 14.679852312442506
Ba 11.45665174176681 14.261928345670182 11.543903096357939
Ba -0.20208581168550815 17.71023923200392 14.968735151204005
Ba 18.317186049277577 12.878809719493233 21.275887705394144
Ba 20.350836586774772 15.354479006448875 18.14238676776459
Ba 21.699163335094998 19.276010499007427 11.146283848517808
Ba 17.275707153609225 18.84814789269201 11.154504455676362
Ba 14.606475476227132 11.049978983851405 21.9010120026265
Ba 18.353035492374794 16.885711594796145 14.656821600473808
Ba 16.1757308970629 14.33933701171678 17.991134038316492
Ba 20.702756551360736 19.821870044869687 18.563549808049707
Ba 14.013235017393129 16.33953557903996 14.785094615548815
Ba 19.40355230683851 20.97926056807299 14.549263607011452
Ba 12.307962652434567 13.089225591180307 18.770504894305926
Ba 18.66118126789835 17.43373395470919 21.74773635684822
Ba 12.764563589936698 18.320726089804936 11.274432567875081
Ba 16.684889378604417 18.54511933147132 18.17511608810042
Ba 14.724637754808958 15.538939747804044 21.781323272795664
Ba 10.041161334157055 15.10454414267675 15.51889317970067
Ba 15.04070001767333 20.48287325703289 14.684540395425588
Ba 8.715822668131342 17.247236945363294 12.167900166665607
Ba 12.521128318023786 17.568345731311137 18.598049476280927
Ba 18.814620436908577 21.922134127316905 21.98403226374121
Ba 17.231025700076028 0.021948844954222623 18.12835223082342
Ba 10.762043670458688 19.513181564072426 15.087143960187207
Ba 14.999733372038584 20.108174837769884 21.626909393836126
Ba 13.010275146200673 21.968514339295005 18.314879980391577
Ba 15.144815168675917 1.8684467416727957 21.435875441156025
