38
Energy = -53.54573766 eV
Ba 10.33868385 13.631648666004736 10.33868385
Ba 13.427630020735279 13.427630020735279 13.427630020735279
Ba 10.33868385 16.63984353228228 13.444269061602967
Ba 10.33868385 10.33868385 13.631648666004736
Ba 10.33868385 7.045719033995264 10.33868385
Ba 10.33868385 10.33868385 7.045719033995264
Ba 13.631648666004736 10.33868385 10.33868385
Ba 7.045719033995264 10.33868385 10.33868385
Ba 13.427630020735279 7.249737679264721 13.427630020735279
Ba 13.427630020735279 7.249737679264721 7.249737679264721
Ba 13.427630020735279 13.427630020735279 7.249737679264721
Ba 7.249737679264721 13.427630020735279 7.249737679264721
Ba 7.249737679264721 13.427630020735279 13.427630020735279
Ba 7.249737679264721 7.249737679264721 13.427630020735279
Ba 7.249737679264721 7.249737679264721 7.249737679264721
Ba 10.33868385 7.2330986383970375 16.63984353228228
Ba 10.33868385 4.037524167717719 7.2330986383970375
Ba 10.33868385 13.444269061602967 4.037524167717719
Ba 13.444269061602967 10.33868385 16.63984353228228
Ba 16.63984353228228 10.33868385 7.2330986383970375
Ba 7.2330986383970375 10.33868385 4.037524167717719
Ba 4.037524167717719 10.33868385 13.444269061602967
Ba 13.444269061602967 4.037524167717719 10.33868385
Ba 16.63984353228228 13.444269061602967 10.33868385
Ba 7.2330986383970375 16.63984353228228 10.33868385
Ba 4.037524167717719 7.2330986383970375 10.33868385
Ba 13.444269061602967 10.33868385 4.037524167717719
Ba 16.63984353228228 10.33868385 13.444269061602967
Ba 7.2330986383970375 10.33868385 16.63984353228228
Ba 4.037524167717719 10.33868385 7.2330986383970375
Ba 13.444269061602967 16.63984353228228 10.33868385
Ba 16.63984353228228 7.2330986383970375 10.33868385
Ba 7.2330986383970375 4.037524167717719 10.33868385
Ba 4.037524167717719 13.444269061602967 10.33868385
Ba 10.33868385 13.444269061602967 16.63984353228228
Ba 10.33868385 16.63984353228228 7.2330986383970375
Ba 10.33868385 7.2330986383970375 4.037524167717719
Ba 10.33868385 4.037524167717719 13.444269061602967
