32
Energy = -44.42832667 eV
Ba 18.004683193885917 10.776619854084535 13.424301398771272
Ba 14.10800408706729 10.526356774369434 15.549124181807542
Ba 22.080494138977617 12.911628230090436 15.633667409733517
Ba 14.286891745788566 12.102108289851538 11.182105443124902
Ba 17.841728554596013 12.466085536574306 17.368750618311612
Ba 21.433716209170125 13.030173937833581 20.192557598527767
Ba 18.530048726484377 13.040592890971807 9.860834856942086
Ba 11.364451119297174 13.94671355724589 15.030517542782064
Ba 13.814982486552502 13.813294794969124 18.558979787993348
Ba 17.290525652679992 14.876669248475592 21.001006816062333
Ba 19.020890438692344 14.934961501888123 13.570853814233423
Ba 9.63955508041538 15.096034180119512 18.91566748529392
Ba 15.212998848362673 14.362119778497608 14.29721050706958
Ba -2.1815438296084815 15.95915506385905 17.70156322803841
Ba 11.695772187645286 15.797776520618168 11.274012069110858
Ba 12.98128492660604 16.991682924237264 21.598424052223592
Ba 16.445490540367814 16.94462890448214 17.080459864388676
Ba 1.775172800307078 16.349440148893837 18.348758505614857
Ba 16.0750839115726 16.401315365119878 10.710718105760169
Ba 20.502499825095995 16.98612023691587 10.296465255604572
Ba 12.63157146090899 17.92463708589584 17.700037644252266
Ba 9.327107784202001 17.71712007944719 15.070563436244479
Ba 18.24068205481807 18.97764334235614 13.790846811162078
Ba 9.192506490996074 19.340355542441173 19.486549910150256
Ba 0.10263703383148615 17.369961806873313 14.395075323121723
Ba 20.91240864339734 17.36569154132794 21.442848214629823
Ba 16.88951618503323 19.089475568631162 20.482324997721662
Ba 13.702810082762477 18.523247286092936 13.777484997015346
Ba 13.034405395560599 21.29103669719112 20.24696676044613
Ba 20.29056873734879 19.92014241611369 17.670775319483063
Ba 15.748655669877335 21.17389291319946 16.77915515206577
Ba 11.29491027531833 21.613911474013502 16.179637940263067
