35
Energy = -48.22436072 eV
Ba 18.41823118740221 17.419592296229197 10.703985701111808
Ba 19.394382874897236 21.304711193743376 8.93129319226134
Ba 17.368714447743955 13.370812508088623 12.236093165288215
Ba 14.304568809933166 16.669082813185515 12.467689808107714
Ba 15.46560194771471 20.5707119514581 10.869107081109131
Ba 16.299412062798705 9.35924710931968 13.826406342928998
Ba 13.291002614665238 12.61990464665882 14.139687726125873
Ba 0.4891218424000866 18.978993404770797 11.290900671518509
Ba 10.303436248366703 15.92357913361199 14.496525108721116
Ba 11.228123105321844 19.796030237320743 12.838444380240388
Ba 21.374594095833277 15.037094989683368 13.086925950109247
Ba 20.258684686771073 11.120636110117587 14.99739351027346
Ba 7.15046975788281 19.02646047264236 14.589304054720246
Ba 17.94081438037419 16.99100883160414 14.958202371911556
Ba 19.038940667356357 20.822820092241944 13.3076505051336
Ba 18.142498541629994 8.238993784432152 17.288528500129708
Ba 16.823476473246714 12.96901297880058 16.381032615118393
Ba 13.906863799395873 16.270113508946814 16.823663129532996
Ba 10.850715798730185 19.337969715487596 17.10966791283564
Ba 11.069973476692484 13.141225209554415 17.918901239462006
Ba 17.47525589765314 16.817717835895827 19.273200665474945
Ba 0.13875574557719259 18.54288201374713 15.641274366551539
Ba 14.914445884897003 13.612387319414761 20.286767234989583
Ba 14.945062361832404 20.248994324485963 15.227613008934036
Ba 14.307546820472599 10.002615184633603 17.79727391454312
Ba 7.924635277233592 16.307245962191892 18.043958117549863
Ba 20.70582968954838 14.674554176850371 17.579550067171787
Ba 18.702354053708415 11.470660943732089 19.79146697252436
Ba 14.609349550099752 19.78754661417705 19.638601053813
Ba 18.610607031977047 20.509536028192652 17.783041556744127
Ba 11.558932390258605 16.641484914843755 20.5222993762643
Ba 18.356076137409985 19.72001219715118 0.35925068013789935
Ba 21.615431919112623 18.131581671636344 19.986735694361712
Ba 15.182204604405984 16.955339225953036 1.0884247404116414
Ba 19.281058792709448 15.067266554032152 0.49111956766272385
