31
Energy = -42.66370088 eV
Ba 19.119035206571805 20.228285668328223 16.276890273999683
Ba -0.9913432211078107 16.82721144619538 13.761966369924961
Ba 18.696056166200417 18.247613713404196 20.30949807398298
Ba 14.753883191781378 20.836915460798945 14.949785026102782
Ba 17.475191674898635 18.782422180290407 11.986070790522378
Ba -1.0469495401275895 15.589937549632264 17.855381136427592
Ba 15.227397959884996 20.08749779761257 19.214231847988657
Ba 13.57817485464537 17.148564894617344 12.950443149702608
Ba 15.411001083084356 16.029741945926904 9.106215414352958
Ba 19.701455445227662 14.825603353757511 9.88095778965329
Ba 10.336755559450122 20.022963096847207 14.007009281165525
Ba 16.747707777368582 16.95967182292372 16.170696059693846
Ba 20.73449191826167 12.793434299766549 14.678026415605897
Ba 11.336873051297355 0.15217065414713893 17.93971704476334
Ba 15.64853770367223 17.728502426792506 1.6007969430551385
Ba 16.95078611656993 14.300857768720345 12.84732463457325
Ba 16.237039857246142 11.870938905250958 9.24902294004719
Ba 19.545058589706265 10.515426665575534 11.512520515716934
Ba 12.402675214372533 17.793920443254283 16.922416908348055
Ba 18.52375229731306 14.23126864063615 21.486496892413946
Ba 8.384982173299088 18.39038570636194 17.772282263268387
Ba 11.61089984432638 18.37823961544407 21.073606855371672
Ba 21.250681395454304 11.417025828043066 18.95350381322029
Ba 17.42252914105987 12.648227480823882 17.29512957873147
Ba 12.769027556611121 13.179138764497456 11.546944644724528
Ba 19.383779056215783 8.911134704459185 15.658581567721628
Ba 9.755737622868073 15.539319480930752 14.454931829470688
Ba 15.759382008518859 10.36847868228064 13.585143174012314
Ba 14.826466421384783 15.557222912299048 19.7072983276358
Ba 13.519447313572565 13.73985979857166 15.785787392206892
Ba 10.380177804085426 14.651344409023498 18.906031347566408
