32
Energy = -43.28628618 eV
Ba 15.381843840597753 0.6515153227499157 14.26493637287899
Ba 13.370453665768359 0.12602494139477127 18.352961182542668
Ba 11.979613759556917 19.772275685103967 12.809480816759608
Ba 15.545642101040873 19.410548453240903 10.623405092888806
Ba 12.493223376431045 16.459719714807484 9.389881001620122
Ba 17.790508308498257 21.06176383723661 17.922070186961232
Ba 17.957017655557955 18.447293080134102 14.049134713674684
Ba 14.41840864981512 12.461486882209952 9.807700070027922
Ba 14.259708418630467 18.607800418898037 15.984649323428775
Ba 10.183752841362145 18.84031386776254 16.71900410330586
Ba 17.726586903833837 15.500272296656838 10.41082870718228
Ba 19.66818264163544 18.55872102283449 -0.05054869972193637
Ba 10.150311743801812 15.948457990876335 13.273875425716836
Ba 10.317104358115191 12.917564188213886 10.22187781213274
Ba 20.384710066047347 17.36463298780604 17.433415461937212
Ba 15.683561684203967 20.52761381927419 0.40810784171823206
Ba 14.464440317224323 15.849213519756587 12.885679381290124
Ba 12.478538628362351 12.298066349481092 13.662070895902986
Ba 12.525879408650301 14.994339325420672 17.01504833885995
Ba 12.457286451877355 17.79970967550341 20.393081506320982
Ba 16.382908579888536 17.518935474092284 19.21590971555631
Ba 20.580361056964023 14.73906160050074 13.947106259036078
Ba 14.273158958023632 8.71925029090074 12.505729995702023
Ba 1.3494789421798874 13.892493176351364 17.816725959128274
Ba 17.144992151361183 11.888826610381177 13.106075059354849
Ba 16.904872264309486 14.741203415827782 16.335071676089473
Ba 14.94052991829375 10.971944861065603 16.80714570155826
Ba 14.992427567591905 13.69891776440518 20.39981955996456
Ba 19.287234578131244 14.187715353100085 20.080107271833946
Ba 17.511297896251428 7.889861100774951 15.59764779595884
Ba 19.658759248477413 11.449786152772122 16.607346981046746
Ba 17.687725967384438 10.06918720790954 19.915706191253012
