39
Energy = -55.13880576 eV
Ba 17.066933165834854 11.069657985765707 21.169157101490704
Ba 15.695364688900128 10.807728143851945 16.67466475337886
Ba 19.861578643120748 10.076665324752662 17.992667829638915
Ba 11.357136913171141 13.106139113199891 15.915034899728887
Ba 15.30009233458479 14.87458826325127 15.42943145772517
Ba 19.22538714801965 12.990760358468684 14.119809157808078
Ba 22.516285943397502 13.275706831168092 17.19596851297864
Ba 20.91187830700184 13.62930639484806 21.38424023241261
Ba 11.878643350308565 16.72935464114645 13.213319058142563
Ba 19.0930201309625 17.172045098157394 14.860672346710125
Ba 13.967578641970231 13.74668128018301 19.401612083487784
Ba 8.115784370809234 16.806689058228688 15.883670263752721
Ba 12.154514701825189 17.05020995086489 17.438650638511543
Ba 20.438395583928788 16.5244833602138 10.944762625464817
Ba 18.24455875142168 13.964401168546386 18.286190153476785
Ba 23.12393723558899 16.285173402814504 14.459029142582477
Ba 9.460540519911158 14.795370653938209 19.699474997417376
Ba 2.4352851435603164 16.287835751577425 17.823628315968865
Ba 16.068557721602733 16.534822713758356 11.585446832984815
Ba 9.17860422373028 19.260328717973746 19.36587141105489
Ba 15.195995736369932 18.986441338236176 15.15573166748578
Ba 16.806015557389284 15.35029820972438 22.291613261384512
Ba 3.3749968982067027 18.41209643219859 13.892453467197933
Ba 12.743115366920264 17.29814887524453 21.579387328441342
Ba 21.348725317110674 17.17196507255048 18.528167569137473
Ba 22.411786998749445 19.98157647038564 12.742880963537525
Ba 16.859488039270865 18.097426562524507 18.997446930515675
Ba 13.62483248003328 20.598903509495347 11.636566099614269
Ba 17.967506748438055 20.441995834774467 12.163744187126884
Ba 11.048345425489401 20.60415166093648 15.306006907928326
Ba 15.972722466324207 19.913983258859076 22.882612662277655
Ba 0.39999393176981496 20.032653567347896 16.757957289647184
Ba 15.370144085298378 22.950224609481335 15.333750213048718
Ba 13.446202102221452 20.908927626499903 19.014499093350103
Ba 19.941402534068438 18.23083097735333 22.412213472773114
Ba 19.582994885974266 21.112459467432828 16.233400652848292
Ba 17.428559785840836 22.525400856414645 19.684261421856167
Ba 21.538835406881685 21.404856634293058 20.114586644689854
Ba 19.424651589704922 22.46659174331925 0.25095774538993343
