37
Energy = -50.88905124 eV
Ba 16.978321047320243 12.655140750072627 12.62251848073606
Ba 17.730219624354625 8.991946704951207 14.987396564394341
Ba 16.222075275114424 16.10202565405162 9.964876386824223
Ba 20.2435755340295 12.564727378506015 15.78790806650628
Ba 15.606680274011325 19.317162245336032 7.0726552470367094
Ba 12.156670281090209 17.126717763845352 8.913706971928061
Ba 19.553531505211275 16.309423678990015 13.150495559866057
Ba 18.686171902936607 19.568838048637236 10.33575300669151
Ba 14.48454946311726 19.826460349050155 11.298937182657735
Ba 18.081064827990545 10.448289984486076 19.304264165105575
Ba 0.29078946423529106 16.3339317735661 16.417957290132176
Ba 21.929533597164475 19.99466034426316 13.730337274198606
Ba 15.133973382039663 16.4945743199427 14.053706141842465
Ba 12.791169137379784 13.786623462442606 11.776241689461038
Ba 1.6595822358161807 20.79788271773106 17.564808792270828
Ba 18.15031601936314 16.12468938973631 17.101258349165903
Ba 20.372627045742608 19.273921584537007 17.581423258144014
Ba 13.405938083765175 10.282740895305947 14.599542537559584
Ba 16.009235078863913 12.69118764238023 16.611942246689775
Ba 11.114990835948392 17.613222507452114 13.265564436926654
Ba 0.291822588342495 17.889663824476077 20.602993548202925
Ba 14.985970666895103 7.907366218528411 17.76534309985871
Ba 13.318672320917365 20.682663277735376 15.555478054403011
Ba 20.549942157942983 14.206366185114849 19.877330228253065
Ba 17.550818872335796 20.008581827471144 14.57294531122639
Ba 12.074985139949076 14.346918385688536 16.225440557400447
Ba 20.896817125953127 21.936543572519398 20.660299498727017
Ba 14.420446400462078 17.58691645189581 18.250503147101455
Ba 13.126333307251082 11.245966399859315 19.27053294928612
Ba 18.47392473421191 17.993354405768194 21.130786273077685
Ba 16.038517700117197 14.323549743479214 20.616985440352604
Ba 10.243827716633497 18.194536770119306 17.67703792968469
Ba 12.361935676041819 21.26431410954611 19.871627296218687
Ba 11.633955322637647 15.200830637741708 20.621438417420315
Ba 16.67344993920632 21.1408346852299 18.834953993510222
Ba 14.212880629141948 18.323612841237235 22.357300223827597
Ba 9.752407024698726 18.720621344108856 22.095866095672488
