38
Energy = -53.52340301 eV
Ba 12.51667006619029 20.90728594125082 22.549895387291894
Ba 16.323708932474126 21.91450875539436 20.336827253267646
Ba 19.67479762516143 21.572860724774042 17.41208806536002
Ba 12.724964431659473 20.571932800008263 18.107862106698004
Ba 15.185830049031273 17.707175274337512 21.509412609480194
Ba 0.031177082124483068 20.398652921445958 14.367818267340267
Ba 11.969641019321635 17.028523386568022 1.6245978183919687
Ba 19.604146365646173 18.425468968583736 20.68029822187619
Ba 15.554637403049778 22.536395128132966 15.576404301205997
Ba 0.5873453012615498 19.62104995588174 18.718051889740995
Ba 18.512200690875723 19.725474325577018 13.598657385235823
Ba 16.75604812857731 18.612961675293207 17.63439775987733
Ba 18.071041830536295 14.239296637557892 21.964535009198652
Ba 11.374628750046517 21.143993639131892 13.636513941294496
Ba 20.789670084441227 17.54631385419074 16.399488190437502
Ba 13.257191559837025 13.799639305344021 21.872442438693156
Ba 22.39243416676443 15.130392317768548 19.511841761554532
Ba 11.185266751005809 17.31385476014443 20.192735984154506
Ba 14.963136510482332 21.34878020455684 11.124425108326797
Ba 10.971059217654688 17.289978221583223 15.787862768615074
Ba 18.472962591472978 14.599220947020378 18.113457120641076
Ba 1.7820513305484023 16.513068511733167 15.627678896499134
Ba 14.596982053792871 18.52555857240348 14.261859865550084
Ba 12.44673182729225 17.472788372295767 10.965170790313783
Ba 16.968772075955656 17.040809202911113 10.524313135339137
Ba 14.35219607733406 15.110690523180324 17.80053594425904
Ba 21.523015456346847 13.513846338066323 15.309594260838113
Ba 21.25048312359843 16.545378976515643 12.28941129702204
Ba 16.024721836462376 11.35113010959399 19.438357714402393
Ba 20.455789787011312 11.155170657176972 19.20597638975843
Ba 10.690461539116777 13.386681839438477 17.831844113766174
Ba 12.894908679598428 14.057892927173212 13.654675950903034
Ba 18.04898439982921 10.991083394646584 15.33955880303311
Ba 14.591400629454414 13.728804950469602 9.667663996917412
Ba 17.04829247078689 14.945581904891508 14.033676278562526
Ba 13.67768059850284 10.632765081840331 16.13838283645041
Ba 18.899112004851123 12.618871795774961 11.230935430782456
Ba 15.15720270389272 10.510986273062805 12.17637565426716
