38
Energy = -52.3930747 eV
Ba 1.8547887991629095 15.425616077641799 14.00145188032938
Ba 16.890944003176532 10.006211253690863 20.445240926758594
Ba 18.661582431469807 11.74668264984628 16.423532526401367
Ba 2.21217866746771 19.784858748325313 13.497744886355768
Ba 20.75061193609338 12.010636445166531 20.37768548958395
Ba 20.805757742401987 13.539573557338315 12.990415248934191
Ba 21.95204586576209 14.444474794581916 16.934916258667055
Ba 21.530441167898275 17.866250675602654 13.95810812013106
Ba 0.5416685610657895 18.319017041998986 17.376324851834063
Ba 14.6802222127107 9.892269479762941 16.394628562628327
Ba 16.56521468083417 11.83009515524723 12.517309381207323
Ba 13.34365555324614 12.429891782215398 19.665774728391956
Ba 18.090216929986017 13.861476495853687 0.24002987501514306
Ba 17.46722141346412 16.188493189522028 12.551286642957947
Ba 17.129044280179297 14.199464917833629 19.58456970630156
Ba 22.12126038715672 22.030662373991905 15.30402140079241
Ba 18.3337237413085 16.873258055585833 16.699610311767803
Ba 20.936248393931375 16.36418436441719 20.58571324213769
Ba 12.334028786210604 10.730728123086255 12.755958980280923
Ba 15.028058979772563 14.110989693227152 15.661051622349083
Ba 20.041446205599204 20.249584294535815 18.58446003722492
Ba 18.162099629297614 20.528963952296408 14.200102078175618
Ba 8.817448157061696 13.552746746280729 12.393967375297553
Ba 14.038205386321296 15.507821763407797 22.618668079987614
Ba 11.087806312649612 12.966625949913393 16.05095393544186
Ba 13.01772461069451 14.842825913770593 12.13931584869258
Ba 15.77361916810782 20.449355337783473 17.87764686159991
Ba 17.079571112308827 18.128917098013137 21.23209820819909
Ba 18.027312181873036 0.8355241146326474 17.011291506066204
Ba 13.410716577113162 16.747754868746412 18.46228923213313
Ba 14.288921642833088 18.400252942530386 14.487553991162732
Ba 17.189570903166963 22.89585951487246 21.17743784582581
Ba 13.280655148563461 20.250783358976932 21.3535694336991
Ba 10.286544098737158 16.9176353941346 14.915340603420097
Ba 14.38682234216913 22.985102335990327 14.648141490375094
Ba 11.552158667086752 20.675546109041907 17.184875554040072
Ba 16.665003219749064 4.343875052845975 19.458108011226123
Ba 13.87513538317982 0.9609228848432966 18.81869171377278
