32
Energy = -43.70111551 eV
Ba 11.153577777944845 13.886549478032194 20.54155518315866
Ba 15.654401667205049 9.713429325008944 16.028369721789108
Ba 9.844983175650597 17.87627179244166 20.54597410369944
Ba 10.908629859472171 16.13480223313566 16.778553617675847
Ba 13.875935169863192 16.793372946872896 -0.015180197478859481
Ba 12.305867205704308 11.979181476073045 16.77322220494963
Ba 9.379843519174791 20.085812945591236 16.70745582781345
Ba 14.817592018394755 11.43911279431427 20.340270920143844
Ba 14.86733372237579 15.138322463835975 18.440122934028352
Ba 11.18253110540607 18.474353895470404 12.589365981179826
Ba 15.990664173933984 13.68648650993232 14.643307428468736
Ba 12.105140520585627 14.01711299304316 13.068434709467798
Ba 13.35829775805874 19.47499543394315 18.59136846158169
Ba 12.804196773613832 21.833753279012235 14.954892019334379
Ba 17.72713742501393 14.590169588466809 21.72932788236518
Ba 14.440796573531705 17.662171660530824 14.818619975089725
Ba 18.537453142583686 12.46362687439446 18.027153952156482
Ba 17.55631626970872 18.437275565926218 19.761016953310765
Ba 19.270499671528608 10.547773959009064 14.080156177582548
Ba 15.104652808202033 15.971072310039172 10.814544944778458
Ba 17.044523139595043 20.706455364439417 16.010716813981347
Ba 15.495408767266998 11.256488144854483 11.58880847211556
Ba 18.67336191839463 16.363904978796874 16.344882694507877
Ba 15.32105929240071 -1.522485654706609 11.740191408500444
Ba 18.25292011351548 18.00591751236207 12.862071087017407
Ba 21.383146487394047 15.88034390195302 19.493879752479742
Ba 19.28737866486638 14.144775960006253 11.917748596597919
Ba -0.22721688746909716 13.981849994917576 15.504236157423241
Ba 21.232617495692082 19.51483752119408 16.83795190864158
Ba 20.13392096057741 21.64382842870922 13.003776842483575
Ba 0.1265329334084506 17.54046070265906 13.211914259554472
Ba 2.7417108413638127 17.008745157906606 16.783547142033154
