31
Energy = -42.13900923 eV
Ba 14.793759177935708 17.22931781133732 8.38911024333982
Ba 13.31518479940553 13.184143978244705 9.7276180255638
Ba 17.706705134036934 13.922919144828214 9.30113665662513
Ba 16.171570058418215 11.669883948892897 13.109490426071703
Ba 11.354543583099964 17.00543411652108 11.363305994325124
Ba 12.231824191769757 13.41654035047102 14.076863006444345
Ba 18.629434394154085 18.05216381001259 10.657388826420444
Ba 13.02728208891657 17.49317434136974 15.2658971906408
Ba 15.386391624882071 15.782903424641454 12.248184744493354
Ba 0.2145448397325676 17.7489894953143 13.502212550941248
Ba 10.604450000864684 20.663722913124307 14.135697117925066
Ba 19.331287476165123 14.649790842552216 13.354841881642129
Ba 14.461150495921977 11.21124478917567 17.425246695550943
Ba 11.597706762346053 14.575593139387792 18.26395184920375
Ba 14.570667254795971 20.010007391371705 12.059523706218236
Ba 10.853301164208862 19.282482816742466 18.514518334966663
Ba 14.409733623141234 21.218773896141066 16.618595797267826
Ba 17.629789378972998 18.54602350408621 15.000767298582886
Ba 16.024959668359404 14.810611477698535 16.433177296977746
Ba 18.96871088431659 11.952706612235728 16.794149479662824
Ba 14.684188249426589 17.685637016495253 19.08233078504895
Ba 1.1016261788460182 13.369622980576784 15.417079773228009
Ba 12.38267372205744 10.509908479786123 21.02441422863946
Ba 20.508033371579607 16.30429592094505 17.19832542089627
Ba 17.24054260506694 11.191917101957008 20.71328517329185
Ba 14.138323347403503 21.35838243194254 21.01448948868219
Ba 14.292698820765045 14.17237835848897 -0.4729290271077623
Ba 18.15669242907046 19.731605716236597 19.333729498614346
Ba 21.689777076431525 12.965169800435834 19.874241344247256
Ba 18.11391719465979 15.321339889573368 20.245846566777193
Ba 16.057503223860827 17.979553015001596 1.1360565434935346
