34
Energy = -46.04127687 eV
Ba 19.918906893979152 21.814227208291275 16.03480054602711
Ba 17.0412403747883 19.577374556703607 19.104879309886684
Ba 1.6392946111811133 19.642532457678957 14.68563824957226
Ba 17.434858624274742 0.7907529812047036 12.474854768434408
Ba 14.871987550839648 17.017065471186427 21.8424831321568
Ba 21.382359625682717 13.165874951246119 17.0069572177921
Ba 12.80216270295513 19.875450773955166 17.390657380140162
Ba 17.875934200931113 14.652523376971244 19.187846111460875
Ba 16.5447374621579 19.475089358425162 15.050502651995597
Ba 19.856860037100233 18.988237142208177 12.549191557004205
Ba 15.70217562309132 1.3589356395934276 16.528496050645575
Ba 15.42041239062653 12.870718553160183 0.666895035124306
Ba 11.961075466424187 15.323684666471074 2.5396088719139827
Ba 20.273470754589518 17.544571569924575 16.806747642612187
Ba 14.322183000022674 16.04459977041883 17.865108960791027
Ba 0.34265447722536885 15.645674665285286 13.44457367973594
Ba 10.844096708624743 17.822551253379753 20.757859649090108
Ba 18.694721916921708 10.51541099910832 20.07314845990552
Ba 17.743742352124446 11.266859176491472 15.923135781435352
Ba 13.155264607436639 21.39597632245132 13.120696134027423
Ba 20.55284874418779 11.90372897782074 12.823229764333247
Ba 14.717278584755427 11.592565897438115 18.615681169700814
Ba 10.344925360571702 15.777285397979385 16.58036008684372
Ba 17.5466581857477 15.228195620626117 14.338683317198424
Ba 11.673630465023207 13.769109161207519 20.447029371111885
Ba 13.415461132757004 17.222534828037045 13.914957804943281
Ba 15.843938229741692 18.68354486335718 10.805152147365588
Ba 14.182970331158515 8.860914740211468 15.208759056910438
Ba 11.29372602891337 18.122175111485983 10.49120896063678
Ba 18.726255271889176 15.048278098543499 10.356240871971432
Ba 10.681231849800746 11.153878501493274 16.992920760713677
Ba 14.20582370446362 14.705008199005594 10.686407615584303
Ba 13.714671021712606 13.04057200175402 14.774334460253339
Ba 16.426793843447204 11.227559674715799 11.857263436219487
