41
Energy = -57.58098645 eV
Ba 12.40638866266595 21.99030553737099 15.038575667923576
Ba 11.400807295086265 14.486077767157358 12.107815257557696
Ba 12.834857256349691 10.801986515161214 10.812544056757261
Ba 13.743181285715956 18.14746612915409 12.268460084015576
Ba 9.875050051505072 18.49833277057168 13.629214100697938
Ba 15.385826355226744 14.06595371333667 10.194189331608122
Ba 17.722817908946297 17.442965988399305 11.275406517417345
Ba 16.689330619632475 20.90305324375831 13.955141687688172
Ba 21.252184194650972 19.058861262180297 12.989725721915416
Ba 16.01834017527667 0.649740484817033 17.31408024506881
Ba 12.734192109517998 11.130180373066311 15.03129454519024
Ba 13.885999749166636 18.49703858905206 16.46924511955702
Ba 11.130378728559508 15.386126613940029 16.269907693689195
Ba 9.666452958103958 19.40583022557288 17.74011029427019
Ba 19.49073172626713 14.03681365977638 13.299471593596568
Ba 15.253412879606469 14.710056299992917 14.485522784118604
Ba 16.456161118124143 10.745363425871014 12.73509610075315
Ba 0.2164895953109571 15.969472470140033 15.430612335164533
Ba 18.444391078315952 17.54572136741129 15.51492116631408
Ba 20.35112235368507 21.81001944887747 16.281897278283644
Ba 1.2602172792204733 20.32874960457426 15.636979709194854
Ba 17.3470761891663 20.09993613376634 18.77124512667788
Ba 19.9602641866865 14.500358353820216 17.56546674367573
Ba 19.837491358484538 1.017215120299755 19.69091193584144
Ba 0.49046486761319263 21.769640579170368 19.782691642335532
Ba 21.66438629590001 18.31972317397195 18.506543478258948
Ba 13.188324810555507 21.199434948937487 19.590447155265487
Ba 16.89583613160239 11.655242056495643 17.061411985208114
Ba 16.20888808887396 15.727901545836865 18.831296772615005
Ba 16.33599125020767 23.08191656871483 21.882274028023293
Ba 12.352665888967092 16.905986952739312 20.331814083077543
Ba 2.8323107816737783 17.870174015543707 18.790034501508078
Ba 0.1447620488112361 14.413372501908068 19.992598553382226
Ba 19.94544186588032 20.580186841535742 22.023695018419126
Ba 13.12735679755513 12.894679794050308 18.956810206371433
Ba 0.40699313119282643 18.085712138778085 22.437207453678646
Ba 15.779127916096792 18.573433390162247 22.434199098509485
Ba 19.004699763292013 12.039516232470062 20.84045038573522
Ba 19.49278285397823 16.254167554128074 21.61855074627853
Ba 15.418360428418728 13.889756377370306 22.46953087647718
Ba 15.31704590453221 9.763626763923114 20.661890221200306
