40
Energy = -56.38143961 eV
Ba 17.106953976942332 3.2766083255708756 16.03927710458629
Ba 12.903215053955963 1.0042604492289462 16.294089940602028
Ba 15.532475646405949 1.9269310160599342 19.899913134362052
Ba 15.789037178371718 0.3195476378345179 12.934732503298454
Ba 9.659639251407262 21.601578775514913 16.701304347492126
Ba 13.463604517671754 20.865214684035358 14.835304880720054
Ba 20.047363501174047 23.885021663525915 14.480021013419035
Ba 13.262608573234203 21.712256165821504 19.200731386615868
Ba 19.79707335126355 1.0015547333837842 19.01307309453373
Ba 16.691213926844203 23.07912357483673 16.87881621911776
Ba 17.320106097839073 21.62081690823903 20.914012022043764
Ba 12.181485798030664 17.548144322874005 17.55699257800925
Ba 17.570753933633263 20.218502828128475 13.685287215717972
Ba 16.189042427300237 18.92145535426842 17.59184641186395
Ba 19.11850621776057 17.421448890828035 20.151962273949323
Ba 21.629532124747218 19.609966862763827 13.18744334100077
Ba 21.40287555446396 20.997209018964558 21.910037374154598
Ba 15.027802850071692 16.49815298935515 14.188297907792471
Ba 14.778410023213064 17.984988919416327 21.490012160905128
Ba 20.44801880017638 20.569887682679454 17.49721072934204
Ba 19.2498563766956 16.614294850164303 15.5660230993375
Ba 18.93182136046325 16.304042823972367 11.58497732842409
Ba 23.29703501976479 17.485420271451524 20.341945948983142
Ba 18.628293786677258 18.188097183932033 0.1143665647248064
Ba 13.176878723248697 12.56839778726389 16.16453622080274
Ba 23.447457127573426 16.114822341178176 11.609375009455443
Ba 23.361825960232586 16.831450144477852 15.981480216744858
Ba 22.931704060489754 18.02822807326316 0.6116387745740443
Ba 16.598261705598155 14.348487175407547 17.953496568833657
Ba 12.9149758154863 14.261296332063903 20.29565869769007
Ba 17.00633476672872 12.582256328596241 13.880468729888664
Ba 21.106302830848353 13.872336243238957 18.544202750157467
Ba 21.24919254206871 13.332601216083544 14.09748981964655
Ba 21.09575968673504 14.56642430354592 22.90168989409908
Ba 16.850820435632997 14.180752144107265 22.156142840360644
Ba 15.515115373320631 8.423748786490872 15.562722006202822
Ba 19.06614403990984 10.414964821963903 16.848852649120516
Ba 19.284496784939133 10.789743623926132 21.07964402105068
Ba 15.39570972089004 10.478952121235377 19.385297794032304
Ba 17.68484856423602 6.572177380166885 19.1402923984095
