48
Energy = -69.32525987 eV
Ba 16.807150701836722 8.939741476876167 17.04031417498119
Ba 20.25803953525914 11.604541747042141 15.963402979652448
Ba 21.15172282317561 12.555014719250428 11.553160389805162
Ba 17.063030321844963 10.876030797902043 12.986053012614526
Ba 17.29117928501089 14.452448265824883 9.865941987633313
Ba 18.48247766893832 14.779556655573062 13.619448828319545
Ba 12.8443720199678 11.04380394116273 16.956189085394673
Ba 13.605778274768046 13.555836360797018 13.076011815973606
Ba 21.24951177173226 17.137470440192846 11.484753359020036
Ba 22.496104240841365 15.227822250030847 15.172163106243996
Ba 14.65492160557521 10.00888696118679 20.70197939959622
Ba 18.50267654768908 11.869459668899898 20.032224133380023
Ba 17.3410830082672 18.647381267635584 11.559425258510775
Ba 16.24659949201227 13.289218892828787 16.617960382296552
Ba 13.691995121912258 17.030891488370308 10.26743798452476
Ba 19.07614740571738 18.256414692995506 15.337990937472298
Ba 14.85438155426942 17.07146479149026 14.725561107327579
Ba 16.03658876520962 12.904269418831019 0.09680348806059016
Ba 22.87953319383265 13.34559574043339 19.272091944981177
Ba 1.866949578272233 17.017616041927262 17.835992403294952
Ba 14.627703905618754 14.17411369008769 20.316122787292773
Ba 22.87595029551705 19.853522402793427 15.30532085371012
Ba 11.955015704119011 15.336812308618194 17.234356191887944
Ba 11.02051933711887 12.526158709849783 20.93992339533032
Ba 0.4058194021079224 16.883450084183128 22.022459639301236
Ba 20.035911805122602 15.025006775448382 22.347128855855313
Ba 21.61046469413433 17.185479526101567 18.774622209602615
Ba 15.600100525485846 20.371628168626955 16.98308838613782
Ba 12.455847629748737 15.779105457773406 -0.15650354164168406
Ba 18.23965741559225 22.426330561724924 14.218578636132884
Ba 10.835929297344121 17.277416647263237 13.336246582089263
Ba 13.830497013939553 20.84171615368684 12.96995672082198
Ba 17.50367449543221 16.912407903379382 19.08676471783448
Ba 13.414899511475006 18.316767455183115 20.18540590334369
Ba 11.44409556849247 20.09994065467987 16.586715122304927
Ba -0.02548359281965055 20.895443110862008 19.67169637849285
Ba 16.46873421010006 17.327788402516756 -0.4888442869305476
Ba 19.827223680566938 20.71260407365895 18.380293274395928
Ba 20.466887719662026 19.415142242795383 22.36305150279977
Ba 14.246807894086656 0.6961772099826491 15.880184347594023
Ba 13.368866171640043 20.54322978476171 0.18213261089660246
Ba 21.502977361134302 0.43536577602190873 16.82379231778285
Ba 13.148899523641376 22.785305381526225 19.782980476280695
Ba 18.05889582262562 3.681485566562754 17.06408151079672
Ba 16.70964441382846 21.222057171741206 21.30817919704273
Ba 20.223582280473572 0.3395545144012553 21.060053832141516
Ba 17.420072391164187 -0.042687697721812995 18.13000474314421
Ba 15.948864036765412 2.2783177135524704 20.930743840106587
