46
Energy = -67.93917597 eV
Ba 22.12943525310513 19.796155388037253 18.34048151381259
Ba -1.2670375205731517 15.309752733999298 18.291781340908173
Ba 18.506004586596205 20.783286826876395 21.501477195631995
Ba 21.398174486638876 17.505629359827967 22.36214951247202
Ba 0.08147507404084081 17.60258937171595 14.63525754778395
Ba 22.37478357340687 22.171323488095933 14.68428400797431
Ba 22.05502891553216 19.906097478126 10.884516325710814
Ba 18.797828441935884 19.33229713595591 2.5817336728940306
Ba 18.23250811595535 22.70810863988724 12.988662964029245
Ba 19.53749683509675 15.021210813351505 2.6976516993108692
Ba 14.740561808470664 22.62074154062497 19.821459104318055
Ba 18.5493712793265 22.18044855992986 17.352749115290393
Ba 19.959620400419396 13.333996738446512 21.801597118387043
Ba 18.60393281621156 17.686649450388185 18.561351055104968
Ba 20.150480531660694 15.81116444768608 11.298647991772405
Ba 17.951225806667857 19.53661667134147 10.257122552015485
Ba 14.778830407851911 0.44305454719220416 15.51198531670676
Ba 22.498516649425753 13.368816388762108 14.29489213533087
Ba 14.780592482920877 20.088095058367788 0.5147188764123641
Ba 19.680351521123946 18.997628311929766 14.376525265735172
Ba 17.312037071872574 16.809304499585597 22.850497021953828
Ba 18.9317063130833 17.227205951774746 6.77379229766293
Ba 15.544046240515199 16.483455471195075 3.6455756516276794
Ba 16.608453882239484 14.18498253214402 19.66884023781409
Ba 14.677770155704309 18.561983196540286 19.704839435785427
Ba 18.54340764693256 14.914071023129557 15.325402365379624
Ba 16.63582487481866 14.14187834463715 9.00675439527812
Ba 15.93354437322018 12.89412404942678 0.5108549398501322
Ba 11.12009926285966 20.10449336046885 21.287339650261057
Ba 14.560512777120742 17.92829437199391 8.240151684531225
Ba 13.042953339329435 16.06281470051948 22.576916026713477
Ba 19.800358455683703 11.602713083206943 17.576811431083524
Ba 15.78080869201269 19.611519269178235 15.552994380521111
Ba 12.023459838267597 20.582187728744962 16.889716652815217
Ba 14.538533847437058 15.638371787304996 16.5181228781955
Ba 15.833778308959122 16.80783569025444 12.293246849384971
Ba 16.83445975649007 10.054486969234848 20.60366284758202
Ba 18.82850592498389 11.546430346444671 12.822009128183353
Ba 13.992653849865533 20.84895112292475 11.988622838317893
Ba 10.99361674592778 16.50745628544264 18.465973147673942
Ba 12.848164009854575 12.555366765105372 19.729587595732273
Ba 12.179393160128386 14.876236981347631 10.430618394040904
Ba 15.646903380504787 11.327800943158959 16.509071020810207
Ba 11.870334440970499 17.40085881291256 13.916527239058702
Ba 14.89647155407213 12.986180990639333 12.851485077182943
Ba 11.399304697396165 13.163611047390104 15.180022564524872
