41
Energy = -58.09479908 eV
Ba 12.142278198745933 12.02814221134193 17.267278332090985
Ba 15.427149823929394 11.611765872036164 20.161600667425027
Ba 16.174756338364613 11.539216153729095 15.467926702156388
Ba 10.822521264182475 16.028767687861766 16.728929729561266
Ba 13.732760373639554 14.662068936217265 13.68141136797804
Ba 19.78686368697229 11.935891662630754 22.140982348136873
Ba 12.310172546957354 15.237832554727348 20.81535074351494
Ba 18.85244459606529 13.422378833441568 18.222839383018304
Ba 20.471809537379166 11.907294834617964 14.411735869915884
Ba 17.04529649146 15.406740053098181 21.639490810303553
Ba 17.127500432553607 13.582002624775612 11.217429105476812
Ba 13.914776339295914 16.797266090017406 9.984058804592168
Ba 10.820487348648987 17.95552423916061 12.892909970026585
Ba 14.981774027803281 15.133794464263033 17.813062118176212
Ba 7.726012383728289 18.949690639521034 15.940788978669381
Ba 20.449755921751173 15.600233822389457 1.0826596342540737
Ba 21.332086334729087 15.641056773561173 20.54926349995405
Ba 10.982804140808483 19.555632008185043 18.822954151276196
Ba 22.88875951034397 12.020743660739855 18.803520306792617
Ba 18.035022467556747 15.504948103836323 14.77346193932326
Ba 0.3828612343406213 13.563011517719602 22.959238623319898
Ba 14.2709924846077 18.69659280716974 15.594448175871056
Ba 14.990302850207314 19.00016277348811 20.278179177610422
Ba 10.96871201703552 21.75118292489146 15.00380678291385
Ba 21.071801166753684 15.579914317386642 11.82070623946906
Ba 1.804456106044168 15.769140185404941 19.41031780344009
Ba 22.15399074031186 15.533640167568588 16.247296899258515
Ba 17.329409729378376 18.209702980992756 11.969022565031223
Ba 18.46612813089633 18.19271619366844 17.862153068974987
Ba 19.383619680232876 19.112206526204268 22.11832600611947
Ba 13.954885469827705 20.901289683004055 11.855431022341744
Ba 14.162106120303187 22.583373684968834 17.813360677513728
Ba 0.07133566720225347 18.29530594698287 22.810654452591802
Ba 22.553892689751052 19.286137692725053 18.617560172731327
Ba 20.84555675105068 19.215845810525185 14.378495683825726
Ba 17.31368093584152 21.667097479551085 15.014443608116471
Ba 18.07754056556243 22.165523625453417 19.493541988278324
Ba 14.127333668026894 1.0536055731135336 14.079226611946673
Ba 22.063577982978604 22.506014023909394 21.31098362110852
Ba 21.141790855361812 22.940591217037515 16.85864340209178
Ba 17.48906557264086 1.9710767312809865 16.906484040393394
