40
Energy = -55.85664952 eV
Ba 2.795265571458447 17.557659419176506 16.05401109965327
Ba -0.7135461916917355 17.72986303016682 18.491609758607854
Ba 23.249856484307124 13.97320384866322 16.460940868788583
Ba 23.132388729523555 20.998953461200724 15.997990734797721
Ba 22.435748212368384 21.589184359344138 20.53521708602361
Ba 22.42022466915387 17.300003300838018 13.84224532896322
Ba 20.008709524465143 14.135245098351856 19.516342548849583
Ba 20.227731825501177 10.617394251605614 16.958886540259233
Ba 18.899430282934205 17.406362114876014 16.588126937349752
Ba 19.485643779683752 18.26947989627391 21.134982918397704
Ba 19.78061426228237 13.666660682760806 13.799813815240192
Ba 16.694829507071134 11.281432408573053 19.437375085490924
Ba 19.40591909596056 20.445323991169584 13.376781148577521
Ba 18.00146211170675 22.275975603785678 22.065942090782325
Ba 19.039958378494678 16.863407385476197 10.828487324148982
Ba 19.226696476703584 21.564121669546516 17.81150349153872
Ba 17.42175426005779 7.146770554413194 18.056514750314822
Ba 16.240047444035046 15.862668206497458 19.8851137279361
Ba 16.53085554967489 13.792975901805928 16.276751870689008
Ba 16.562972149303196 9.986122205419198 14.852070527094016
Ba 15.677131201793946 13.748722197672022 -0.23585241077161473
Ba 13.484741262685944 9.232538783035647 17.761681207761484
Ba 15.929467346716013 17.105669768700395 13.40680321350429
Ba 15.729545446371151 19.824139123594563 19.495342988920306
Ba 15.890884317625586 18.252403642504014 0.08442783308570066
Ba 15.513369339356823 20.44990115317708 10.943194969729385
Ba 15.806981900483297 13.21591964022087 11.884428761009593
Ba 15.581199488975264 20.917399945337134 15.467962096591846
Ba 14.905180418129413 16.562420646710844 9.160872788265753
Ba 15.236788716845645 0.4822442684003903 18.852668814956566
Ba 9.825968631270593 16.30874457662142 16.686845948967903
Ba 12.829655586046103 13.348579994947647 19.411281426516744
Ba 13.758004264796954 17.039244511515154 16.773429941601957
Ba 13.349748055281808 21.744836708581033 22.28632227117748
Ba 12.731662777491994 12.755517237872166 15.18905703813954
Ba 12.377053584218311 17.382647460717642 20.97008842294165
Ba 11.811338836444941 19.682562596365393 13.795388279399324
Ba 11.93829189480945 15.786213713444841 12.375664612189368
Ba 11.815346827131284 20.718490385889467 18.085549909860774
Ba 11.724723277599153 19.09831505978625 9.678864449339624
