40
Energy = -56.26017005 eV
Ba 18.840734072544784 11.978753102950101 2.18281776177644
Ba 20.82106026037319 13.06530281845896 21.490676968142726
Ba 18.087184316793305 15.749671304155347 0.16872696737294998
Ba 16.642149481351186 11.922851266111982 21.605564599825303
Ba 0.05869977240697495 13.977128118406146 17.79738835361563
Ba 14.740160663727995 13.735896487030498 1.8635789819948134
Ba 0.8967349601536759 15.271536752798916 13.756747167689173
Ba 20.78739592391755 17.00095963466206 19.778000542766105
Ba 19.065499855323697 12.296539253163807 17.63368137037693
Ba 17.630156076794215 19.65397289640097 21.227132686409686
Ba 0.0912419872199068 18.663404312674313 16.562335707637004
Ba 16.878741219118446 15.490936113350042 19.396619672320355
Ba 21.562312500238576 11.895378940634085 14.169597442498013
Ba 21.0467727842292 21.47794104576095 19.277739744787795
Ba 14.346604030142169 17.907798147426046 0.10662453476064229
Ba 18.575711711864248 0.4646690444820277 22.370817982400183
Ba 14.663053474898371 11.777828859229395 17.45634881027373
Ba 20.266158871340807 15.97164201996645 15.530327264839604
Ba 13.078254731608697 14.392881258284397 20.991767418406877
Ba 21.903688132956685 18.696585510421755 12.221201820346044
Ba 17.82409335482415 18.517461739715063 13.107688804958244
Ba 14.397120976447157 22.23192473938929 21.439420855777218
Ba 17.715203375880964 19.231429283298755 17.11834744029806
Ba 20.309812759340485 21.68988798066841 14.921157620211918
Ba 17.26289578209756 -0.03995374796286346 18.19413277611553
Ba 12.096868675610716 15.2473315694732 16.699360975469283
Ba 19.68222317180658 14.99230985513638 11.483418002896654
Ba 13.797918361373616 18.4684765305765 19.108387026973855
Ba 16.114671384149833 15.139277096010938 15.300126839602994
Ba 16.04485574757343 22.277809276109508 13.863113983292081
Ba 17.189075330264725 11.725415232484892 13.417832574801233
Ba 12.899415360587293 12.756195810447629 13.440418675460585
Ba 13.175752629510887 22.217257331435988 17.19582075264231
Ba 18.531526100398715 19.063588696870983 9.21076259777078
Ba 11.088820699537061 16.90285669936681 12.555334856191157
Ba 13.938762585727176 18.70935335714033 14.790314043313447
Ba 15.28226166513177 15.660781063318522 11.202041183716812
Ba 10.0724128363667 19.11489500706617 16.630764095197133
Ba 14.391456961431278 19.793586192677147 10.62701242060597
Ba 11.340285768285092 21.54034224976322 13.192740489836734
