47
Energy = -67.59181989 eV
Ba 8.952394593910759 18.37851349491356 16.384537359632123
Ba 11.044198355102644 14.69814663493586 18.54289145771774
Ba 12.150627821709898 18.749897381326406 19.692643573109468
Ba 10.585968444151606 14.81034821262625 14.253395620692666
Ba 13.14233408073114 19.439010392541235 0.12078841227228201
Ba 11.878097225580415 22.076166416630624 16.85917002423972
Ba 13.817978226361713 15.391133709470772 22.22018561294239
Ba 12.94214236324926 18.065807877481994 15.374230211557391
Ba 13.494509700899137 12.133200031211297 16.11210825720947
Ba 15.091438371129435 15.807586176773258 18.02746923799722
Ba 13.821525764661187 22.609985203077862 20.905252078947036
Ba 17.176482810365464 12.560117421635255 23.845064044864642
Ba 12.192944373696172 17.636284507629522 11.272813667926076
Ba 16.800499127614486 16.807441910066107 0.9713642775356389
Ba 15.051750122984142 14.916383679801397 13.389069969048599
Ba 14.302867947082698 22.258405908551904 13.136575447513833
Ba 17.03949315642492 21.599003173801325 0.4352228072012331
Ba 15.22343101505162 11.96765059107983 20.06194157605701
Ba 17.84315478456069 12.884496321348966 16.64858860100632
Ba 15.792741614455714 20.261545362678365 17.38306104567068
Ba 16.116235125556383 18.809871692421318 12.492008107749646
Ba 16.12887393547591 18.969285924878807 21.358176427259934
Ba 14.37048561327358 20.31566319518848 8.92035113934542
Ba 19.886524311368618 11.548942512508505 20.256066528798787
Ba 18.256962623756024 15.408911750552994 20.789423759625432
Ba 16.713719465883976 16.500353801065945 9.392737393048217
Ba 18.374876613821463 17.14999190737143 15.471182334926345
Ba 15.983717509127118 0.30876035759625725 16.941843833608562
Ba 19.25689869863024 13.960876968510647 12.705068360239876
Ba 21.227209443704183 14.405261826501501 23.4883360132111
Ba 20.077997817293284 19.474591845918138 18.998142129851256
Ba 21.307678059797503 15.404118102332916 17.771640442320383
Ba 17.91275079745318 22.84292981636052 20.487336399765596
Ba 19.98538923860011 18.695945183521758 -0.7969439959278525
Ba 18.13906775403336 21.584460507254608 10.205149392973663
Ba 21.994143065205588 11.68534693852196 16.09961914230995
Ba 21.814978102356545 22.219383081681226 22.01693300233956
Ba 23.993083526262836 13.192118004858187 19.875125181425588
Ba 23.315902481457304 17.45655844428492 21.15051651486636
Ba 18.59917329869117 21.59580475602697 14.55309412748825
Ba 20.241186715628444 18.082394312017023 11.705015530091188
Ba 20.94137634431436 23.459618960260787 17.618878244487956
Ba 22.320967745338546 19.458761777299483 15.337529258115314
Ba 23.13225276347251 15.354422540392509 13.974992451302473
Ba 0.28212836136225344 20.81962400197729 18.833773937973973
Ba 2.0262366007089354 12.877041844851693 16.0738439580607
Ba 1.2952223051963863 16.822988194608897 17.425149752284053
