47
Energy = -68.16151611 eV
Ba 0.47989293428142554 15.267888522774445 15.342438410063506
Ba 22.578512939325048 17.334579455655383 11.70583103266815
Ba 15.174408863921364 21.538655329587037 13.315548446788593
Ba 18.889693806538236 19.45732049820513 12.39352285227098
Ba 18.41830599741398 0.12112069012116959 12.040745927819515
Ba 21.674439661866828 12.916455995125336 12.473728282162087
Ba 21.21457011202625 12.410314278630699 16.982390718737065
Ba 18.15857761803612 15.325695454055227 10.941918090601959
Ba 22.35144729495506 19.100673604303214 15.865887587801462
Ba 15.825227474856556 17.071069641524865 14.185469415516575
Ba 15.301095059398445 20.092615762616088 17.122901031429098
Ba 22.34247682048891 22.206306184501457 12.823965689553958
Ba 20.49122836001558 1.852234368895425 15.409508081405567
Ba 21.771559782300212 16.043520454102122 18.88759082567433
Ba 17.34400308114627 12.617597074884948 14.288211618260123
Ba 22.386880762741292 20.266023389957592 20.401757066651847
Ba 17.388210629695052 11.37429104196665 18.92662497702113
Ba 23.493336399013717 22.86928863032929 17.1184417984406
Ba 12.046914376920869 18.438629600724322 13.435962275143169
Ba 15.914472862800856 0.27335091240363796 17.001676199363846
Ba 11.636296525820317 21.831140832932967 15.899473899420009
Ba 19.17363681256001 21.93369159425361 15.60987207171835
Ba 19.97943869108066 15.970949289505516 14.783176441336073
Ba 8.816732580478657 18.53823139097214 17.82014366916449
Ba 19.796882485512743 -0.40510923642576074 19.279467080310496
Ba 9.639742067912788 15.241584508701242 14.78764973779706
Ba 1.2906132304122058 13.680374955671542 19.36723516794319
Ba 1.7934310305657097 18.059006655232523 18.686188816950416
Ba 13.458803272542951 14.307028412672022 12.146867000192733
Ba 18.861799854681173 19.03103912132665 18.576692328378602
Ba 19.18965677293114 18.652747594834526 -0.9314453089956045
Ba 12.611873937541912 17.05722829598301 17.574134433999447
Ba 5.349458610117686 15.361653536028822 17.07874147517338
Ba 12.280942386352708 20.929298901766998 20.033946176183374
Ba 16.512792584543426 21.8455761912419 21.06264283512181
Ba 13.426490632374001 13.15800378992355 16.346931943103126
Ba 18.41573854966836 15.007430387353782 21.313828029382837
Ba 23.20004284603861 16.334158301917977 22.63439771179137
Ba 16.969644159192995 15.328799380890901 17.63562114282376
Ba 21.36801647949664 12.261704333609142 21.51817883503867
Ba 9.608214430505708 14.203008554536384 18.908769121869824
Ba 15.348597312847064 17.850093112224734 20.709918995952712
Ba 11.255612286895142 17.06657020769248 21.834004084189466
Ba 14.077955329812408 13.829708332443012 20.675889245545367
Ba 15.486314765481621 15.940785066058268 0.46350767796053294
Ba 17.065666950299786 11.674410511609722 23.417974240966036
Ba 19.868548873033202 14.650751370566294 1.2337165801190304
