40
Energy = -56.03990488 eV
Ba 20.99452485974715 17.6397417036015 0.3664542388141137
Ba 0.8043858381415886 15.683033261280304 17.00430459105746
Ba -0.34343984486728535 18.731551818817916 19.9525099286762
Ba 21.88143713757514 22.80082161607573 18.829791555688136
Ba 22.214178772058904 21.77801867067199 23.06268490477371
Ba 22.684457021714966 19.793855803552702 15.723368848030725
Ba 21.30371948500112 16.20126840893306 13.734565915595331
Ba 20.62208570932048 12.9466350931288 16.64557210670812
Ba 21.699743895123813 14.577312814989124 20.556955489775685
Ba 17.908286495684475 13.423566879835352 13.237498824748066
Ba 17.81630720934987 0.9321835821808737 19.541971134870277
Ba 16.948637812600026 19.072885582976962 1.1175858332184025
Ba 19.782643220656652 17.071896011772253 17.508011662094546
Ba 18.95972160239156 20.156151038873407 20.6555218111478
Ba 18.52617236819277 21.194067882669604 16.30610736018992
Ba 19.914850963951558 20.093694740318792 12.20183177898222
Ba 18.28640386389754 23.17551539297346 0.45183106399318496
Ba 19.405741628410365 16.12170582897462 10.00079585767569
Ba 18.310483176833372 11.714274771705986 20.154544222037014
Ba 17.645118990445546 15.976851330245259 21.300962503404627
Ba 15.515421058329679 18.541480358528588 18.286920127866967
Ba 13.583962819469985 17.38321578400957 22.04262343380866
Ba 16.80449308543648 17.57391879372116 13.616161933942065
Ba 17.14668059718887 10.098002259956173 16.18609151751437
Ba 14.957103763192334 21.501247188322175 21.39988111631944
Ba 16.633141685083253 19.235759378923174 9.349532983349432
Ba 16.304933138584257 14.254518999850935 17.185682926594534
Ba 14.220680227853453 13.100941547140653 20.880167221892712
Ba 14.441886115991478 22.639292946395685 17.211024332841617
Ba 15.569549527050018 21.601057302033826 12.980592739123644
Ba 15.238392944920072 14.840688272731008 10.152891372750979
Ba 14.933916739110494 8.949676991815629 19.615976748256266
Ba 11.36049599735104 20.0721949759481 19.322786307619662
Ba 14.374251449505314 10.918380535010158 12.844032643227985
Ba 12.697111841274523 19.154825412705716 15.29284254886498
Ba 12.909370189126538 18.374154024663728 11.172417427614404
Ba 13.7390542102514 7.47655157777526 15.634483999798656
Ba 13.373508235044977 14.97082896733725 14.046228384976661
Ba 12.158367174116886 15.85289689217512 18.168057265436893
Ba 12.889738290273526 11.54781511549995 16.946147283713003
