49
Energy = -70.48598287 eV
Ba 13.183348872902188 0.10799258783726219 16.488627381869712
Ba 11.794424116085045 19.889762765326367 17.42039417620976
Ba 14.16292358132499 22.315647819776864 20.80759502016779
Ba 12.75344268966967 18.27508132332035 21.485427961136438
Ba 10.17830552228797 15.88717508683434 18.21265816210301
Ba 12.31228922329124 16.500809183829343 14.33131882394753
Ba 16.623238144657744 17.046673820735887 14.32872912876656
Ba 16.872686743040514 0.04881392398084055 14.036577657489548
Ba 14.097786330751246 20.522264785081255 13.450855549904114
Ba 17.099884748318754 1.254413287975273 18.22407990469758
Ba 12.657231626413763 20.07414582442474 1.8549941113877846
Ba 15.936243354352026 20.725880194977595 17.31072642796177
Ba 16.42630231106858 20.587124209388946 0.31494430968190135
Ba 12.641283384489371 13.800018531407455 21.106804342191978
Ba 20.224091688642147 0.12625718718021686 11.382189438897754
Ba 14.497766214215732 16.634324527779054 18.028245152909566
Ba 15.283139118779136 13.508849923174862 12.737562006566158
Ba 14.882463611253137 16.409298798556442 0.7439092540704175
Ba 17.079867420595882 18.443511032049745 20.842333993470824
Ba 16.926409765584474 18.99969287193288 4.142655611997103
Ba 16.928182334214352 21.07336285800809 9.844988088886925
Ba 14.322510279761095 17.395738622051798 10.443081935392497
Ba 13.343004219493 12.866717370404558 16.696957421824663
Ba 20.694511269118383 1.6719896735250261 15.72801490090888
Ba 18.489611333684987 16.836318988071813 10.536637306343124
Ba 18.795415182914773 22.434017977119655 21.124020390624448
Ba 15.295388507609331 10.337598941122437 19.538159657633738
Ba 16.916234768086948 10.067797185358803 15.3939230352528
Ba 20.488792113659958 21.099050910595416 1.27003971226873
Ba 19.20414431768232 17.02992754372364 0.5053492699521595
Ba 16.644873719300833 14.314185467173107 21.193594476002787
Ba 17.715908690550744 13.680393486570354 17.166752117678072
Ba 21.523099727505677 20.067800490662762 10.02459027229743
Ba 18.833915088015925 20.341923752096342 13.31683736361867
Ba 19.411515937874235 17.60672017481813 17.420186520579602
Ba 19.62491683897516 13.520642430161907 13.405997352965914
Ba 22.849854633025487 21.811742629925643 14.184048682768692
Ba 19.86137948752444 21.664844939065873 17.084032601136695
Ba 18.58270820647312 6.980228947832013 18.123372896806806
Ba 22.917984599369856 23.165679739935985 19.1667034024812
Ba 21.43054796298284 19.217860149906535 21.09528617576333
Ba 20.672507947207674 14.979346695328983 20.68450133774174
Ba 19.39899937816836 10.918080176596574 19.89983189086547
Ba 21.64922133372915 17.41186326201457 13.674194531881431
Ba 22.386929322349562 14.450320346519034 16.93809858896919
Ba 21.186353024711888 10.328438279971378 16.24726545647388
Ba 23.51706264584406 18.893418521030075 17.401730380494033
Ba 0.7928707980502112 16.044189256868382 20.58397478309298
Ba -0.18620064062905056 11.648555394186662 19.834311553247087
