44
Energy = -61.65228474 eV
Ba 22.46967065425087 16.008220689312502 20.3569654079573
Ba 22.479665646430885 13.355692250754737 0.6259839480883542
Ba 20.542870046984806 19.76044722685501 20.377505660720697
Ba 19.482887077287263 17.00974064585021 0.19803440671608125
Ba 18.244958096956672 0.1778854937516384 20.597858524987625
Ba 18.210757663457603 13.545378344727775 2.384590840314407
Ba 16.479573941745183 19.87816909326159 22.068671658416402
Ba 15.204124491295087 16.574966489246467 1.261056713203514
Ba 0.48858300245138037 14.618449896884968 16.309786823602106
Ba 21.56997411803086 18.628416111266276 16.05218972982196
Ba 21.066673216985567 22.955273207572855 17.29064044037546
Ba 16.868609349299323 1.2011009500669911 16.648258865406895
Ba 22.234947125086777 11.847285448230677 19.42077314194165
Ba 1.2539956613187322 17.582490973495446 12.937641187477677
Ba 23.276412050390988 21.709153133959482 13.602098235058227
Ba 19.494948186741233 15.01514142931018 17.36892065579244
Ba 19.108760584686074 13.431991052617176 21.55817063322836
Ba 17.371908982235645 20.27534723262895 17.75676406526124
Ba 15.126745715056204 12.550694003630525 -0.7324331244138779
Ba 16.0556526376574 15.997977150354403 20.11638716758084
Ba 12.344094168899659 19.704656124607332 22.622896595156686
Ba 14.04899204366509 22.535260821023503 19.487371297787277
Ba 20.836328624936257 11.316695475281907 15.433642048329222
Ba 17.05493004032067 11.654139536147667 18.251558129215727
Ba 18.88397201897348 21.84741471312641 13.827898008461133
Ba 20.783467624710084 18.99444637963418 11.287756876141193
Ba 11.934747491325883 15.551965990088307 21.86680581718053
Ba 13.038957290125538 18.48505672279149 18.43532728513703
Ba 14.44278359896256 21.04728403356278 14.737851601791242
Ba 17.575984983565807 17.82960350721327 14.201515975591027
Ba 20.96079287438605 15.174981783241792 13.139796712304236
Ba 12.88613879084658 13.028835414033177 18.745516139439896
Ba 14.169700977473417 15.480615983627837 15.652878993019712
Ba 17.230621188113002 13.233074136311586 13.940655864500803
Ba 13.887313830214 10.86470390985549 15.026335410328137
Ba 16.594054302917137 20.29883987003926 10.251033984490622
Ba 14.003725049726606 17.63694432776417 12.031598327830581
Ba 17.449233144651867 15.942382151099103 10.373331504402058
Ba 9.858243955825557 15.839261381888392 18.138850665953203
Ba 10.686821140550906 18.128692353998396 14.632444699416894
Ba 13.733421727249452 13.630177539594595 11.328822347904959
Ba 10.597942805945346 13.718387728694912 14.399285982722914
Ba 13.962621342634353 17.020166296371514 7.846439390890275
Ba 10.258658993363529 16.303688649250056 10.660443986012622
