42
Energy = -59.05769016 eV
Ba 17.689540724570882 20.22388826084556 8.490453920899087
Ba 20.868023555515073 0.8243134940297081 20.89358995934597
Ba 19.782109000886702 22.845679265257708 16.967030367742584
Ba 12.865098400216267 21.40710336181766 18.595824908067375
Ba 14.765061766453655 21.193075635870464 11.456585290204996
Ba 16.103067600854914 20.56007911418436 15.635931974798769
Ba 19.049035684226062 21.992495490634287 12.346090840183756
Ba 12.123157618613465 19.132130428429452 14.229150075997717
Ba 9.478639443227825 18.50206941725816 17.947314437770398
Ba 16.81088674751216 23.049360590593935 19.99909176151868
Ba 18.465049237931467 16.22764990007611 6.697150172409648
Ba 19.206511843342263 20.99701376289277 23.195906894048235
Ba 15.183871201914418 19.41979282208747 22.06522832489529
Ba 17.46773201402736 18.07985156737582 12.47181148748903
Ba 20.59563186730981 19.05131421909891 15.309280983362711
Ba 21.01802726340348 18.145697991953316 10.391533979964814
Ba 21.944965811706602 20.156513711288362 19.831630231934767
Ba 14.650559860448178 17.31608312518647 9.353412871932168
Ba 11.196845293721736 18.69030735499997 21.83118933761012
Ba 13.643310263734259 17.45562949290378 17.7848074174739
Ba 18.033902752316646 19.18798267164534 18.987213984471754
Ba 21.18942030330486 15.859389737362369 18.413997991413044
Ba 19.41320753864522 16.84501145000585 22.141193905964425
Ba 17.0876485581647 17.684483976826776 2.2323340795622446
Ba 20.869064619080078 15.025454254148682 13.585655475388954
Ba 21.75305060642882 14.066388767940287 8.874427384481752
Ba 15.746387134147756 15.529262063765445 20.65919787350883
Ba 13.394987890869322 15.55527434553034 0.5786282345679674
Ba 17.538580413386043 15.901057830709538 16.40738361875288
Ba 10.54165887564943 15.097633991288209 15.601131455292306
Ba 11.20603653973626 14.852947258449108 20.12239795253042
Ba 17.85376159573209 14.319797724565758 10.656271914443682
Ba 14.117948941665501 13.09635352925671 17.345316288532977
Ba 21.042695095569446 15.55610810448165 2.5369386924095894
Ba 14.383633266964335 15.478823260686443 13.545465390544358
Ba 20.89071386407192 11.057219214211887 12.05073836745756
Ba 21.508138038458217 13.148786370814692 21.872389737749664
Ba 21.398717157098474 11.883724922732995 16.620569436938467
Ba 17.535462899581244 13.525025389985505 0.5554541337385565
Ba 18.08060274693122 12.394019612499822 19.275087569341455
Ba 14.125975634121206 11.749729343024653 21.64981139474988
Ba 17.50768161859824 12.169810422221776 14.597794654839845
