46
Energy = -66.8677213 eV
Ba 2.1704706122003152 14.259288437404658 17.630281938094427
Ba 1.5345140932683226 17.301201625258784 14.605851906476527
Ba 22.53535159894078 20.86429601868172 16.362126763829803
Ba 20.58082384785553 1.0761625298939772 14.785954531995497
Ba 0.8093007694861154 21.112851635918606 12.428489271420206
Ba 22.48773035608216 13.682939162642597 21.373203005728158
Ba -0.1500947928349842 17.61335663495166 19.00227311606218
Ba 22.878629348326303 10.579436490588526 17.779796547170747
Ba 22.526133057067394 13.439888421778404 13.966589548407361
Ba 21.764654422982343 17.233315325211855 11.064397107364375
Ba 17.917523451078562 1.6679789682800963 18.39801955264842
Ba 20.665025793603565 21.63531099656861 20.164382800393156
Ba 20.302610282072212 17.55385881009507 -0.6955405509890757
Ba 20.52665499046669 17.300058989715446 15.039500588365206
Ba 15.227193815798666 12.275342006133572 22.780255035757403
Ba 18.235988514546367 21.327794745650575 16.63112847646638
Ba 19.956035774794262 20.69449075677773 12.694096203714194
Ba 20.848998053510353 14.204419816407498 17.695091249909193
Ba 17.041381476429518 18.72803937941427 10.370579565690909
Ba 18.83442683433564 11.191444379323466 15.704953369759739
Ba 19.288656619128414 10.624649617667526 20.5030930203894
Ba 18.620757793179642 17.98821789411069 18.795090896373225
Ba 19.108134999586035 13.597256148493058 1.1206640815471047
Ba 16.306093603999564 22.780760943345907 13.295813524688334
Ba 16.4587778683147 18.36022319433832 14.342762092075022
Ba 15.894192888318837 17.054176582248182 22.720383717278835
Ba 16.342338715691938 21.114864152973535 20.81230729294425
Ba 18.215163895843638 14.663503074705346 12.566363967765914
Ba 17.958474596321366 14.340320334946144 20.513495090066314
Ba 15.347446665989695 11.244239349301385 18.503191744424946
Ba 16.55741841665806 14.829213398737922 16.55717834659219
Ba 14.085209950696202 22.682226139701843 17.250327976666917
Ba 14.387142452680457 18.704662495944362 17.881840575893218
Ba 13.840793215152356 15.888939198253796 11.784137856914091
Ba 14.423991476260202 12.154249716059942 14.186756159604748
Ba 13.530155449680848 15.01272258964905 19.801430933146886
Ba 12.094586515344506 19.223847279943033 21.195772689854813
Ba 12.407026325980226 16.000114808404668 15.615306485531987
Ba 10.200433149729744 13.464367419689294 13.144127659972828
Ba 9.320260328624201 16.246276016206174 18.513793592619233
Ba 12.757146869828524 19.907992349951506 13.585793519375006
Ba 11.097985821373713 12.314589069892563 17.22261264573223
Ba 10.251877009023868 20.185059193660198 17.26549509550745
Ba 8.722312027915182 17.500035445924333 14.17288085962981
Ba 6.648553268889267 14.0797795769039 15.835813724511702
Ba 5.226949828269737 18.008702653938172 17.27827646752528
