49
Energy = -71.59043231 eV
Ba 17.219495783339145 12.093466872069076 11.493878572480506
Ba 14.25257499040231 15.167877178446247 9.759383253349897
Ba 15.452108070925846 8.660971077846 13.854658080958776
Ba 13.091399411373171 12.39620995817503 13.109034748900752
Ba 11.825547884564397 16.902256441561285 13.213980179364924
Ba 22.321211126996385 13.017533258751307 11.704511897094527
Ba 9.361042518488226 13.672241148225318 15.263274009381243
Ba 18.60064108143769 16.253704743241467 10.478714704606285
Ba 19.914262408191746 9.995923820375038 14.106856668329517
Ba 15.786479029391582 15.581096370098445 13.69518152400188
Ba 15.289076819079337 19.218622396944674 11.659124484654438
Ba 12.382365358541199 10.565563204936614 16.98280746288309
Ba 16.602574373128665 11.983908674026447 16.283899921944364
Ba 13.253267706132812 14.731533831318883 16.715971254508418
Ba 12.093916107645361 21.419576095395772 14.722514276780213
Ba 10.200809713960899 17.760251424015696 17.163597173433395
Ba 16.487064456466776 -0.6315492168214559 13.897718887727045
Ba 19.530139628335245 14.294238088724875 14.201348011253744
Ba 10.282910189351925 13.85108954251371 19.607542945727104
Ba 22.39188277480974 17.40933356418359 11.886972549223424
Ba 19.550682029934624 20.82416552594577 11.238667787452982
Ba 17.811335452374248 15.828750190142662 18.287329907079997
Ba 20.962841956844535 12.47449984121859 17.642942247034775
Ba 18.877464095346973 18.418891023041017 14.504683680474221
Ba 14.912319378047199 18.945680838341403 16.356450698520295
Ba 14.704135576072977 12.865302943422561 20.399040745173643
Ba 3.113242853527232 17.81587976825751 13.679921202368195
Ba -0.23767409294751984 15.896154968085323 15.761132521323507
Ba 22.677737232399018 20.465817320462527 14.79678634376838
Ba 13.261698404292357 16.90951766774439 20.118993712125942
Ba 9.404839426819077 17.85996873826582 21.59798750555613
Ba 12.08985447570691 20.954591181491327 19.586101885349034
Ba 15.029263374093809 0.12863442073105108 17.77416315662402
Ba 11.934530072124975 14.877124902713494 0.408287661566039
Ba 18.803107769202565 21.642043210987172 17.20676932920102
Ba 16.099298741361444 16.051183319704087 -0.07389677461770629
Ba 19.132604727979604 13.269244205735253 21.505461275946114
Ba 21.147522227230105 18.66388216083261 18.5531094749815
Ba 23.019929154189487 15.355511990498309 20.211301451708305
Ba 19.96153072263982 17.467963678705214 22.391767416980557
Ba 16.47275660872929 19.559778831224033 20.40132518214883
Ba 2.1781383305951367 18.82021285770861 17.955730825950685
Ba 13.232866897818525 19.390650337015664 0.36816611698000995
Ba 17.410346243298697 20.09165670609315 1.5537919534416342
Ba 22.80585059302247 22.750401033175773 18.70285648224086
Ba 0.48588344714332343 19.657360635307455 21.929878161087505
Ba 15.575413086986396 0.0916612938168951 22.068688550075343
Ba 18.68419096657293 2.0913382661865465 19.14588302362807
Ba 19.804949108526323 21.81001751009528 21.539040564042885
