50
Energy = -73.56759773 eV
Ba 12.330264597517049 15.849212897318223 12.036946289207739
Ba 11.447065272436484 20.13771834445439 14.477271575464316
Ba 12.181770065846708 0.48183720699858884 17.512344169479675
Ba 14.36000494610071 11.772914109030966 11.272438134359888
Ba 10.573912372078194 12.090655005597062 14.061406344609011
Ba 15.021810456112535 15.266367246524856 8.282377571879302
Ba 15.004770575618572 19.20292639260377 10.807490599955173
Ba 15.178035514111665 22.47307470199444 14.277833703557942
Ba 10.995883302384264 16.18610316640942 16.392140195386038
Ba 10.447830436345175 19.735264767091216 19.28581396147517
Ba 18.897871906220793 17.463749282413907 8.953665243373942
Ba 18.829338819029417 21.361655993061134 11.57835864729919
Ba 18.801214444551523 12.724939781176527 9.753429477219585
Ba 14.293374936721472 13.587737249844704 15.0324536869688
Ba 13.958941960953794 9.360741300390465 15.719550109937174
Ba 14.178070251227984 -3.082861684949365 17.952180425069194
Ba 15.107714193495342 17.896377845291976 14.756462299651355
Ba 17.841883328651246 11.267004716504376 14.088765777450083
Ba 11.981305518565417 12.208159181123966 18.45958077317121
Ba 10.821285151839062 15.742096744782481 20.951070573238262
Ba 20.21235991082593 17.54014450788744 12.99090717796501
Ba 18.345824641184468 20.306453985843028 15.639969382954384
Ba 22.818441951589868 19.50202216544981 10.369207271761095
Ba 13.526483520292404 22.1003770837337 21.7887451002201
Ba 16.818833790985913 15.28346136305261 12.057290164371564
Ba 10.765381023008555 19.20703689629256 0.6352983854495893
Ba 22.344241978093763 21.165169288328173 14.467146970984812
Ba 22.421918705740037 15.140251659705275 10.299556193078647
Ba 21.60589750298143 13.573604886764501 14.32250161253962
Ba 19.288159268835095 1.213984723610312 15.220840139988521
Ba 16.293436452157554 11.882137555793795 18.267320955883147
Ba 18.255927573983403 15.182553661649797 16.10924735994218
Ba 14.437991256341684 9.038172222793316 20.506296584679564
Ba 1.1489626794382364 17.019866387912753 14.048296730706237
Ba 17.771968667018665 18.592297526415667 19.334285164513105
Ba 14.634762769017017 13.547316898380638 22.079084203961298
Ba 14.600691425201408 15.791412056538645 18.515932312154703
Ba 14.294718512526075 18.063575508593054 -1.2890866431139674
Ba 16.629590486814866 0.06273605790073693 18.671330213372052
Ba 14.803574574370979 19.42309046622236 2.565586517649292
Ba 21.342733391540577 17.839747616980755 17.075102630272575
Ba 20.42130798882268 11.247239247520326 18.186379379422377
Ba 18.155968222785074 11.070830817716118 22.10742267711155
Ba 20.792011700383856 21.812110247452424 18.868606549474187
Ba 21.500955967216445 17.927771273220223 21.42522330642137
Ba 0.0028344584022182524 14.595103391000043 18.45916287579461
Ba 17.938135128684696 16.349245636805165 0.575503662864966
Ba 17.817455799411768 -2.239555991788954 -0.507420177315157
Ba 18.911088948972868 14.712640649041534 20.05984722997529
Ba 21.81681988854788 13.438223056972344 22.600094878329205
