55
Energy = -83.66199215 eV
Ba 7.803693584591736 10.770338458186668 18.416429233556055
Ba 10.493731787423602 6.800176359256018 12.031230107114455
Ba 8.194034940394943 10.498546323391514 13.648585481950507
Ba 10.842616668597168 8.123418954755136 16.46129074931402
Ba 7.303975773197038 14.476003921742583 15.886974028350137
Ba 14.47264510719017 6.8440404343934444 18.95211346003232
Ba 10.680364956513436 10.500167544852932 9.231971100511501
Ba 14.472287089279797 6.723012597732714 14.312293649117288
Ba 12.191919148414135 10.710349280475528 20.182224929378428
Ba 10.958109431362185 12.446331458413182 16.312425162192692
Ba 10.00812240984173 14.476693883546403 19.948895264670778
Ba 12.389399292297243 10.402404928829998 13.07363315554986
Ba 14.475597580685122 8.09051417696123 10.09256565931304
Ba 7.794230839100278 18.18086549376779 18.420310969400507
Ba 10.495399903032485 14.481854325339317 12.029567033392022
Ba 14.473414335699035 10.390244710267986 16.649355408981215
Ba 8.195833021790731 18.45667107802112 13.652794477096617
Ba 10.956148022458216 16.509818180160927 16.31941429206565
Ba 14.467065344962915 10.660351034661302 6.421899125817159
Ba 18.45825191020161 6.8221890102770635 12.030625112692972
Ba 12.147489885852854 14.482425185209792 7.287755754644449
Ba 18.094978071672497 8.116092851406153 16.457558022108692
Ba 16.74866963422266 10.721936997030616 20.191355967345753
Ba 14.457400548800075 14.478558043197683 22.375584012793357
Ba 14.46656377535973 12.448528475394044 10.170422576687805
Ba 16.5568338897893 10.418249559162374 13.080653555427663
Ba 14.487924546438204 14.475906909434066 18.391112512526774
Ba 10.689708041557303 18.45874194310528 9.243635208183587
Ba 12.19292139284611 18.247489626184738 20.183566734810718
Ba 14.478782432350462 14.474036243922624 14.138518997209289
Ba 10.843184095206093 20.833443389376427 16.476856703301397
Ba 12.395695821612904 18.55709689797779 13.085759871119153
Ba 18.25829320459718 10.51613835531191 9.236070756329985
Ba 18.008353048100748 12.445063110609944 16.333264454193337
Ba 14.476334293850996 16.50332813347574 10.184057559282106
Ba 10.500187416030483 22.159959518645035 12.045340885698467
Ba 14.476528974399962 18.56259053064485 16.652468138618453
Ba 16.79415383773146 14.476479415466107 7.287887992608725
Ba 20.763424761428357 10.511887144958099 13.661705693778055
Ba 19.008382950346395 14.470460754727076 19.955335021721595
Ba 21.147524389410187 10.710845690182122 18.432356440853074
Ba 18.460803527743586 14.478795125245956 12.040636670138495
Ba 14.480915237067347 18.300449825401767 6.437795976924116
Ba 16.74755434552594 18.213461839652023 20.18655141062425
Ba 18.007720877635013 16.499741503504353 16.326467750766426
Ba 14.483752909348858 22.100389241241817 18.954362598566252
Ba 16.56291727827223 18.548038241440985 13.087612625473303
Ba 18.269053497439963 18.443434244863603 9.246287483526055
Ba 14.482312362411903 20.872353043952547 10.10652403156781
Ba 18.098630283851097 20.83167537261934 16.469590005273744
Ba 21.68089640759458 14.473011518971777 15.958432546359866
Ba 21.140878666076915 18.228781849778603 18.43598979857343
Ba 14.478610240737005 22.23903142718391 14.33075556130466
Ba 18.46734143240967 22.14394620377649 12.048897639725727
Ba 20.767956775248436 18.4431596319122 13.673750641437122
