52
Energy = -76.5917569 eV
Ba 20.068070468271337 13.200917170980762 -1.3542029203837218
Ba 16.10522363759523 11.072809274857088 22.594861227972117
Ba 15.02374516606871 11.459751654419707 18.082188308227636
Ba 19.177862414211408 10.655182850032766 19.40574331215238
Ba 16.04945155243616 15.28640794088671 24.25802375912882
Ba 18.21938463140845 9.846234561553228 15.066347539980432
Ba 12.906054047179632 13.770963571537871 21.09278370038899
Ba 11.003449071396505 13.717186972384217 16.712187030716503
Ba 11.84740814336175 17.069949846847706 24.141798467278928
Ba 19.91707634500531 17.48883898938294 0.38595617471118365
Ba 23.918059246553486 15.476246015638045 23.169213303749682
Ba 22.48051311056302 13.563985261530071 18.81615665334081
Ba 10.30713862937227 17.109623634821375 19.682394203425194
Ba 14.580709457117603 13.144454109514395 14.121310117717808
Ba 17.19607910665918 14.520688659448597 20.369317184680963
Ba 20.7997846253597 16.922572509372454 20.804730563928256
Ba 18.385071554020342 13.757524648725552 16.51521155569306
Ba 15.551212115230198 19.83310686199761 -0.08825526767074865
Ba 11.054982495557319 14.62556765998307 12.30856144448947
Ba 17.97574737071551 12.694485894753699 11.859118693715368
Ba 14.377549268576125 17.660029272128074 20.994082534203283
Ba 14.294288934252798 16.155581292074753 17.175432823165362
Ba 11.675087210878223 20.925538496745094 21.87962644881048
Ba 23.316670254258092 20.027753601268905 22.54881451277233
Ba 0.4151942453154114 17.569039216190834 19.216953011584412
Ba 0.9694186586288703 15.344995738357303 15.345807189904466
Ba 21.62722262994124 13.375627132504329 13.819604740212142
Ba 19.136542492387036 20.874767155400164 21.92157552620013
Ba 12.497066455064756 20.195192009351793 17.531108616390398
Ba 15.54252189451236 21.29447423419003 20.080129188788685
Ba 17.962824576594425 16.711238433602013 13.66766286319583
Ba 15.03365209937947 15.342684030893988 10.206206826440472
Ba 10.016166790167292 17.75465568110336 15.202555791930962
Ba 1.001614794737991 22.235205679112116 19.11172327148285
Ba 21.57255561040392 16.862946446689875 16.282414074729843
Ba 17.951960728894644 18.237541096819342 18.184169089263424
Ba 13.800023055174849 17.616670790466777 13.356441089271637
Ba 19.280348918505858 16.186112393226942 9.811924918047758
Ba 21.762369412821 20.375902082663035 18.52339143467967
Ba 0.17817484417842552 19.834127723800062 15.382170058302712
Ba 21.594278156570205 -0.14067457219552199 20.399731872203002
Ba 17.123611545638276 0.5845230581780088 21.200814335332655
Ba 12.911276135187462 21.91152087794039 13.288269730791615
Ba 16.087919497687096 20.437049661576214 15.462537531251131
Ba 14.575337400345772 -0.09274975992809334 17.1887836434528
Ba 22.69266412109443 17.309739018541336 12.163752491342876
Ba 16.671140531656935 19.934078989991367 11.062967069911394
Ba -2.1667502232731892 23.938561630994997 16.02290740811919
Ba 20.216230768765897 20.408771916675946 14.151052751923578
Ba 17.46498255691065 -0.3748912675492349 13.805756184555054
Ba 18.50896590098222 -1.654410642374755 17.80282998567617
Ba 18.777305433607115 2.377753696603475 17.400825345357546
