50
Energy = -72.67111268 eV
Ba 16.435888463275212 18.717395313021466 2.645942486816173
Ba 16.03802097504695 15.308603185043099 23.593145742951815
Ba 19.478835036731887 14.148885873127538 20.904079849147344
Ba 16.046633485390252 11.347063788767052 21.291170176272786
Ba 14.369275159872013 22.17221071092351 1.2195346045419926
Ba 19.063985822662815 22.062254454822536 0.5867270600854798
Ba 16.154795365801263 7.35470919649424 18.999453562420886
Ba 19.77206767249009 17.756993241237183 23.67363493159756
Ba 16.443054829850908 19.882699278964214 22.096611533511464
Ba 13.072112886982927 10.259371038781948 18.03462165286608
Ba 19.614276285381383 10.33759703875008 18.62686767211433
Ba 16.24226543194527 1.0373272941506144 22.26287386869084
Ba 12.80606580222118 18.245585551647405 23.071930245663378
Ba 22.621069146190468 20.61810076115558 21.50144831245803
Ba 12.72041918778471 14.195580894165037 20.580229000886643
Ba 23.191713205551363 13.126399129831817 18.1853673941791
Ba 16.034476590973625 16.454403113154324 19.60972150851973
Ba 16.358525829375523 12.76792770505155 17.352808187361322
Ba 23.212299339914395 16.187634046665046 21.35582864225741
Ba 13.165799439657935 22.269123137505392 20.77407030085201
Ba 13.466576666716879 6.579086195209226 15.544399106738588
Ba 20.658461812601853 11.73476725681733 14.589015646863565
Ba 18.972352851915268 22.661097587764324 19.917825167192557
Ba 16.961872458147923 9.16613024063325 15.188050151870732
Ba 19.733478915707643 18.460374502573053 19.519792222769677
Ba -0.2196270328597082 14.980047845378111 14.111873009810346
Ba 22.351045183048566 22.003796809920388 17.059977425745828
Ba 12.404207138266557 18.430266250782573 18.606573701614046
Ba 19.89679960915603 15.170247373511488 16.72336857247003
Ba 13.329760741289444 10.984519997277552 13.776940996415421
Ba 19.871065701321953 16.179125311209155 12.608586835211604
Ba -0.5182317057982705 17.76744680151061 17.43421776900595
Ba 15.134021217834736 1.5416494414852635 17.97316478901742
Ba 16.877929607968614 13.362017539253904 13.163998185247895
Ba 12.708141593247513 14.656954675004604 16.137110027462338
Ba 11.948178826152631 22.72098051348396 16.463384129898266
Ba 15.793209684438823 20.93828907937758 17.484197155837567
Ba 16.16758406621134 16.928547750691386 15.498914981966932
Ba 18.608164799818017 0.08941042613877559 15.792542907952614
Ba -0.8540626807211301 19.320803718760526 13.31523466654292
Ba 19.39258031171327 19.631344802246744 15.454669027175164
Ba 12.86353716425919 19.11358050912659 14.33654687331876
Ba 15.331384241619444 -1.2637686101430992 13.257465278431468
Ba 13.625590328572123 15.627192043961916 11.916218400658433
Ba 16.74313036369847 16.565044305479656 8.742523682625992
Ba 16.833219088249056 18.91118918338071 11.979269871716479
Ba 20.594818123764032 18.781983299441038 9.50681062822689
Ba 19.75677247376208 22.09737003082187 12.083663802640334
Ba 13.303883384026292 19.65512096045405 9.952107415342105
Ba 17.06716299480029 21.22887817145707 8.45646201204746
