51
Energy = -74.83899481 eV
Ba 19.882473984003248 22.024620846937626 11.08526839059242
Ba 19.118855153011282 18.652013976678013 7.4089282492242665
Ba 15.814776829874416 23.15173722291305 13.824844581713169
Ba 22.758001488412592 20.027316236029257 13.998046732390238
Ba 11.846837835317718 -0.41744702049689786 15.245321143535307
Ba 23.245968197832152 19.246190894465432 9.479881798705472
Ba 16.182759223234452 19.587427279817923 11.127648259992265
Ba 12.261316599375265 21.05550296164308 11.930336841956487
Ba 19.77287423385163 0.0705255932228379 15.575432902528156
Ba 16.56960307387202 15.501227347717325 9.703092506083573
Ba 18.68128839235918 20.079015184068453 14.68839772055538
Ba 12.881090860450005 16.759034633399352 12.140305159435048
Ba 22.748055330413756 21.896311958049107 22.809729946851473
Ba 15.359333264480757 1.494164722003668 17.650701766329934
Ba 19.936109033243216 17.743727544637164 11.42331293201628
Ba 21.633018081771088 21.006675492461063 18.3425041228471
Ba -0.2694270257057477 15.899476764958889 12.678025681807592
Ba 15.112578266455694 12.539833581657414 12.99916490834502
Ba 12.46038990011009 21.84345700400871 18.847882525009815
Ba 14.415570916863137 19.34987341266612 15.836294513819487
Ba 16.627253050658755 16.18032060423143 14.102667648452057
Ba 10.371708613073514 19.179575860932513 15.393969017807798
Ba 19.8346072506959 13.525338826775224 12.023231864286645
Ba 17.0740479961765 21.95851034299058 18.107746138493745
Ba 19.57759742314111 0.622315665785164 20.220173907850263
Ba 20.594529462387097 16.292198416815445 15.256562538198647
Ba 15.41235294703931 23.31685707477478 21.888156315445272
Ba -0.18055829233473827 16.908983747131966 17.428839059485323
Ba 12.491774514886243 14.7382429454764 15.97448690793188
Ba 18.415047321661852 12.73981069584438 15.93781816397523
Ba 15.19360902873971 19.188478645030287 20.633671398185275
Ba 18.958274640247733 20.69662967970488 21.83362874451701
Ba 18.657456634995505 18.145039452077523 18.29932098041779
Ba 22.18231413984891 17.56951894013621 21.422672383261315
Ba 11.99230374824401 20.285565630671968 23.045542332265203
Ba 20.429596122320653 18.43269325967111 1.3528193580198027
Ba 15.097535378051774 11.211588368523573 17.625401522324616
Ba 11.630224458157887 17.376070830143753 19.40337830089559
Ba 15.632899273409338 15.299290985544545 18.613133140010518
Ba 22.676341304029876 12.70742805226742 16.02225081518409
Ba 16.051258632990393 19.58748721603458 0.902855229699365
Ba 20.688058265506868 13.717733858032542 23.473508183994447
Ba -0.18105930207808263 13.176103115782183 20.31584938357267
Ba 18.00032362813875 16.67076426863889 22.302743538247455
Ba 12.383124960312495 12.876472474255115 20.386494000541997
Ba 13.828554328198402 16.094220697730638 23.174446118479786
Ba 19.48558031473063 10.56791855006412 19.699490161171948
Ba 17.277535547753075 15.300996562063611 2.1567051785346107
Ba 20.15390512271431 14.587755982615684 19.20970215607143
Ba 15.025385823505585 8.85456628441422 21.22395585112907
Ba 16.556061567098123 12.792306027756219 21.932338841405375
