51
Energy = -73.1800048 eV
Ba 0.33485887331837283 20.918847868954963 15.154315333744673
Ba 21.683303549235724 0.9762682359440792 17.403380563758585
Ba 21.72763255855539 18.93023346188963 11.527578040720243
Ba 20.370939405460412 22.832250622435044 12.93722786874759
Ba 17.667048273828197 23.032710072838885 16.18108361390969
Ba 22.362245119184657 21.880875355817864 21.245148825307087
Ba 14.131999814522912 1.6592373132366363 14.306591831520524
Ba 19.482672518643795 21.352787608812314 8.738494816500548
Ba 18.238248344752073 0.24288709884728915 20.451586325696564
Ba 2.3612183972887624 22.685400126649075 18.521737572850224
Ba 16.319163874822003 21.721899978667874 11.86412199120954
Ba 22.202253064805312 16.790694195239578 15.539855979732536
Ba 14.06425662173899 0.33759731628230377 18.709446264988607
Ba 20.555559935101357 20.219365289678986 18.00473343266431
Ba 20.176713703492155 15.086456700926927 12.282067943451729
Ba 18.684487162457476 20.396590360502874 0.06770979330534038
Ba 11.841701812843683 21.67352978894639 12.060447622619217
Ba 14.407999304532524 20.879962327800182 22.413785466913332
Ba 18.375765038827044 18.927093052175866 14.556119627122868
Ba 14.167582874693789 20.687416504367633 15.488822127938791
Ba 10.51692041475954 22.84763873677481 16.057093380062913
Ba 21.00148261940714 17.448746819837964 21.45042307977255
Ba 17.624565412621806 17.846089404741573 10.494643996366221
Ba 16.502828375086466 19.800044008803578 19.00937987115214
Ba 1.1146924745378726 18.594894996074903 18.92127415291727
Ba 18.791745263874034 16.027408327311996 18.097010419551168
Ba 16.63280099983166 16.854582903860045 21.989263251620425
Ba 11.819178947600346 19.70789280684977 18.975706547947308
Ba 10.545489286954105 18.435108186779196 15.00398975948804
Ba 22.735906507745185 14.226165769063698 19.07138860487075
Ba 14.008992441374241 17.799760008331447 12.527273476175385
Ba 14.256746093522498 16.043202201388127 17.921908405471218
Ba 19.328345445030312 14.523775103897469 8.256940338295097
Ba 12.317533500415745 16.71500401231132 21.967784880149164
Ba 20.399279855942783 12.625177524495612 15.643740681096737
Ba 16.678540400805623 14.892442916504578 14.403537225899013
Ba 19.085344989746652 13.2228312761971 21.31732167657629
Ba 15.476010043656082 13.959542083361216 10.557100911211808
Ba 10.050636563390567 15.518734025991858 18.26815986511438
Ba 12.234096622692382 14.370737428797211 14.298037771894677
Ba 14.673139838446453 12.916476460263874 21.502063944046977
Ba 18.648665489189572 11.27991774685532 11.758063183525252
Ba 16.775907239250955 11.913168717696838 17.78408784933608
Ba 20.860213459430593 10.090849174106806 19.06086354232962
Ba 12.409817256519526 11.733382237139883 17.785536368536167
Ba 10.386532563005904 12.78697776191529 21.5903163159038
Ba 14.987013120708175 10.951081952808675 14.037279875388366
Ba 18.48875609957386 8.59513684589788 15.621356683530825
Ba 17.01842008547872 9.110118216385587 20.80198724470734
Ba 12.694439256816567 9.010962785505981 21.132380077540816
Ba 14.563870951899807 7.945134057896228 17.397468037224918
