52
Energy = -76.30442653 eV
Ba 12.558519606951577 17.424109165279052 0.08051545576954028
Ba 9.277072204589116 16.483766610719943 17.170920036718623
Ba 12.268765843918878 19.15797430984673 15.873476149400233
Ba 9.327238635688934 15.47016642599395 21.498624638919644
Ba 10.29603133930774 14.157975930967126 13.634708388205826
Ba 10.564248008432276 19.779729297749302 20.050636203005045
Ba 14.632903556633845 20.21748021677982 21.344854282114063
Ba 14.279039835925664 -1.2628852173888914 17.96054886904707
Ba 12.914946894709868 17.59011536839812 11.85236154738915
Ba 13.957897145089953 22.8183158556013 13.676124189670363
Ba 16.53845109109036 2.228998217956266 16.388456602769107
Ba 16.31549683830485 16.32652208015183 21.976077638509754
Ba 10.88599534471687 12.683626019464501 18.253361256837252
Ba 12.843504740804711 16.417490687317695 19.57588756576007
Ba 13.820970712870258 14.88821271301222 15.721823687746543
Ba 13.306978944978543 13.167578922811321 22.12623891928712
Ba 14.514810377129782 13.46328575599375 11.706489669746539
Ba 16.08654132998237 18.339964264768426 17.78599519792483
Ba 18.606402351516643 21.08243055151653 19.683344271574718
Ba 16.83497279449649 0.6590756767809004 21.08485001614885
Ba 16.085382287641234 19.26562478525191 13.702203966287751
Ba 17.55422239240243 14.387024026189431 18.268159812170815
Ba 18.149661666888935 19.94121194530053 -0.05271101277204492
Ba 17.89100837930322 22.117390101289946 15.964862108356536
Ba 12.806736534208724 10.728590193923058 14.709435729537285
Ba 15.064487835318813 11.181112634730855 18.58532129766726
Ba 17.852635055648598 12.346144628515868 22.031713777898833
Ba 19.898712870523934 17.327179567824967 20.081580228643634
Ba 17.19846926812996 16.765465362040537 10.109750503999106
Ba 19.99819935322983 18.558039341092986 15.993530007455183
Ba 19.915978785663313 15.950708880598578 0.6769560600453632
Ba 15.658846217338484 20.96245133249047 9.953272772841627
Ba 17.126554314975394 11.353974772222475 14.72872531046129
Ba 18.013841756128002 0.22803663824704076 12.394175499216317
Ba 17.726996119733883 15.401884584442525 14.058789411405577
Ba 19.84333910472204 10.899119469135105 18.198198320276568
Ba 21.22676270894273 22.755617971012626 22.46443175434051
Ba 21.414389807435835 14.753524367078963 16.525902332781946
Ba 18.725699850020455 12.576053061489997 10.78887694520726
Ba 21.520094222887685 20.001181772572323 2.6167843223963954
Ba 20.392260308468135 1.0003744013887592 18.35549314154297
Ba 19.81127835347599 19.869486533586187 11.961838950365438
Ba 21.781529508450525 13.84627465991869 20.930737610552956
Ba 22.885619014943455 18.614121930356763 22.469118767393514
Ba 22.626583985881812 20.788669810146608 18.555226582269338
Ba 21.501758717209512 15.745579185214531 12.236153433865717
Ba 0.5304979584825367 11.911174836022155 17.836482265073
Ba 21.796563893308967 22.755293620445393 14.616214074174453
Ba 21.569470437035047 11.57170540726189 14.056169114393049
Ba 0.11413658128834682 18.707853207134363 14.58396323730147
Ba 0.6944839825635081 16.662141479011254 18.584523806570918
Ba 1.436031773473308 14.53952786605696 14.495523814616648
