55
Energy = -81.16940868 eV
Ba 6.854715488154873 10.7586991687946 16.485480504262252
Ba 16.52409462243732 13.812060412294938 10.533297045801248
Ba 15.04318125087902 7.708764525594624 16.45916221277252
Ba 10.170161090395284 11.154043755608415 8.243561882220098
Ba 15.837909017319943 14.497185246787334 16.077877249537927
Ba 14.884528932923681 15.228658441075146 4.732653368590749
Ba 9.649824203710656 10.615244744655264 13.23443392524935
Ba 6.18262229013643 10.739387299121482 11.035856771434771
Ba 12.832816539751724 14.922220916184427 8.611771294763
Ba 14.026428935353907 10.968945412329974 19.578819964911926
Ba 9.74159008427676 12.180578068646637 19.685726818328614
Ba 13.066921168087582 14.887379836027398 12.851463174250084
Ba 9.220413274089509 17.357899172766007 8.477503969798297
Ba 5.580854074665153 16.6824189532038 10.84799701818783
Ba 12.605277887909105 14.851766983444575 18.42458843442873
Ba 9.325973375914643 17.719737148071957 13.10110529679282
Ba 14.24857044245532 11.492434041314853 6.699904074590394
Ba 20.58964760305781 12.120334680350144 10.575151603242519
Ba 17.302549494160967 9.592385997584168 9.076747776492498
Ba 13.398392105383449 10.724135347212801 11.120477589871257
Ba 19.03213380624714 14.359633119777733 13.89879522403161
Ba 17.35669472453021 10.521123812547263 13.364166293064399
Ba 13.29123804124758 11.384633936044564 15.476250246014176
Ba 6.669388459373642 13.769623312357023 7.665359956977493
Ba 17.89591409913432 11.144391846635163 17.47240772780083
Ba 12.592176112642234 18.59312224119483 6.126398872435919
Ba 6.570078538165296 14.938697971006954 18.35244294438922
Ba 16.319995932812823 17.33286830799631 8.191435717396171
Ba 12.924350581499258 18.600364801158452 10.73165841763795
Ba 9.664432810168856 16.310344523521735 21.227762014828084
Ba 16.80345291348995 17.673428250844093 12.68803787126179
Ba 13.36368944641768 18.128612687418567 15.558590284717164
Ba 13.070851788924703 14.141621107389343 22.58050589059788
Ba 9.238884116163577 7.577126905800617 10.165534518559504
Ba 20.53767166377339 7.957631042281997 11.588833088107826
Ba 20.456908195114043 14.738932330056288 17.722631507712297
Ba 10.654034789679 8.674283173502518 17.155541025081757
Ba 21.5130090757954 11.147860170164886 14.869215171532314
Ba 16.66198837630519 14.747981078640494 20.141821770842057
Ba 10.535783939308136 14.484158264505187 5.300807890883679
Ba 20.19194036184803 16.358460611014703 10.16893753718899
Ba 5.630391140032127 17.948998814216388 15.237623996972122
Ba 9.23931277963524 14.105610816685978 11.015035695229088
Ba 7.493421767667998 7.1403798516158306 14.11806887550152
Ba 9.541417124533098 18.075545192069196 17.509399468007864
Ba 9.786854530174226 14.149770058200355 15.65052778565062
Ba 6.04370074062363 13.989163099326868 13.907627106961261
Ba 13.786529603725816 18.27731316260703 20.105053572440486
Ba 16.270467043674078 6.6383067379743075 12.171886874502079
Ba 13.318423512340594 7.396331060435635 8.724292768538003
Ba 17.57912584262993 18.0253119050698 17.16014927481063
Ba 19.274669794578557 7.281635966108179 15.615496412837045
Ba 12.087335826662589 7.137471555637219 13.268845376900222
Ba 21.201057416033763 17.761987439780153 14.40856123341939
Ba 18.344324403280485 13.501115874641837 6.83483879093674
