5
Energy = -4.10496526 eV
Ba 6.987274116269516 7.87039836978083 6.759005378155381
Ba 7.840781540056404 10.112269339109428 10.284675339078682
Ba 11.046993500179182 7.784966753689578 8.71681195878597
Ba 9.572325756278934 11.283673763349915 6.73570827610022
Ba 7.614192353536978 6.010259507749609 10.565366314200645
