53
Energy = -76.52457052 eV
Ba 18.571073970374485 16.887898734476472 10.285761741689251
Ba 19.751688421553954 13.479695064682037 12.254931943405364
Ba 23.155121944607888 15.643422980421986 11.305672680744715
Ba 15.798008729450004 12.927692556283914 10.761373104615087
Ba 13.79204977123197 11.184514285050003 14.507062824176154
Ba 2.174879057740841 18.4359987153578 11.190912394639014
Ba 17.94966379980962 11.479207792013895 15.238565558186705
Ba 14.41520600843968 17.284935828452497 10.455062564141928
Ba 21.911280116663796 19.713291155009628 10.449760944745496
Ba 21.863942181353746 13.489114510571968 15.981340822388326
Ba 20.673438313766614 17.519835822166137 14.124791840384836
Ba 11.698039303915074 14.515944306113717 16.354195738914946
Ba 12.30259302648159 17.956422574065428 14.196440263080696
Ba 0.8470345723991161 16.698915469313615 15.115789994960355
Ba 15.86004811319315 8.956079078636865 18.05864246923067
Ba 13.241072408207337 21.405323935171257 11.648566462760385
Ba 19.085178178678532 11.854129559987195 19.45118784267707
Ba 15.951867260534225 15.222383660366466 14.256943388450857
Ba 22.884766831689962 16.5955351063517 18.71254132670023
Ba 17.40365677053194 21.092447557370846 10.031711269133346
Ba -0.005720317578465519 20.551829154049223 14.04932153466969
Ba 11.9263503718874 10.666424716157154 18.612784447121637
Ba 18.74197723175564 15.985610701993908 17.775239575322612
Ba 15.373152809464049 13.250578736038106 18.092890592430233
Ba 21.23495208018995 20.11982268430997 17.390588659888746
Ba 16.4503213422979 19.408741260383433 13.798571150452505
Ba 15.051284027963588 11.29599527622256 21.84116631322203
Ba 1.1189197385746101 20.333849898289092 18.43155865741651
Ba 20.479699073416324 15.07575390873947 21.813206754131404
Ba 19.99487626439089 22.141180749934737 13.772011949124806
Ba 23.290887067642764 23.942847344570968 16.489060674701634
Ba 13.069773187652746 21.55692238479399 16.159526309778567
Ba 16.09499066943302 23.871794354370614 13.972972844744039
Ba 14.696377793034383 17.632840830970014 18.06267350219709
Ba 12.085279000094493 14.502908347048093 20.62565605302731
Ba 16.233319185767982 15.719131414589517 22.05995140468956
Ba 17.19320192748782 21.372093387909718 17.493835319319487
Ba 22.733755986861322 19.01290679550878 22.21100340497756
Ba 10.650647292494213 18.42272968950265 18.61123094752219
Ba 10.662684873801894 10.875340765386838 22.792669999182678
Ba 18.654229854921823 19.263208966380066 20.977645550024775
Ba 21.732081680838775 22.845089548906596 20.395625736451876
Ba 19.18760855441572 0.8640136854645907 17.313106736269567
Ba 19.36113021152663 17.723495500120134 0.9149713596813828
Ba 12.992344041571505 13.929567081828377 0.584261247419834
Ba 14.861555871238865 0.9457143353874857 18.152487407062228
Ba 13.95813631950557 21.202887082762516 20.452021880391793
Ba 12.732255213495737 17.96205640520689 22.97342710654583
Ba 20.167975885355737 21.907086730530327 0.4860499879068659
Ba 15.451409686649953 16.861017287054185 2.496178431095822
Ba 17.582639436676917 -0.5346428338314791 21.35416570813807
Ba 16.088170560034936 20.416852257952005 0.19926859684957587
Ba 18.04716979663644 20.063560409144728 4.420014103451304
