6
Energy = -5.12649807 eV
Ba 11.493916008442236 9.048745586086634 9.277509072361438
Ba 10.257278827941011 12.908810560519562 13.74464443758597
Ba 8.677557379701694 12.227216495250156 9.861482631980786
Ba 12.80987962436984 12.874351067552125 10.546426025149737
Ba 13.123646850134518 9.74507856437384 13.145190235714784
Ba 14.375447092990033 13.604099257100055 14.36374432738507
