6
Energy = -4.50535475 eV
Ba 10.541693821028883 11.754662471507057 14.35457611345754
Ba 14.570396364124708 12.85076595327587 13.242868244582025
Ba 11.203227669785074 14.48736642000755 11.106160220463003
Ba 16.30765347901847 15.763149059615866 15.423441903502649
Ba 12.033827293560902 15.690370292290716 15.108357196848372
Ba 18.52229284532397 12.686616198108126 14.014839130901647
