7
Energy = -6.5524898 eV
Ba 14.429785811444853 8.81937744625466 9.480778911527002
Ba 15.023802226132364 12.588440163789397 11.482474831431
Ba 12.068396498801345 15.552087721181193 11.672033977263494
Ba 13.087023621143276 13.572354444930912 15.067057728378845
Ba 12.279200554003612 9.752968969779037 13.206763826342257
Ba 11.20958436971627 11.830727142793906 9.636409605529662
Ba 9.236123711129743 12.856865278603138 13.374657509650639
