7
Energy = -6.67936837 eV
Ba 11.855493427639473 10.528142580948607 12.359001810196228
Ba 12.875189627668435 13.26712727646875 15.533748389112072
Ba 14.29227933815877 14.032388263887547 11.697001883721969
Ba 16.637124546550407 14.872030532415433 14.986684396183195
Ba 15.949525680312272 10.774860387972167 13.797767820527808
Ba 13.26974037987744 17.250345494363813 14.24873595198127
Ba 10.15207992438129 14.694799201230495 12.537798364897151
