7
Energy = -6.66709437 eV
Ba 8.07592188044677 10.64138229967904 8.320196540306423
Ba 6.701090330411713 6.94214860005442 7.223905270496448
Ba 6.161582533970541 8.36083536096426 11.125701374126187
Ba 9.889131695011944 7.375778168286949 9.755263697423322
Ba 12.345136086947882 10.790998455344507 8.854031342865397
Ba 10.491923974079684 8.36626115803336 5.678567370310888
Ba 9.574462999131452 10.761845691316815 12.281582969754815
