8
Energy = -7.8117187 eV
Ba 11.01573935709728 11.175157863311012 11.116768551773562
Ba 11.681560024544973 6.745778145240987 11.593228146598632
Ba 7.218135939116642 9.323937617304642 7.193555157521412
Ba 8.75238677729254 5.318229760460996 8.567214594417143
Ba 9.97726486634682 12.567684526602845 7.2268854825304025
Ba 11.259643912980144 8.690019723538276 7.811805178424647
Ba 7.080384993661293 12.444551601539116 10.0891321666471
Ba 7.821008128960439 8.540764528323297 11.207534722087367
