8
Energy = -7.78521886 eV
Ba 12.983011723710932 9.576939932513401 12.68581599903934
Ba 8.759841402054592 8.801767816692156 12.670331009658993
Ba 14.771615133494185 12.928755528312534 10.54280111625959
Ba 10.495515367101374 12.119832918334037 10.533019187527568
Ba 12.241280124899287 15.549299337029053 12.543980491332757
Ba 10.455057261971508 12.211776105112161 14.67882446494485
Ba 16.46327735746506 16.328439312271673 12.570410154285916
Ba 14.726561111389026 13.027388366196053 14.701213171889261
