32
Energy = -66.56774265 eV
Ag 8.128943211511123 9.060909985581098 14.544963732815713
Ag 9.232730440166382 7.362264287001035 12.629030019718714
Ag 6.778137387505922 11.356773304604944 13.660037985479224
Ag 7.955204723611926 9.690616428209152 11.734971752675726
Ag 11.787789494116293 6.870903206210244 11.856488058382427
Ag 9.147037490185538 8.048663677662223 9.867469153249452
Ag 10.837364875214664 8.981280986269212 14.589286839788734
Ag 11.602617134496175 7.077914574712422 9.112338377333613
Ag 6.749017609828496 11.940121689025048 10.842593303070547
Ag 9.537304006688501 11.30773897582944 13.803000621349609
Ag 8.238725147169394 10.517275405588677 8.950215828025593
Ag 10.922758634453292 9.554348292010769 11.789781268191684
Ag 13.039388093877264 8.55580163561982 7.425095812691776
Ag 8.173636383589942 13.572710219199433 12.705028225891276
Ag 11.975064764647058 11.066264419788624 6.506681419126859
Ag 9.608026221125018 12.024880907786946 10.748086540268943
Ag 11.030978184073799 10.033431884293146 8.946578782243906
Ag 10.00151955949786 12.454253900467538 7.988016141565232
Ag 12.370142793110759 11.203700495918891 13.843110091172733
Ag 10.994202007575614 13.595821195620836 12.782808276843626
Ag 9.602033719427274 15.724250763756293 11.793926703646559
Ag 12.544960473338332 11.87781389974989 10.812350598949319
Ag 13.26437273443571 8.725365615989563 13.297495621764952
Ag 12.784703057400094 13.14083467472314 8.133996861801563
Ag 13.350376903668897 9.02282132875142 10.479971775545728
Ag 11.006792379397352 14.313050881995364 9.875557717379296
Ag 14.19030767920425 10.784801406245201 8.434174453594025
Ag 13.892897312329264 13.545063935313753 12.809329325233245
Ag 12.363147342899108 15.822440173960056 12.13931373084376
Ag 14.743511172248784 10.798662950105042 12.48735908394909
Ag 13.78546930192418 14.612674114266294 10.186248254052236
Ag 15.376982094713586 12.41937059603778 10.342789022417886
