25
Energy = -50.42760465 eV
Ag 8.863903455415416 10.62641985365014 7.346925793892493
Ag 14.383136750586742 10.02947822291478 7.3918243690518475
Ag 13.19116438470409 12.516515857712353 7.7005260642954365
Ag 10.407553209500554 13.04084199696836 7.990686237666114
Ag 11.738129582591359 10.198946507866493 8.146949575218573
Ag 7.737518494147631 12.79312471633279 8.941836629127993
Ag 9.633716966290697 8.385423308670303 9.147969991384088
Ag 11.836683245468448 9.072929903816092 10.762526680088861
Ag 7.231328131780444 9.947476764369938 9.629169951921739
Ag 9.779145069634666 11.095786870776452 9.87868693828823
Ag 13.97934076175299 10.831361165761832 10.020936013243784
Ag 12.147685285018136 12.990658042685634 10.213763878289695
Ag 10.399176626215786 6.810876579427325 11.447252542498635
Ag 9.52199667560973 13.755071122497586 10.879906561142677
Ag 11.614522275799889 14.054565703735605 12.84066346288091
Ag 8.936738463573075 9.127365692201298 11.812110282543618
Ag 10.875444130620384 11.454391873704612 12.341064081966392
Ag 13.8706458883193 12.455650476606591 12.316296277202376
Ag 13.031755015255795 7.150322340485593 12.58127303746988
Ag 13.698425812338591 9.791140290533969 12.748400616313816
Ag 7.761605184577092 11.708290957793482 11.827340619333365
Ag 11.146134339443574 8.893764971769999 13.598888655421657
Ag 12.358620726347063 11.464244287380941 14.608679506895538
Ag 9.019828713402061 13.312201952935133 13.709308034487373
Ag 8.946829017692288 10.604178745488358 14.228042405460712
