42
Energy = -90.15814299 eV
Ag 16.16601312508832 12.47244413021574 10.4819352045341
Ag 13.735920725947453 10.407698664049585 8.341866808066527
Ag 16.196076564330586 10.998748861072965 13.09013129487741
Ag 15.269208981109305 15.165548673449877 10.863681025188823
Ag 14.669085668410798 10.159455608394438 10.891653843885678
Ag 13.884746901554637 13.36987634597007 9.063031913907578
Ag 16.593045216354298 13.806716127216314 12.892240143291273
Ag 14.350511869482649 7.92007344980623 12.363127380778177
Ag 13.791924046696975 10.083230042225887 14.135522350555805
Ag 12.896082804212549 8.201631367339047 9.829087442341791
Ag 12.035297127868413 11.663082536656189 10.320163087339754
Ag 11.853385160854323 12.168934549081502 7.396411203892441
Ag 14.887930248088976 12.864025440562195 14.9696363043663
Ag 12.30193494202644 14.483523933974768 11.568620965634754
Ag 13.63413200672 17.29155201783933 11.649403060555274
Ag 13.183816598625752 16.11594501726492 9.213867203466304
Ag 14.011455348876726 12.55855910376173 12.345838214976816
Ag 11.11584941674842 14.401989527280195 8.82492690767232
Ag 11.903711483827577 6.384233519235 11.760041366225714
Ag 12.45022297459077 7.507252774043066 14.36472576745158
Ag 14.433009775727212 15.40622114275517 13.581252969718362
Ag 10.835668196753403 9.757648949908763 8.570462968054544
Ag 10.765586894927884 16.538339155190833 10.904521531532016
Ag 11.844633784456445 16.684967597246853 13.643408080642493
Ag 9.363881041334295 12.148076767839767 8.630023669696339
Ag 11.801499404666156 9.310699359991439 12.158167704087365
Ag 9.98930699256365 7.806339190146832 10.403984986399337
Ag 9.840573397666443 7.49790424973989 13.359207913043392
Ag 9.423596455665885 10.571309090075474 11.26187642474197
Ag 12.305074106321104 14.056086559862566 14.69390580952771
Ag 12.562238717364156 11.671252422652234 16.04952817769493
Ag 9.309075288435817 14.009611396211387 10.82010086920945
Ag 11.1966409952248 12.069324495617684 12.902980034499178
Ag 9.901978613957155 14.70454741827849 13.391237230194063
Ag 7.958657087370022 9.618268869880046 9.2254363482491
Ag 7.623863005334093 8.03745641856073 11.807802427062304
Ag 7.214885303139704 12.27921237098626 10.27843570779199
Ag 10.98832865310388 9.75104644942649 14.923463432002656
Ag 9.844757884184006 12.334650312887328 15.243730897691291
Ag 8.164324790877341 12.5670186192436 12.952506697781448
Ag 6.40100569359074 10.470184258695287 12.132579971450426
Ag 8.465588586370313 9.898050965933496 13.905239708148398
