36
Energy = -74.88467163 eV
Ag 12.115373682149722 13.167740990759425 7.049842257270431
Ag 15.153976336387919 13.612965047518653 7.875337105767771
Ag 14.458525239903006 12.248051376954136 11.897800874706537
Ag 14.705021737520065 14.821290890652127 10.462550201222369
Ag 9.82462162613668 10.482305601810165 14.8243850866263
Ag 12.339027698096407 16.378776258928813 10.824228590196425
Ag 13.833741253233667 9.61780498716497 15.49589782454091
Ag 13.086595844777397 15.471651871480644 8.279179251871069
Ag 8.15315953644639 12.367936616090777 15.88657102932697
Ag 14.120866777656872 15.684345539281122 12.984049593908201
Ag 10.320311159614409 7.936765231270656 15.550961798950622
Ag 10.8793682271825 12.674964978054655 16.373245644477255
Ag 13.541837945590926 16.793873617510396 15.619832525067132
Ag 13.645125152075677 12.13693801339951 16.590983437012632
Ag 16.36698347048337 13.936718561137752 12.844901291703161
Ag 12.81807155741074 14.652982131511797 17.27705087561999
Ag 14.919207391443766 14.333779437237228 15.327130569977884
Ag 9.99012940078098 15.383212492720904 12.062874957673051
Ag 10.84809235594245 14.297503717040247 9.43014059447955
Ag 11.797364799220922 18.81674683291898 15.649020792203956
Ag 14.320334240758916 9.579088032862341 12.571641386035854
Ag 11.787392602055975 8.970703140562007 13.532800490438863
Ag 16.947393490347874 10.95096391370026 12.329712037105779
Ag 12.126713603909684 13.713366551106647 11.977456752691905
Ag 15.5548013041437 11.690074553934151 14.591537233884072
Ag 12.039023209180751 14.59890531733585 14.62210810047909
Ag 9.818041771375013 13.090377819517816 13.785170209759197
Ag 13.20758617628766 12.575188177134233 9.479797857008823
Ag 9.73293695918258 12.368583792097267 11.154141647915935
Ag 10.806575390780303 11.365721221472235 8.797955135040178
Ag 12.470224375486332 11.734789329649924 14.029638595051747
Ag 14.019048041998019 7.283767701048703 14.107343895188285
Ag 11.762055887496237 17.211028557115622 13.412135024301252
Ag 16.584050730705012 12.82710806715502 10.192405885853628
Ag 16.397060680503632 8.997213255858023 14.304835099163851
Ag 12.049280244604903 10.766686276877687 11.345256248350331
