24
Energy = -48.10024752 eV
Ag 11.079720721422483 13.13367791883877 6.018811448828587
Ag 9.87182660301334 11.491805802357757 7.862146653358009
Ag 12.2838753365737 12.735905083682306 8.520820844684525
Ag 13.56605842680558 10.450383878025335 9.34184721874881
Ag 11.043793601673455 9.045798908518321 8.63130073265337
Ag 10.013275157569849 14.300992793569192 8.319539435535903
Ag 12.632047181078445 8.260868115929508 10.822170965401709
Ag 15.336639742737438 8.7430294325928 10.523525085079582
Ag 11.076928973818791 11.005327295173275 10.6831065976238
Ag 8.410223811400028 12.769229186987499 10.010825579251069
Ag 10.825594474820694 13.850052470727407 10.976059771882356
Ag 8.5295100638796 9.962653136231932 9.724653297226052
Ag 13.84455818162137 10.32485855505731 12.318874041338578
Ag 13.488486038648844 12.788523642069594 11.007388421454564
Ag 6.728341779371602 11.114208726700026 11.54067050069808
Ag 9.915899390087885 7.918444915309171 11.01849225293811
Ag 11.749797154263385 12.356943488107888 13.206387341484682
Ag 9.04443901473232 12.3356057844699 12.6851155115477
Ag 7.062908444783476 8.107126879459303 11.059868515895658
Ag 11.346890503563813 9.279473291164331 13.092834573760115
Ag 14.456703911758073 12.722427272294372 13.620460209922559
Ag 8.599349614142927 9.586359948423569 12.861313394360268
Ag 10.051861897945216 10.905760200476708 14.923934802776328
Ag 12.85204375489236 10.62131705443869 15.04062658415362
