39
Energy = -83.73824365 eV
Ag 6.701597731935148 7.502753010014216 9.847620286631331
Ag 6.856376161516209 9.957288990999867 11.202452298255881
Ag 7.05974635146046 9.910181649466292 8.415165047250587
Ag 9.255560228949706 8.356035091560653 9.118384651851512
Ag 8.697050894491834 12.562210632444929 15.200309457455496
Ag 8.559388328225971 7.806378864847614 11.92983370775093
Ag 7.318800834542631 12.407209351497798 12.43173193071564
Ag 8.488550878362693 10.144497294431211 13.665164545803904
Ag 7.801660239726227 12.287890583872136 9.68293437884884
Ag 9.690505426185524 10.364635250668407 11.12926456052568
Ag 9.882359043783374 13.906143499777073 8.32823857636193
Ag 9.628977212580676 11.06296106714307 8.020573543941952
Ag 10.143112322426814 12.652898805358848 12.829012906656706
Ag 11.62301550682815 7.108366810519818 8.366283215300442
Ag 8.119621214259137 14.77253789771792 13.604323780981082
Ag 11.290657818259554 7.846023797598437 11.059921938222644
Ag 10.93322961811887 10.93518865766367 14.967189444461813
Ag 10.702675959870453 8.386789650933283 13.718378022412205
Ag 8.999344113488965 14.429166733434533 10.942163943443626
Ag 12.226864424822534 10.506277794959077 12.30249003929403
Ag 11.591826852572988 13.694188719284375 14.990119970023272
Ag 13.092391895701676 9.223127016172846 15.048616512310453
Ag 11.336176438258233 12.451291961048405 10.281404051223905
Ag 13.63275867746406 6.513836113801551 10.2863336716364
Ag 14.26747283291626 9.192738728354774 10.755939024062934
Ag 10.779721211003057 15.507408722211384 12.93441827072097
Ag 11.602368060591777 15.335467786202976 10.245123092921673
Ag 13.398836923007066 7.543633896946707 12.891022266127495
Ag 12.414995351075726 15.056102254137262 7.5928408733327855
Ag 12.140541031063306 12.271750964147273 7.543676436960734
Ag 11.874627829435811 9.874969754846981 9.155193372728025
Ag 13.660024167032367 11.896451486284128 14.29368078169843
Ag 15.222519494888047 9.694952396449773 13.29813441687911
Ag 12.863750348551658 13.781733665987664 12.353337176022704
Ag 14.027288044950797 8.48297129973461 8.092765325390323
Ag 14.724379631938065 11.86219193027515 11.575486522733417
Ag 13.89877585406482 13.78560496557866 9.690717907249699
Ag 14.668787220584026 13.412871125826241 7.053025524809354
Ag 14.4460972760542 11.188686331086474 8.796225605456167
