18
Energy = -35.34170105 eV
Ag 12.581993282661404 13.710779059486335 9.318003281815514
Ag 13.20745893611956 11.010925826465542 9.301495796339989
Ag 11.319013487859017 9.277659123615877 8.103635817160116
Ag 10.63286441964218 11.925118612153705 8.566859848636543
Ag 9.97211358153548 14.065989979341671 10.323634667035476
Ag 13.577889456437058 8.236492373552297 9.204633930547107
Ag 11.622583409012957 12.13063933007087 11.439231766219978
Ag 8.686641682600921 9.948871507567853 8.517893472969176
Ag 12.202206488882396 9.407295717459816 11.387218352683195
Ag 8.691462700331963 11.86090675420349 11.385634548343827
Ag 12.187791791839334 6.696663839832278 11.032965147987149
Ag 7.935578987617118 12.607536856571514 8.78760394626723
Ag 9.86828654304385 7.8857367747549105 10.030018912489501
Ag 10.26449860114564 10.42892868748183 13.07435708947692
Ag 6.493737582301865 10.610278412097337 10.100785662138392
Ag 10.300528200035485 7.703363387928304 12.80261642290073
Ag 8.039943427452567 9.157071538992927 11.974194978987642
Ag 7.116956116780264 7.96314117817798 9.558340809882933
