24
Energy = -48.81233795 eV
Ag 10.474497948913037 12.079509825704976 13.077595030229043
Ag 11.43063814820384 9.437982789561119 13.265758012108508
Ag 8.65671578980941 9.977449759430794 13.32003282189672
Ag 10.538470671016704 13.132980595844955 10.483401743236929
Ag 7.977803295899159 12.24638249307204 11.779621027182975
Ag 12.599217104397885 11.444168049774353 11.368029734011586
Ag 12.137904038521672 6.816807808431655 12.359006093408842
Ag 7.904977878060461 13.962232514564613 9.490207485642754
Ag 8.821797010755077 11.257429953336647 9.32621835996103
Ag 14.000047669741162 8.969467486707197 12.10732958496473
Ag 7.355404998388954 9.457735423582818 10.896869126245607
Ag 9.881524851858895 13.160944233299974 7.616070719761872
Ag 11.611045400263851 8.955023315521737 10.537597506888513
Ag 7.189325874129508 12.44226589090664 7.217023853359935
Ag 14.006143925648328 9.752227886151509 9.394323006444916
Ag 9.41092533123077 7.756119066964743 11.782414758661753
Ag 11.709197103746519 11.254680473203091 8.683936678556663
Ag 13.764579535632762 7.025301519651602 10.062542894400083
Ag 6.043481165083456 11.806766800905041 9.723927702359614
Ag 9.69820886789067 10.231598811470052 6.954557874204004
Ag 9.163414381430206 8.322432508042867 9.009655758197209
Ag 11.04510860995167 6.3413204890531425 9.79494587712726
Ag 6.92884723006409 9.743754261753619 8.000678662595488
Ag 11.765102869501929 8.514039913518625 7.846430046073412
