46
Energy = -99.53323622 eV
Ag 15.472809767150503 7.9384360375450065 10.713306377047825
Ag 13.9877384678378 7.959848552128598 13.161664491169143
Ag 13.437512304642894 7.8763851670536855 8.614128603330585
Ag 12.788771381891198 6.68109734229468 11.020312952623845
Ag 17.04728919550381 10.277029947681696 10.191871929307366
Ag 15.603118263626722 10.199025886458255 12.525727360905002
Ag 11.753324862175742 6.32480324459991 13.685638930495976
Ag 14.077972682824516 10.065386324270767 14.987437361417838
Ag 17.046795949531077 12.626542378048432 12.005728496970532
Ag 13.35118616807178 9.747872947716932 10.690040480772392
Ag 14.893694525507136 10.28625447727916 8.329842953730827
Ag 11.543565937289289 8.779277881657915 15.213794579509733
Ag 10.830510826196695 8.37664337883292 9.683744321137867
Ag 9.930903115396314 6.470775976620849 11.51391972042833
Ag 15.409185423607918 12.408753026271471 14.289499446724804
Ag 11.994985777822604 10.408909072166079 8.246597915386726
Ag 13.016283593701175 11.540976437655868 12.83709174190621
Ag 14.997174337444163 12.258793544378443 10.247877911241906
Ag 9.215405378388528 7.724275644255519 13.966310497854202
Ag 14.555675046969698 14.142396092035172 12.332477942388563
Ag 11.793505360274034 11.508234591120678 15.506653364761014
Ag 11.362013532135164 8.881082602257413 12.51108841864446
Ag 13.48635296723438 12.751752701598889 7.955396440677998
Ag 12.42327188088634 13.439302337495327 10.541274804226926
Ag 10.839218992171206 11.178309219874565 10.938160919717227
Ag 13.061571856070403 13.926620359507314 14.7705709029857
Ag 8.723153062360804 9.116635957134497 11.515555575485955
Ag 10.619133624801982 13.042270533036268 13.120926515605706
Ag 9.445042432904776 10.613043151744991 13.929617458272247
Ag 11.671687870873777 13.734531160260694 17.218263623479796
Ag 13.652398700875706 15.925682080482558 10.355433212979673
Ag 10.557640337483793 12.791784248037594 8.24737615478009
Ag 9.064301871668773 10.50459198993469 8.951083774874462
Ag 12.100397393687395 15.12837715297445 8.16040240183622
Ag 9.363999448422252 12.624415182177357 15.999979463038992
Ag 11.988265676982861 15.458770754533175 12.63808889605006
Ag 9.650142397593893 14.108163269693769 10.65884193684512
Ag 8.10679964847113 11.840729208105182 11.505392688149817
Ag 10.472184817368705 15.087267892339876 15.080619068936258
Ag 7.957351165678202 13.457884687286496 13.814352783002766
Ag 10.900236290694513 16.604643165961495 10.228012830477507
Ag 7.744913097282184 13.0624954576351 8.921819736055658
Ag 9.302233903165122 15.355529397916637 8.123995611640144
Ag 9.194990354748944 15.911319602540456 12.741009866570725
Ag 6.941564724116587 14.490906955925718 11.460735424208076
Ag 8.143606633731114 16.7355775213355 10.305673745798918
