44
Energy = -139.33918508 eV
Al 15.662212116184836 13.216911489655784 15.469685106542993
Al 13.320856429119381 14.012463815183805 16.57355886794475
Al 15.477308872613015 11.335105046246895 13.537042945802478
Al 13.260306966552076 11.852251885428027 14.960495924992104
Al 16.487818401261542 14.124581415685851 13.079072198108017
Al 10.973453211119335 12.334985188524717 16.40373314004182
Al 13.84182442909739 14.550589820156548 13.932874088982617
Al 13.877537269744296 9.27135104074161 13.91735621127474
Al 11.393303807926772 14.89887113247136 14.974244654949787
Al 15.612984670876106 12.13361548346283 10.96676984157363
Al 11.41773378323234 9.961807652029037 15.019649162412271
Al 8.982119693754932 14.00412565739448 15.10669351353923
Al 13.14184638007055 12.298516555532336 12.275930191015114
Al 17.064051661780415 14.448879941845773 10.475860207698322
Al 10.806346876097729 12.333798726895267 13.635689672317
Al 14.475709912815953 14.77128210876823 11.373425616998865
Al 13.662654451221005 7.304328930930764 11.93546394989235
Al 11.989885294299633 7.410152526719342 14.185100185935141
Al 8.849335971644324 10.805728419929656 15.272602814852043
Al 14.491679885555646 9.756546794189191 11.27677801015229
Al 11.732577810659858 14.750486156043126 12.324396414099024
Al 11.827883323916382 9.715135662500364 12.250048674649655
Al 15.086338195195395 13.742269204449002 8.805435930697902
Al 9.584856712545246 8.702432230223309 13.562685671568754
Al 11.011142831306076 6.887955958411235 11.739384721241352
Al 15.136571142778445 10.946793856193372 8.371108357845351
Al 12.78968533587779 11.330382884654728 9.851644415107318
Al 12.536216279114386 14.17345360717824 9.785306094081834
Al 12.180367104936279 8.531326553476859 9.806564228791125
Al 10.048228218682773 15.14798774419319 10.357883015043768
Al 10.5578943186569 12.326841665935858 10.973135807091134
Al 8.785958103712227 13.8857167619878 12.402332425321333
Al 6.964762129039545 12.462552740390398 14.238391995582578
Al 8.694640611849744 10.98617600661749 12.456968829480642
Al 9.602320946369286 8.973243961641861 10.847646366385488
Al 13.022794121228648 12.704149102761457 7.5086055866051025
Al 12.803822322907003 9.835912083146287 7.518550096905815
Al 10.47682044783101 13.296653530119654 8.42639265716689
Al 10.406192967101292 10.479561396613313 8.853133122132085
Al 8.080304151472582 13.422532397455093 9.791204485317879
Al 6.453624243936231 12.355966767347645 11.606425443554327
Al 7.752335025694034 10.657887097645434 9.87155412890548
Al 10.854172071953064 11.520363675042889 6.3128893603530685
Al 8.37946226587606 11.896266091788217 7.524226634653719
