44
Energy = -139.03159099 eV
Al 15.721376595439263 13.154976776002842 14.475816757948278
Al 17.17269763693362 12.984541528512823 12.2153017039395
Al 13.52413525364143 14.716183791600736 14.418860469773566
Al 15.04813921117865 14.720050772909888 12.037429518908267
Al 15.511603084931972 10.351951095033652 14.564494741648668
Al 13.30553130247905 11.957694802440365 14.876640247959548
Al 11.143060175083784 13.734135500635078 15.151274620875707
Al 15.754293207657827 12.738515243866049 9.943854235804178
Al 9.785274692930853 14.70717836664842 12.905735267769039
Al 12.397967938163514 15.640814547748153 12.112785164117849
Al 16.71188474118202 10.321745539850749 11.982012472045922
Al 14.569183657527555 11.985478978657808 12.348779675220383
Al 12.411971647410924 10.336447962201605 12.393011839470095
Al 14.552229175643635 10.23840692028075 10.223057256928008
Al 13.07850125256671 9.149553419479288 14.829154145318117
Al 14.617188513475739 8.66870779637671 12.507415056314112
Al 10.82299731165714 10.97973511835729 14.494921323889573
Al 12.077260217625145 13.002042676092302 12.587262237062768
Al 12.698010521765443 8.283827819184047 10.598860619008724
Al 13.28334420764942 13.767003494896644 10.170957285419554
Al 11.90753468130371 11.213217031539928 9.929090566795875
Al 10.842731088634553 8.290084968294346 13.571246619786004
Al 8.415488279304773 7.402940363681505 12.592332806558979
Al 10.682126352802484 14.250719271741916 10.400641608197228
Al 13.898933550584614 12.014535612655676 8.06075353033256
Al 7.127605026976537 14.440684554701626 13.206099922007668
Al 8.548749522426657 9.947674086837692 13.49825293236772
Al 9.475101639251733 11.943964207434073 9.448245788115024
Al 13.022257654590595 9.445660198052474 8.079946238407743
Al 8.64580284816566 12.558291049129704 14.48634091065265
Al 10.75931278052769 6.610153338964588 11.300635799958135
Al 10.079855981305544 9.361160301104686 11.079661395908422
Al 9.679669354850875 11.947128008163936 12.013257653544407
Al 11.442257475451036 13.301430869685102 7.950985703548816
Al 7.371462293923047 9.582475165414756 11.056597289157663
Al 8.434687288464822 7.225200767629805 9.840535230484095
Al 8.909098891180582 14.434227865538649 8.140747826185006
Al 8.029362585771374 13.951794962048877 10.68460692979919
Al 10.737187341497174 10.632861845670169 7.365613518093624
Al 6.8943794596150925 11.925499747399973 12.267198189433795
Al 10.760849352615732 8.151935337247933 8.736032751473177
Al 8.415030763989009 9.61213506959164 8.529513906891687
Al 8.375051210115341 11.935054883519836 6.994403086486876
Al 6.823454455658505 11.807784518942979 9.353341249650242
