44
Energy = -139.51342096 eV
Al 15.85164377035302 10.044861987508098 10.017700806001315
Al 12.585996393219446 7.321828166227876 8.771783297377555
Al 14.20570080841739 8.111017269277617 10.893080116386697
Al 13.771627818923701 9.709327976561184 8.425817111832554
Al 17.016914513100417 11.464560550761304 11.897567938518705
Al 10.01062415499043 7.0557441562831755 9.2947305779993
Al 15.112357225645171 9.851470675403984 12.902396133489807
Al 11.431979038074713 8.450180653077943 11.038025924429798
Al 14.64026676346473 12.620252113470528 10.09886288281564
Al 12.760791316051218 8.756569666998086 13.31371358565616
Al 11.009749909338975 9.43882845119246 8.171513479523751
Al 12.97701381925986 10.599887336377632 10.89389996922183
Al 15.854056503234807 11.988338142836783 14.44131006891131
Al 12.247126075764571 11.897789565610244 8.591946970647683
Al 16.09100049325752 13.885908470136204 12.233374887287319
Al 8.821069011820112 8.270685852995964 11.552962701845145
Al 13.354057187923942 10.826907079811015 14.928303253387261
Al 8.402953889204252 9.175799950620783 9.013713788585962
Al 10.20880998424792 8.156420811223983 13.722728558985246
Al 13.856276655911147 12.314720574125765 12.66060422464763
Al 10.774768444743412 10.098069629059015 15.478991419757513
Al 10.188817250947762 10.992647609472577 10.396885496401717
Al 9.22701469709718 11.405679260128434 7.672299481009848
Al 10.269831339869558 13.6394728191818 8.651231334263175
Al 12.71055625652325 14.536175191362508 9.293171506584814
Al 14.5978793485578 14.625685561825929 14.338665363575727
Al 14.168123092034639 12.969644189876673 16.431319141616594
Al 6.522822391556258 10.957818989205327 8.488519007859502
Al 13.753099455265826 14.886703039244018 11.75129604602118
Al 8.574066451719322 10.388208606117903 13.653735245375781
Al 7.387033044879262 10.552822410595107 11.174810236654027
Al 11.548415580955817 12.332658465947535 16.718997252330244
Al 12.060554622399131 13.415176031109018 14.248037397262967
Al 11.450534692102973 13.309172998264891 11.359909073845014
Al 7.851993749604308 12.80901392805481 9.740343484424084
Al 11.18730566718924 11.073655899613456 12.958641797194101
Al 10.496887260246435 16.25680098317011 8.85802379867392
Al 8.930870174705285 12.628335792901904 12.219516256498375
Al 12.589295038187405 15.126723331516182 16.297385989871092
Al 11.505250725462776 16.222821345521886 11.322828368518417
Al 12.337425399663873 16.192477064179435 13.826099165575286
Al 9.47279854983817 12.63136340306156 14.891613086899023
Al 9.058641292707003 14.958293582411919 10.806576351047301
Al 9.925971948833201 14.849452224971234 13.357039228484027
