44
Energy = -139.70450327 eV
Al 10.853595192912778 6.522970089845796 13.036642164917415
Al 8.418638731400645 7.554037653764635 13.422569646066481
Al 9.84885717870358 8.462828781502049 11.346555657337262
Al 12.461707104839704 7.458886116031429 11.06601891817262
Al 7.251183677028507 9.464255517326695 11.814541005449689
Al 13.099270480337054 7.819693784571262 13.92297414478394
Al 7.88374418127488 9.967012109347682 14.669067999040388
Al 10.558300731320399 8.958326597346819 14.211756065128307
Al 8.742241459896238 10.391703237521897 9.804006456267063
Al 11.32085379696028 9.360358645005359 9.377685078634068
Al 5.90267098890795 11.259582148029098 13.291512734698863
Al 14.754664015412672 8.818842962208842 12.144916660197001
Al 14.017081850342244 8.821958061327331 9.370797350791912
Al 12.730053922365283 10.235916279308825 15.043237606006434
Al 10.156780233742628 11.314324736368404 15.435454437649557
Al 12.149570157888336 9.978374849641376 12.143086809509407
Al 9.552234895754825 10.926038847067538 12.555610484208174
Al 10.173725992728553 11.27951764019617 7.785299583056896
Al 7.386075477504849 12.281352723779825 11.279283807043583
Al 12.857825364058101 11.005439111491807 7.9503771354686394
Al 8.028290207290592 12.697051215460942 14.055653873810064
Al 16.502871612223974 10.477194879295046 10.939394700469414
Al 11.915601433890684 12.4152157080713 13.258911621009878
Al 13.888270938485592 11.326829183099472 10.55171177427769
Al 9.68834278998122 13.646754427745044 12.083974396182937
Al 12.425415241524407 12.630979476470218 16.064398367444028
Al 11.296888787333653 12.065646157609743 10.373736199029235
Al 14.523193086701038 11.283631936744216 13.316901091080757
Al 11.68586855203722 13.480219180387415 7.9272573967864535
Al 9.05508029787289 13.362938459631795 9.361553970167137
Al 14.126542886726776 13.882189642593397 13.854488827515114
Al 10.23201665469634 14.002603868484123 14.831530183242279
Al 13.355586326701737 13.88543903508762 11.011474173665428
Al 14.485665346735043 13.137177504032328 8.378481549848285
Al 12.46060516694104 15.267891330868792 15.53057090879842
Al 15.55635443141866 10.730045957804512 8.353216665333358
Al 11.733405167422298 15.171140996103555 12.821029803207367
Al 15.902081573695238 13.041385094159528 11.581354695198627
Al 11.01797398561962 15.056880713741156 10.127880399695783
Al 15.640731200916102 15.592998701733297 12.339064393002296
Al 13.162294862294324 15.571620775002637 8.40385952414302
Al 13.729690888862956 16.771205550364215 13.728637842643412
Al 13.214957802397896 16.70307703748144 10.896831633225151
Al 15.476984781540466 15.142252733035292 9.760481722485919
