17
Energy = -32.78071035 eV
Ag 13.71473115676622 9.824202955649026 9.934117326016207
Ag 12.530718255798824 11.090811194858363 12.157465121381842
Ag 13.108224849068995 11.054117830162905 7.487181426755463
Ag 11.500856582223063 11.633130815294104 9.625770345967739
Ag 10.649753508155248 9.645552701385004 13.658197510367973
Ag 9.74884122817279 11.513027144983024 11.784143220044982
Ag 11.44226101111284 8.73815185297024 11.107331242610975
Ag 11.516739637265125 8.91382982970937 8.252396913753447
Ag 10.360318241867738 11.24661381537505 7.040540988270362
Ag 9.247093421482287 7.523575969980779 12.305582782990102
Ag 8.770893885972988 9.036663986662886 7.660524332703688
Ag 6.944061959360165 11.657306670136856 11.30510950155096
Ag 8.153321077442294 9.326353977050996 10.43348645016264
Ag 7.940800181374229 9.894823118768551 13.19719629969068
Ag 8.747554262014981 11.879011742464082 9.204248401427265
Ag 9.711388716097003 7.251559742368742 9.533179023864815
Ag 7.5545457550656785 11.347551295346847 6.817994515847439
