44
Energy = -94.98599030 eV
Ag 13.434791460719126 7.941104277761984 10.763419713224852
Ag 12.686195211376829 7.159988269024142 13.47534322489368
Ag 16.02253088000545 9.00329538776847 10.042385997018599
Ag 15.149570138575706 8.74362496639451 12.92220906581957
Ag 11.035443083615538 6.586158586921787 11.208577554725503
Ag 8.815248625092833 7.863631007894977 10.028072888656117
Ag 13.794898101426448 9.649596318694089 8.508983287011088
Ag 9.968207548857073 7.913501551106902 13.461564443858196
Ag 16.79535207006573 11.017529826637444 11.973479911529877
Ag 12.614787049477693 9.912822673555423 13.466753110283692
Ag 11.32880555867153 8.233897335946748 8.757305882180948
Ag 14.114014437467539 10.649987998020933 11.167785783192876
Ag 8.220772842956597 9.774655374581846 12.134457946043343
Ag 10.956762195842778 9.453595394501638 11.241883657509185
Ag 15.767619873207614 11.955278134489111 9.352137807998739
Ag 14.822306201393769 11.526100118518766 13.920011364252169
Ag 9.193374956961835 8.88114464939984 7.018876252296094
Ag 11.505452279057526 10.49063935780046 7.066361784929613
Ag 6.5446944253273385 9.501029598022113 9.85549731737364
Ag 13.784434696523507 12.205509774787497 7.362604867351624
Ag 11.488988178118296 8.809528808602304 15.663928946475284
Ag 9.150770797139394 10.529883345928821 9.254513261219683
Ag 9.085543289481627 11.80948102061716 6.727469092209232
Ag 6.715017271207182 11.716407336290821 8.20334389740872
Ag 15.227115283426508 13.448270008043952 11.894003145884302
Ag 11.863601797881072 11.577482176163128 9.672628444265786
Ag 9.921891537326825 10.661800983975276 14.192778454637391
Ag 12.55295502105264 12.55806533144262 12.305126916313782
Ag 9.884573639467353 12.067267163840578 11.642507739822305
Ag 13.674706572056461 13.873060566134715 9.588834058280288
Ag 13.743358088817951 14.126323551063646 14.404008653484054
Ag 11.276132753422818 13.450087386796913 7.735902151205281
Ag 7.089903001018734 12.126400548837113 10.946785192179341
Ag 12.154278759057433 11.970770249034242 15.293522601119369
Ag 8.844921489606632 13.387668490887757 9.10501834655719
Ag 10.836141028212847 14.136984711535534 13.716257178462106
Ag 7.97355921352083 12.599618838228213 13.626874504293085
Ag 11.041859966200557 14.433973944741906 10.47616729322724
Ag 13.107724289112397 15.413559382546628 11.998032268699134
Ag 9.54812204305651 13.001350937902878 15.897631975679115
Ag 8.473893160159868 14.588516265187494 11.69974464876838
Ag 11.817112830861085 14.545244976541365 16.406745917880336
Ag 8.456273895165054 15.299942040285591 14.417063313555046
Ag 10.466874138002375 16.495526112551197 12.371919286560784
