42
Energy = -90.34758428 eV
Ag 8.977355444384528 15.335901437307239 8.742502566013496
Ag 13.060564603568409 15.452781927353604 12.582324604236492
Ag 10.991162845568118 15.165158577463792 10.638633825135472
Ag 9.04509541118734 13.664575796493938 6.5562869601172835
Ag 11.497737218760147 14.544078812743443 7.746760677460947
Ag 8.527245609394656 14.018772630838189 11.239705647020442
Ag 13.574821259691236 14.92197578808479 9.704948648207536
Ag 10.490075603906954 14.275424113096939 13.269014669641038
Ag 15.25667795942739 14.70510356179933 14.213580643274149
Ag 7.329369513065245 13.083292670629032 8.81633345691398
Ag 13.179991108075322 12.41637417053939 8.625202946443013
Ag 8.019272337961326 12.800027045345582 13.679429531540755
Ag 10.297303067289077 12.540198105864732 9.35959948535927
Ag 12.664951053071077 12.942169159296382 11.542354725486264
Ag 12.72686666430983 13.590799598687736 14.754487543972765
Ag 15.51889835509152 14.204840067443653 11.515521363224353
Ag 6.341418280654658 12.29531761540685 11.389395900210642
Ag 15.086810311435947 11.613316473484531 10.457279649584816
Ag 8.443265135741338 11.069214953698268 7.239676214998866
Ag 11.134382801891382 11.756083425584855 6.760117137336131
Ag 10.312178378291255 12.06363763303232 15.08741856122454
Ag 15.050097658867545 12.088724460165244 13.298111581661805
Ag 15.09451916396713 12.612965011228422 16.093815580372866
Ag 8.125559543903826 10.628309099154881 10.052606281682534
Ag 10.104197616124667 11.633857180888638 12.014732584821374
Ag 12.360870794469868 10.38268758449239 10.616182109070447
Ag 10.3015446387782 9.592526042854132 8.66830177216091
Ag 7.901472572568388 10.64607246054762 15.49357621370999
Ag 12.439605064958611 10.80837185862264 13.528281573979696
Ag 12.657446738548163 11.277659571718587 16.3465830804803
Ag 12.916377926599003 9.783378854393517 7.859407762990117
Ag 14.849213724673072 8.91962146121697 9.613685699660605
Ag 14.763618334895673 9.483556054372425 12.36581891547929
Ag 7.719425395180108 10.134999340099455 12.74649676708307
Ag 14.86088871252924 9.953400373692501 15.206944402819023
Ag 9.860343703309043 8.784964094853615 11.335472466370895
Ag 10.012975807181697 9.338713954920468 14.1444406509025
Ag 12.138795369819197 7.753369488050847 9.863087778608401
Ag 12.076056682093329 7.885170292081963 12.747594600568146
Ag 12.38472695424921 8.646877566595787 15.422504183513437
Ag 14.350329780992897 6.894193746600332 11.420076405241584
Ag 14.528357343772953 7.34060461447618 14.210304373036168
