54
Energy = -173.11675487 eV
Al 12.13885819452865 10.142755047043309 15.776617319667356
Al 9.72443256666959 10.970573627355773 16.37984662888018
Al 15.531550727333604 7.029046794897912 14.825607130834078
Al 12.804262405517495 7.616730298360584 14.89846191160724
Al 14.810986662605345 9.546925140568097 15.513684906129265
Al 10.093134420290028 8.33195036750149 15.147635482998252
Al 13.997662796899045 12.03243064701999 14.99623761100619
Al 11.369601240877632 12.407709175374137 14.532156354779376
Al 15.866713497091897 13.946298587939973 14.57533105502578
Al 14.014602243901159 7.366026700480005 12.414399145063628
Al 7.8239471171323345 9.848278755972968 14.867796382117406
Al 13.273658630681679 9.90723145980451 13.247378115828582
Al 16.203648167108796 8.928899607854241 13.059755232949293
Al 11.286652197493645 7.422505116536237 12.72400565450301
Al 15.526440359939198 11.58061418404969 12.816603320341608
Al 8.723733793033448 8.199265628324072 12.795580142627564
Al 13.172506003085102 14.533043349211681 14.35429483569609
Al 10.406450466584594 10.267210847285925 13.305656005646872
Al 10.460209745362247 14.890061031945551 14.143661900100504
Al 12.458146567164079 6.679688401105406 10.34820050865616
Al 12.01792789054967 9.414483687505843 10.959566866936683
Al 10.015851197102982 7.73753792825292 10.224911076748526
Al 12.801740532538988 12.147983829146424 11.888716920749925
Al 14.972864244019956 9.532642938137437 10.797986338088617
Al 14.822760862979306 14.162135084774604 12.132054984568097
Al 7.6784686816869545 10.742252750313108 12.361401618137116
Al 8.525911272140139 12.618283777643414 14.594512344174676
Al 7.356005523189974 8.515613678923376 10.540949875548618
Al 7.802224551787082 15.336362266865088 13.91130303155552
Al 13.586437483275464 8.411260851390196 8.712219741544445
Al 15.437565667697642 12.239343835499712 10.21306625302429
Al 9.94461840583395 12.60848045980851 12.199712522276682
Al 9.593452665594826 10.465134679608047 10.44461282970498
Al 15.674113826200259 10.311416323743645 8.238401676753876
Al 13.136796619568312 11.135240638533482 9.32626974848231
Al 7.119121197131038 13.295683014404359 12.327810024587071
Al 12.103171891975027 14.819814305785412 11.900322783883537
Al 11.109811206924254 9.568176299124387 8.228748202311921
Al 13.646631460472857 14.279416930614525 9.756736090506843
Al 6.921725650389566 10.971396376509423 9.55539503368445
Al 9.455156743599044 15.192156385270229 11.615057355029952
Al 11.137819971375578 12.904019323976657 9.858405376198368
Al 8.50300134108788 8.906752672981373 8.122226931999855
Al 13.460816919514228 10.176875108002177 6.637466483148368
Al 6.838310921930506 15.694905111032016 11.15591140131528
Al 14.439887188393133 12.747669332449156 7.556849444209744
Al 8.34161960752837 13.306250543521822 9.904344042533817
Al 9.109480944253397 11.520822858880834 7.97473636123376
Al 11.680402700841755 12.087596108610494 7.2097627957146315
Al 11.392293770680402 15.794074791970706 9.570354633535304
Al 8.646543837747332 16.102369184547907 9.102855032130627
Al 9.833736696981985 14.074910511015 7.662390929940601
Al 12.54468077293132 14.732675738539234 7.261835058126051
Al 10.492770095982674 16.629938051192347 7.161116694361951
