54
Energy = -172.47769632 eV
Al 14.714632857330383 8.94154097565483 8.758086573416055
Al 16.71765479700276 12.048190934422507 12.571091736529894
Al 15.686750935529352 10.327723687983788 10.755576398303054
Al 15.142673504536559 11.488089254580466 8.209441939762558
Al 16.31401978392374 12.971599558680602 10.164421425101716
Al 12.794984478760117 10.268655440266489 7.353597047820377
Al 13.516150969995376 12.855488785053486 6.59697655936361
Al 12.384836044800691 7.8226182741474295 9.307831896333454
Al 14.064253242657292 8.25319983924755 11.581063346886484
Al 15.83105733979283 9.514122350585108 13.273158891751267
Al 15.257253606966298 14.423785179409117 8.09649869279057
Al 12.940521661227583 10.783076339788952 10.112405886412667
Al 12.019596046749509 6.497380614988842 11.840493133760933
Al 10.52439307200314 9.836212501696409 8.837797242484696
Al 14.891301059994092 12.020330258538161 14.527725772807992
Al 13.988729752575807 12.657671730008445 11.893169059421574
Al 15.003091607071338 15.075726936383496 11.138206877866404
Al 11.072177259715552 12.276604179038497 7.981597531051436
Al 13.14640853410021 13.393283873702227 9.437748641759836
Al 11.861159535492378 14.817129578637172 7.3984311717577045
Al 14.263514210552794 9.375655475816687 15.334543709460513
Al 12.206158106165955 8.065116214916449 14.082116973380396
Al 14.312351866584246 14.687852538401952 13.710544165904656
Al 11.362935579828216 9.15869480990395 11.521319021649612
Al 13.212544999138203 10.398905433179406 12.965064715795585
Al 9.694086459386792 11.268052032306855 11.124724084594014
Al 13.3588395228749 16.177508163561754 9.225204588449667
Al 8.004212934916687 9.439740118188702 9.679138872107973
Al 9.887303188368511 7.353807553385834 10.069129341961984
Al 8.493438755039504 12.02395732213907 8.815816817252808
Al 13.712874623219726 11.507729408660467 17.010442139198318
Al 7.404192862541133 7.191509624636923 11.147373272724861
Al 9.623985546536671 7.529005908497954 12.90747057100985
Al 11.625489651201224 9.953091269839549 16.174210206297918
Al 12.163171834575948 12.306951780487392 14.692663582724771
Al 9.256621585096061 14.455659629651933 7.752439277867948
Al 10.442763818036779 10.326189745275046 13.707919862998132
Al 10.78951243641104 16.5732053504167 9.66719881472572
Al 12.381312879491887 15.088798045531835 11.586134539909816
Al 10.400319696175687 13.81794850803452 10.12809436582189
Al 10.675850700230738 13.096804920066482 12.649037007187257
Al 6.846694425238893 11.6488475028586 11.005439034535955
Al 13.53634092198968 14.115725449390055 16.244585610291356
Al 9.93746312843848 7.986906677676721 15.569753852790583
Al 11.671452703065878 15.051453183969567 14.217564887467304
Al 7.626066177766603 9.554168101315573 12.461418249582225
Al 9.858845185724457 15.800221486961526 12.180569130249207
Al 9.578964379624079 11.966602475933371 15.843932291330148
Al 8.27977660490047 15.808800064960923 9.812601359910524
Al 8.237015801445578 11.974685633142919 13.477071756653187
Al 10.761945408598372 14.227226931602688 16.636221816394148
Al 8.100973192842048 9.847361925146771 15.15935236319689
Al 7.920389422822066 13.989183169279839 11.740318750250324
Al 8.987847754695187 14.447105705798904 14.352167594693167
