54
Energy = -172.0478225 eV
Al 16.70030060328271 13.94796945143043 13.886650528765616
Al 12.618110302653086 18.024421532297353 13.414949627190564
Al 8.93173569671664 14.856449395531097 11.218819180082967
Al 16.05623665892529 14.417410697026657 9.004155781283975
Al 11.079087800093896 6.508792821372168 13.98514702412554
Al 7.617473618297871 12.858674336395717 15.190830405126546
Al 14.13751212937238 13.69232506126338 13.10183847640131
Al 8.360115537366777 7.855811331664762 10.024048939317842
Al 9.509555152208137 14.71196114461144 14.156088950676752
Al 12.067745501906382 11.828018929503681 10.539339593863621
Al 10.545365717102728 9.52260054207778 10.55364776200604
Al 10.58330526623814 8.958505420759005 15.043977864983754
Al 12.137317936619073 8.533227838492598 12.437296076461932
Al 16.26677125041886 12.829837534909245 11.21725259047371
Al 12.35007693306969 12.886486543440013 14.981345228501203
Al 13.983852916264903 11.094235307372735 12.179541654982968
Al 8.900721884637958 12.492440652657987 12.655611631365739
Al 11.058818346969431 10.914084625776903 8.166224660768735
Al 12.22938544186451 15.522102376499735 14.48257849001648
Al 11.409408769506124 15.205030186706642 9.824792777527376
Al 13.15580236688161 15.870288779621488 11.930850212107702
Al 15.986204060440173 15.458788320755936 11.59900038468752
Al 13.670174028211813 7.32373431587718 14.329038910485123
Al 14.96658935765664 16.35563176332912 14.032056894371419
Al 12.988091115736719 5.792201734080614 12.083969052970517
Al 12.40827581661842 7.453031490524389 9.836706245454444
Al 14.648898785709292 7.874202918339532 11.431065823893602
Al 12.907286123520947 10.140947064821349 14.708693103006132
Al 10.99953917237748 10.926089406337695 12.847966898850046
Al 10.574447289841398 16.59020798057806 12.380300277161089
Al 14.910667859713277 11.83593138388721 14.930553502035428
Al 14.968507160776923 11.923447153163032 8.9683283310932
Al 13.80447265610178 13.81494143672742 10.45258946388149
Al 10.385771240898267 8.279702849420019 8.136331582959281
Al 14.575004835328757 14.385962187093881 15.798201754529552
Al 16.995996253630743 11.288625690121366 13.212862684313626
Al 11.355807589423213 13.71427167958435 12.36203784273444
Al 10.392564161495084 6.392213111261252 11.23424593806063
Al 7.918899064637121 10.145323014712476 11.454931711048468
Al 9.259024839042043 8.211186632182383 12.765216655584492
Al 12.488100558429005 13.167585397290383 8.159122238788767
Al 6.886210063399039 14.412452182235349 12.976207242214283
Al 6.251498929371896 11.751929949612979 13.002734783923255
Al 7.1770270172812065 12.651285076021608 10.4827169104578
Al 12.301137207540663 18.02086240739487 10.463885959029064
Al 9.729278971515573 12.760921804262047 9.725429411058823
Al 15.348934721334427 9.282590314374094 13.683745209548636
Al 14.908377929790431 17.9985708692049 11.791257781054478
Al 10.080977828200998 11.749337734743444 15.391852135142878
Al 16.16368329150774 10.05132701634429 10.850073787966123
Al 8.369703759767708 10.502848147707375 8.795751232311218
Al 13.545300549073724 9.769432010909194 9.672635193971615
Al 8.221464616552044 10.267162970819381 14.193505540148914
Al 14.35797320919637 16.40682066050773 9.500915293988713
