54
Energy = -172.80579342 eV
Al 10.786329350193183 7.544030670968177 12.000862984028384
Al 10.159297047511224 8.110855785125182 14.565195380316483
Al 13.082073919628208 8.675458393151912 11.184336812728393
Al 8.93660577099231 8.242060113687524 10.079511728547386
Al 12.462629370009559 9.067955007753175 13.714100982768512
Al 8.45522408458016 8.968569733488419 12.631835582593569
Al 11.487575905795113 9.570592384003351 16.290785265936957
Al 15.143283026459772 9.197888328347362 13.230231105237205
Al 11.143369379162667 9.28854376891627 9.171943704067674
Al 14.094623992778041 9.932447298305195 15.710905703399
Al 13.81643016585144 9.190156829262474 8.640281903048914
Al 10.797281771779192 10.384016974640708 11.763262949291125
Al 12.728701623720312 11.568985343987196 17.78352396932886
Al 16.16734881848708 11.44911363746716 14.81900245999073
Al 8.823060174892014 10.393294377510955 15.21016255913869
Al 15.50668707298228 11.568426520704003 17.446816147123812
Al 15.305501147778239 10.097039225560836 10.69199642446595
Al 12.785757886781823 11.457207166396412 10.227898969028796
Al 10.26333377246701 11.990179548643813 9.309707922349668
Al 16.905808773056236 11.597268195045855 12.36986183365984
Al 8.102679366488424 10.74159242707444 10.416292636206109
Al 11.351774785867693 11.453433988476176 14.296268016397642
Al 6.548770749932785 10.459267987162153 13.694552851442005
Al 10.226903173407882 12.036021860767137 16.73549463841858
Al 17.405261672281185 11.460638390332786 9.727160129861826
Al 12.234903155245842 11.01103385152833 7.4406849655212195
Al 13.735417513564183 11.439757066915936 12.839868225087157
Al 8.859337652385154 11.836264953545673 12.88872805594426
Al 16.85792325669954 13.756824185623143 8.489174556100744
Al 6.321432010243058 12.336446039809102 11.83051508630784
Al 13.877859849624294 12.610664122971897 15.418568651792189
Al 15.156000053431514 12.88752105853949 10.705278294813246
Al 14.784291772484822 11.804063952577186 8.264281422905828
Al 12.422449437874205 13.746741163641317 13.382129463132554
Al 12.280788685074588 13.470362174083093 8.243719030879157
Al 14.317698027083388 13.945422088836935 17.722872721724283
Al 10.349555378176563 13.817990752734906 11.671541911782368
Al 11.880068631264734 14.112871683752218 16.503865948490912
Al 8.02445091431049 13.457988155795192 10.069727440937946
Al 17.9013134728933 13.866657676458042 11.007871296967702
Al 12.849810949119524 14.289285679787277 10.767361075178636
Al 9.860101339278918 13.825469299220137 14.513332376971684
Al 10.070376681241928 14.78435743940513 9.152059242816499
Al 7.838951449401338 14.346549766094503 12.722207159335317
Al 15.258112459672661 13.80045616086737 13.260764897237493
Al 15.702907768282389 15.492063199242864 11.036612959888156
Al 14.12390603281357 15.299904417332248 15.350493857546068
Al 14.507149060772859 14.923274841861161 8.639352510395582
Al 13.607115059989972 16.10162912193279 12.766508763805751
Al 11.562605729102053 16.040213406085016 14.631607531073097
Al 11.31872181796486 16.547023914427854 11.083006972671814
Al 12.180406507550625 16.198918291079803 8.421237924247583
Al 9.574386874194005 16.250476839573263 12.952498377452335
Al 13.842044130260915 17.34112321238406 10.298535092502645
