54
Energy = -173.00932202 eV
Al 16.090590981546963 12.228853075958925 7.952658008517978
Al 14.797853955521186 14.483252184538506 8.447447902137652
Al 14.991559550515241 15.516008967832802 10.826166707861482
Al 16.002852067896068 13.003452000695036 10.551062044096438
Al 16.093265574398913 11.85824913772679 13.054664800560635
Al 16.1092691921142 9.07439982414279 13.173353077669317
Al 15.383676657086502 14.369234094499218 13.185832457360267
Al 14.981278993957568 9.878631419799285 8.26332665563016
Al 15.070271552313088 10.365472492067312 10.956642479783042
Al 15.468301889915868 10.574112970586913 15.409842325368743
Al 13.760714860523299 11.972291995969664 6.415050882267308
Al 13.731606654875028 15.574202092159773 15.05757074783061
Al 12.53454673687769 14.660179996559332 9.964380946553437
Al 14.466363834302456 16.924228091725197 12.96252171427929
Al 11.175134698251522 14.971313524966284 15.342662982922501
Al 14.02560837417811 12.84006969560053 15.050655569168763
Al 13.530944012941443 12.68255908642742 11.765255119499928
Al 13.03164113266347 8.948970901597315 9.87410379949571
Al 13.448626263405568 11.987982624509804 9.177795418237597
Al 13.597994046972603 10.4468671920426 13.357411533249023
Al 14.239938481314535 8.12516560740549 15.073281028305958
Al 13.663709238325781 7.878430802418225 12.303194770228616
Al 12.538554067468178 9.672779874328564 7.162660208724437
Al 12.489340437153258 15.040325567403674 12.675633046716444
Al 12.395123651967202 14.253044025564147 7.206680926891323
Al 12.826962473926702 10.410849087950936 16.020411758240087
Al 10.364730141798695 15.981193515757642 10.878917096636075
Al 11.630792327707107 12.5089541438403 13.731309534305305
Al 10.114926832906507 14.444374542259276 8.644649935447433
Al 11.333243068211312 10.023856817335815 11.844304830547769
Al 9.91166008167062 14.421158452795998 12.986548890417158
Al 11.485760719198785 12.634795009933995 16.53466893481076
Al 11.018352172229394 11.981211780682216 7.550985201145755
Al 12.366177116217578 6.401944514657305 10.429400589185773
Al 11.668265428227937 8.571379926535995 14.344171669204021
Al 11.001240281237544 12.475459661078919 10.460477651949832
Al 8.416662298377705 15.598834367775034 14.880073177302965
Al 11.512871671274036 7.4616136699220075 8.050007540615907
Al 10.67947807138199 9.984991954861455 9.194998628777087
Al 10.134464672159837 10.67752327171576 15.229989368519158
Al 8.021917980034154 16.22567583058243 12.2363948088224
Al 8.392689635090075 13.991124474700158 10.692728967824062
Al 10.690709712314051 7.244753632307951 12.31292151054518
Al 9.103915307775925 9.145316503519162 13.37938655783719
Al 8.663819563261134 11.920024894636963 8.955277826096534
Al 9.306388364493305 11.81839855910031 12.513288201126626
Al 9.60760963266203 7.503183672515459 9.765804686853913
Al 9.005519516206846 13.055294584404047 15.337679811357633
Al 8.537081157807833 9.836912521331383 10.70287727385644
Al 7.41331446235211 11.094098639840732 14.379722335194085
Al 7.130804550247761 13.682050708596702 13.30355606529972
Al 7.923104078790974 7.384158719939945 11.730650176505765
Al 6.776815424050396 11.869646965751935 11.325507810851194
Al 6.45491222990893 9.434098207151928 12.486389885377712
