54
Energy = -173.36883886 eV
Al 9.238923386382773 10.775118064541063 14.514310809648585
Al 9.955984528705175 7.91308872359756 10.158639036432087
Al 9.153782155004741 12.318653404095281 16.710090014530213
Al 9.42231230372628 9.036233731596123 12.490353773565769
Al 11.592561223200452 9.09926975456507 14.003169611028559
Al 11.802270569292286 6.966460892371162 12.062209456738119
Al 9.139046442845677 12.338866824204041 12.19644500073549
Al 11.533082872396388 11.02737855778042 15.891283622661142
Al 9.057910189229078 10.58769744488272 10.264098901756586
Al 11.516218503854411 13.038388316046941 17.737820984142893
Al 8.590639803398428 13.680423839682092 14.468909308666102
Al 10.897342759256818 7.697177519942691 7.506101694319333
Al 13.892479867835034 7.61732810889868 13.739673356394384
Al 13.893079979410176 9.481745878863613 15.568069080894755
Al 11.538039930599117 11.722222905872208 13.153726140736458
Al 7.9019880307732455 13.227185823204488 9.871970348443435
Al 8.820337266034981 9.235698360778713 7.973785722617893
Al 13.798123342171918 11.442552035439972 17.3358900041486
Al 11.220677092507666 10.325913405478225 8.54920302957226
Al 8.645029271034407 15.735909559615967 9.32317571723102
Al 11.163845301966708 13.79318560626653 15.1447777361549
Al 13.876907271472922 13.61118265370716 18.93113753769661
Al 8.627761138760139 11.791248728081236 7.7994292787398
Al 11.850106211065151 9.636383571547684 11.226319566360598
Al 8.025548136288462 14.836476891095696 12.093205691398632
Al 12.592071583798035 7.4473170894176866 9.527657616558209
Al 11.476254559471947 12.229963273244303 10.541074220571787
Al 14.492698850998156 8.158271052192736 11.21965401912442
Al 10.486986969490564 14.62923166991515 11.049474071472734
Al 13.848620827428338 10.448665342755863 12.862246777167103
Al 10.495099170936498 13.763733978194857 8.425228818494892
Al 10.306685005809188 15.701282743173675 13.530859380896628
Al 13.561144004933626 12.523971978892739 14.731086067479376
Al 13.820372648880536 9.888566124480988 9.193357284221836
Al 9.47251874060432 17.197432007859792 11.423781814691834
Al 16.134377211506447 9.249409977618946 13.50806480061608
Al 13.145773833655811 14.899622399487802 16.653076786720572
Al 12.993033269469137 12.450283424760928 8.177548510384808
Al 15.919502088655673 11.24948413445535 15.30902525793462
Al 12.793220770671441 14.191540333545888 12.61955472845455
Al 14.13222193951583 12.41891725960445 10.661808359842532
Al 15.441936334393946 13.496117150524437 16.636395207612463
Al 11.133451600108485 16.68083762749179 9.138422292767306
Al 12.658431582436654 16.317411307642725 14.535627660799404
Al 12.926453840857917 14.761623343653897 9.765941007104006
Al 15.953455833511265 10.36516768526029 10.995950662651728
Al 12.197980447102434 16.762165257784904 11.694211171205552
Al 15.735479114519118 12.543841518858283 12.928602155058847
Al 15.002472335138759 14.83892091344449 14.36101633906673
Al 15.667899767863936 11.540749950383056 8.341639162702343
Al 15.28061208558784 14.218178347366822 8.551509893781482
Al 15.277686247901334 14.853123213711108 11.339967279912901
Al 14.639310768898797 16.980662498962925 12.77743307372378
Al 16.88395420754047 12.881421012058238 10.4096933732672
