22
Energy = -43.80517189 eV
Ag 12.57804477434894 11.015450252338493 13.27614269695556
Ag 13.733423289062996 8.828542226978904 11.953007568813856
Ag 11.849004074394129 6.675879392686136 11.386516949912682
Ag 14.296938346709709 9.357285624596816 9.15140886133633
Ag 11.666969343088478 9.215701647118854 10.178139465025788
Ag 13.357580937704641 11.472531517576032 10.645086472502806
Ag 12.177240615659507 10.810812798725804 8.014664356935333
Ag 10.928679205107198 8.790187205650422 12.898746676348983
Ag 9.812256832122406 11.248240715301229 13.496885692510704
Ag 11.448537994916354 13.088973452470494 11.830964847658882
Ag 9.384530741797505 7.752510234152075 10.588416560192977
Ag 12.097842964924741 13.442775021844536 9.157129801868573
Ag 8.184501101848992 9.126567364993994 12.805516048716203
Ag 7.049570104822822 11.542411619471629 12.054885778540012
Ag 7.292299546281355 9.601666780481782 10.135866492001979
Ag 9.512538006869537 11.315862449804913 10.598442346533385
Ag 9.5289552286574 9.55092289998628 8.332102638170346
Ag 9.809657922620397 12.321400713174999 7.891569836650024
Ag 9.492245728594003 14.123352465185453 9.882853379842036
Ag 10.430372490325738 10.574790563125987 5.881568993874676
Ag 7.638028910005104 7.485682985340054 8.445947489898641
Ag 8.803287018276492 13.636448321641067 12.52710070145476
