22
Energy = -44.07542279 eV
Ag 14.835090580426733 12.7244522069143 13.936352030772822
Ag 12.831425222062357 9.957612958326926 9.388996246767123
Ag 6.786947850734697 8.386585164573768 11.192081948087123
Ag 10.514266365006947 8.397826083074872 9.514169373227446
Ag 10.58979978738591 9.949033919039397 13.785614140820064
Ag 10.091788706859107 11.089521768499594 8.651683217146525
Ag 16.036093828841718 12.938706025069688 11.417980854486004
Ag 12.114001005775885 8.809892576501186 11.768543941389524
Ag 11.681588906151452 13.442838753911662 9.399337768540152
Ag 14.28907560648981 12.394831501693224 9.356465365293829
Ag 12.418421178083813 11.693740240630559 7.310720987696421
Ag 9.148982621366859 12.266278699098597 13.208332800884476
Ag 10.816339471727224 14.29201773830666 12.226872890114512
Ag 11.219703789225761 11.477895088985994 11.392668292941174
Ag 13.427178696314652 13.704901776176031 11.685023141334774
Ag 12.10216657876957 12.303840798374019 13.899497389912282
Ag 7.714878987408761 9.793950526106853 13.438822574524849
Ag 7.976014031363199 9.07563483778012 8.668332959805552
Ag 8.50784033583705 10.514262528246054 10.92384296564764
Ag 9.44202422013758 8.013361459803345 12.107341086787914
Ag 9.093349173831198 13.143017205272608 10.376204440870906
Ag 13.977143864106013 10.93128775201946 11.898560535662586
