9
Energy = -15.21357278 eV
Ag 10.99129731400752 10.790660934836648 9.013631264806106
Ag 9.18648554173804 12.269966411282505 10.482394373804487
Ag 9.84418440544543 7.6838950898033795 10.456640530046707
Ag 11.2457019755048 13.514607646868201 9.180405015882478
Ag 8.341685190219994 9.840972400185976 9.424264038992552
Ag 10.074590612425114 8.483372231856896 7.8068623893892815
Ag 10.416275045341745 10.113128074245635 11.73359047827984
Ag 12.368090351674294 8.790695588462128 10.335019533743111
Ag 7.94345467597255 8.922214841131403 11.992491894072842
