17
Energy = -32.79114798 eV
Ag 12.231963574915635 8.374047352855705 10.244753582810747
Ag 14.590361128214436 9.704020575787506 10.420611744045365
Ag 10.387070649031767 6.827637413240561 8.951490763495833
Ag 10.001792524625671 9.581778005447857 8.472892951553545
Ag 12.633642709483647 10.553333526122659 8.597599002211185
Ag 7.369587571322619 9.626104814883991 7.477090305192077
Ag 8.206149536548876 12.148923107294362 8.040013930745669
Ag 7.7254893826926105 7.658917059298442 9.344011917197637
Ag 12.465638078980222 11.243828824503804 11.27588846355612
Ag 7.750241902900854 10.337589307267937 10.196965342351497
Ag 10.572213102577713 12.184410079281696 9.412117820824644
Ag 8.240440873821216 13.07348773567212 10.704376228485794
Ag 9.60532209778633 8.412209828446207 11.184672081870627
Ag 9.600030803673771 11.000403280211206 12.13682584091652
Ag 11.68702497043498 9.113667207063658 12.900842343868652
Ag 10.785849925451183 13.519752248959424 11.85133581693391
Ag 11.586966753419665 11.76372595181491 13.888273213310168
