31
Energy = -64.60671060 eV
Ag 14.233554567620752 10.02682936076063 15.796381123177287
Ag 11.58295830838091 10.78515623810126 15.789722665915178
Ag 13.650516874236411 12.516951109325237 14.770125302869044
Ag 12.415865851274958 8.95334862940876 13.828931985016123
Ag 14.755528713820674 10.516160505943407 13.051285958701646
Ag 14.34434373998347 13.23883352081061 12.148602055245917
Ag 9.770242900155136 10.099120616787502 13.795212616096455
Ag 10.036538678146009 12.801955179843 14.577464421847374
Ag 12.011943056648095 11.641658888313007 12.65442736313176
Ag 10.521122238771827 8.219572024064378 11.860868173154659
Ag 12.065154628088763 14.414326207169648 13.388600938283254
Ag 13.037728191175004 9.334791056833367 11.144284996793413
Ag 7.758603149530495 9.454897839362072 11.961019767936326
Ag 7.756296860306585 12.036197367792983 13.191675167535317
Ag 15.251903922294462 11.144063242360367 10.340261879613758
Ag 14.769950240023048 13.91783152263893 9.527218637142335
Ag 12.193471563230116 14.440577951216087 10.60061988682537
Ag 12.634859874202004 11.794197226653743 9.790646470503047
Ag 13.838834942907408 9.519495922406946 8.41318184059942
Ag 10.112010151598051 10.760318912023994 10.816274545937823
Ag 6.465400858828269 9.828748457138905 9.454220938165664
Ag 11.201608856655572 8.9252573912601 8.96356983112377
Ag 9.802297330798556 13.483449359652381 11.860059598689858
Ag 5.5463116547735645 11.137000940182302 11.740978971332101
Ag 14.520929307382326 11.99075039164627 7.522031372056739
Ag 8.659358608511084 8.156116226229527 9.70249648710113
Ag 12.47991459607483 13.863604564392341 7.781833866284137
Ag 11.591116849523655 11.225401398036853 7.265201870055943
Ag 10.135264187698208 13.011628557089793 9.083792442638089
Ag 7.705351590288358 12.208735413762005 10.323362295922855
Ag 8.919141287524836 10.596448360154817 8.201601004994746
