50
Energy = -109.17268643 eV
Ag 14.118311943731433 13.370113683356019 6.99166133612353
Ag 12.892009838485606 10.977339713966735 6.450580293748304
Ag 15.560220766877109 10.750577001738062 7.637629157984588
Ag 13.38539587602109 8.971162117493964 8.368229705236555
Ag 11.228054025053758 13.049311158479563 8.013106736004245
Ag 16.058592095574422 13.285855006405603 8.974927628631855
Ag 15.947219633870143 8.325536397506642 9.260185464740422
Ag 13.39858680740863 14.65932134912661 9.371903851594626
Ag 13.378550351358799 11.735709351285864 9.133039208335067
Ag 10.708812026083825 9.99933872366083 7.789228349726513
Ag 8.806167930671988 11.782526991620136 8.840567094656812
Ag 11.208704608343796 7.861697916539762 9.688165419707321
Ag 13.771434748040967 7.3502792687301435 10.71399251107681
Ag 16.385007177637863 10.784088610916047 10.343050860428574
Ag 8.604829507601314 9.120566816070358 9.710874362728717
Ag 9.316193894410985 14.31616768563068 9.777475658399585
Ag 13.61839734974903 10.086057081937259 11.345789727617133
Ag 15.651041507605779 15.326230762025467 10.966945641701887
Ag 17.419214228675656 13.107838694868834 11.448018105077532
Ag 11.701836543340265 13.205211483198108 11.064620228112247
Ag 6.693268524791837 13.625745305284115 11.710187327339415
Ag 15.815297305219643 8.659280492785497 12.196890216400849
Ag 6.838791658890019 11.020658656259307 10.668258289790156
Ag 10.9207279490871 10.543924889142392 10.480239003545018
Ag 11.335825424997116 15.949138954070223 10.847568602785351
Ag 15.934158543637473 14.161478610654946 13.577638136330952
Ag 9.205652742128658 7.0810280006054835 11.4750652831962
Ag 16.07468062473125 11.244285705566439 13.233712399910262
Ag 14.54418557675001 12.802722406975278 11.461116228373218
Ag 9.097533109811058 12.35330120218837 11.912656182660415
Ag 8.842038422487445 15.41862495276669 12.293949784524846
Ag 11.743179007317066 8.229954971157452 12.51986318524217
Ag 6.745947037906969 11.230957818895064 13.41543549921976
Ag 9.215710418071021 9.62794201276618 12.70800501609992
Ag 11.534555707484984 11.225870886534446 13.129699654184428
Ag 11.209823403320353 16.590894022485553 13.580465100966853
Ag 6.767824428149432 8.550344822720717 12.099487669898414
Ag 13.726486513176734 9.758389650706091 14.124982063900852
Ag 10.701636012697573 13.821864199056408 13.779226733594449
Ag 13.775025934787914 12.627292632670692 14.273637888248803
Ag 13.343537181511852 15.06217897362359 12.714895515427513
Ag 7.694006257097998 13.726716339833713 14.329518156386575
Ag 9.51092332038727 7.127375861228332 14.179113137949267
Ag 9.019553377274267 11.423514946670577 15.145471839954974
Ag 8.953922761021131 16.075098520775416 15.048965785803537
Ag 10.9199610410725 9.30715412188516 15.096659644579924
Ag 7.614783040280556 9.01755835332559 14.899048216673174
Ag 11.702170409857267 11.908106574291919 15.898270053773576
Ag 12.491535594217652 14.797604883019 15.572201565489738
Ag 9.729793512940288 13.802157926127196 16.44649853133107
