37
Energy = -78.07697097 eV
Ag 14.65712045751737 14.142729836229954 6.448906035679863
Ag 14.952364020035429 13.549235467936581 9.159972142336159
Ag 15.448858868079869 10.839782246005983 9.950741520921694
Ag 14.310044661945904 11.601311768792625 7.379370282501652
Ag 14.06247343361035 9.023556153799408 8.242650259881477
Ag 15.324744856958027 10.23394476692932 12.799642912234589
Ag 15.447026450054855 12.999970797772864 11.828455783211863
Ag 13.83667947175682 8.698503884251434 10.967868896701285
Ag 15.54381684143131 12.344669952183985 14.563476852514897
Ag 13.604405584363857 8.064573373520345 13.634588034268234
Ag 12.866314816320433 15.240965805442523 8.22749393213669
Ag 11.903082409063892 10.304567900872312 6.890047791834696
Ag 13.088390765822485 14.541899217095107 10.93750343551396
Ag 11.890732488470148 12.68724788678694 8.936042296454888
Ag 14.103996971543154 10.110072926594228 15.419814432392076
Ag 11.660782900141404 9.76737821403318 9.561386029393804
Ag 13.079152425758538 11.593279448979116 11.367942979715473
Ag 13.523357324468229 14.055770700537147 13.575977567898418
Ag 13.272132305470954 12.723623025414993 16.125193744022933
Ag 12.035968405037828 10.476564679010792 17.33948819963875
Ag 11.424275973656535 9.285632344517492 12.269501657852675
Ag 11.433950714638764 9.114975361953523 15.020554336340908
Ag 11.776146982375053 11.784800697195777 13.86923532201419
Ag 11.59798982290961 14.836036557582812 15.369477472112106
Ag 11.185370309510493 15.610985699019134 12.705567149546388
Ag 10.5542397022484 15.163895045811426 9.76851295980171
Ag 9.640383893194693 11.174819650014859 8.22368351653488
Ag 10.647877191110037 13.002280579906621 11.607983802411544
Ag 9.29652506493898 10.543473023549236 10.90992772278736
Ag 9.263304979064461 10.337127189774247 13.712481071598827
Ag 9.252009662987662 9.991942538469495 16.60275093471999
Ag 10.374991521410509 12.464273950108925 16.24180402331204
Ag 9.332518263657732 13.954743225463794 14.08695253292198
Ag 8.491875729632678 13.131080616660286 9.763273024684167
Ag 8.515804215771825 15.118686422338266 11.718289022433384
Ag 7.7799944037439825 12.386832710527043 12.394136972885198
Ag 7.728375748163084 12.00584597178455 15.286384985654614
