10
Energy = -17.76089787 eV
Ag 9.086101705378065 8.330294325121045 6.011610492790889
Ag 6.984381524546642 9.7078702617469 7.058112083193231
Ag 6.71015770613258 6.9696582881914395 6.618811180315141
Ag 9.525189004980435 10.912851802768747 7.247098625167318
Ag 9.072395231216937 6.0655711788399955 7.658003198388663
Ag 6.612996375223676 5.229588405261858 8.874639378233336
Ag 10.199191042225625 8.484650144726418 8.49156122215692
Ag 8.088444281901754 9.840254743128622 9.549687141336358
Ag 8.375504786169365 7.106526192219623 10.098954452537527
Ag 6.013141200767689 8.020237516538527 9.0590250844235
