47
Energy = -101.26414881 eV
Ag 15.190656481849732 13.720074829350683 16.18142730536485
Ag 12.861057934095088 12.275934799827914 17.002295122065988
Ag 14.84046861976333 15.958564094373388 14.500541171807109
Ag 10.273624417012687 12.989809618550765 15.825280449604897
Ag 14.835352059870418 11.10859772491947 15.268400357629528
Ag 12.703231218405838 14.066319740682859 14.647898544189465
Ag 13.082654331588083 9.302068109466855 16.620312034539655
Ag 10.017905531126129 15.316023182816023 14.417051756926984
Ag 17.33949904488875 12.139858718189465 14.883393745514741
Ag 12.283628588746259 16.878010417554304 13.819917511192731
Ag 10.56841661038387 10.514718305637034 17.09652600989917
Ag 8.151811050886277 13.233992451380534 13.828270368190347
Ag 13.250290081751189 11.64082846915758 12.241894716358486
Ag 12.041331331473433 11.039598066756806 14.687291609946563
Ag 15.381603625714543 13.439151763013864 13.452886907734587
Ag 9.237220918663631 10.65764328290499 14.552159409909308
Ag 15.994459978000647 10.804095024137013 12.66730131525572
Ag 13.730803878286395 8.920049270329294 13.912691858954348
Ag 10.93557926984921 8.384949417538623 14.907800282333145
Ag 10.77887848992465 12.851764697501377 12.896401697774756
Ag 13.696897154918648 15.189264178242219 12.00616068618734
Ag 8.021937639635139 15.642429708062915 12.38920417073762
Ag 9.664501295104921 17.787804602141865 13.182998457024174
Ag 10.837178749332919 15.718692033540503 11.731550320699368
Ag 8.82480765363289 8.418498784868458 12.849840480464866
Ag 6.587043507393884 13.22933636441948 11.34131805279615
Ag 15.182483285856538 13.012750094434356 10.718971595004676
Ag 11.394646025049937 9.340153723002894 12.30318212853667
Ag 14.289429670504806 9.07407439039766 11.238135101726096
Ag 12.072801162962143 13.689892262447083 10.301771474698405
Ag 9.16498995404959 13.693742848964654 10.725575301299928
Ag 8.25496173765934 11.061545318652167 12.042020648054471
Ag 16.25883335355659 10.571780693162449 9.797938846726838
Ag 10.777561674427385 11.291568194515717 10.415636674980137
Ag 13.445981215176726 11.096093926750317 9.419367741071907
Ag 14.194547417491517 14.980739802516267 9.089378815393424
Ag 6.730695787545863 9.150100669350717 10.770093665634217
Ag 9.351274154750598 8.96366813401913 10.088746279153684
Ag 15.402550169789075 12.640948268681019 7.8926616197294415
Ag 12.057032224480187 8.610399963880326 9.616038031839727
Ag 14.630488437542741 8.643762747790957 8.448617241246223
Ag 9.92024710729636 12.95559116007421 8.186084478661707
Ag 12.628819504171421 13.068534283236765 7.560307024815969
Ag 7.8387514456021075 11.43933261703886 9.367728241673971
Ag 16.477695755787057 10.182786633603325 6.978248584825083
Ag 11.138210310007562 10.498102163877698 7.740920126293119
Ag 13.754620695419199 10.67069063248897 6.625315219433031
