29
Energy = -59.73317198 eV
Ag 14.586426533257121 10.066113878523893 8.416509678002399
Ag 14.129623964745905 10.981482582352733 10.936648449955051
Ag 14.173099377434 12.115097616005952 13.4502857821407
Ag 13.001416993659253 9.52055660929438 13.036446930671332
Ag 13.318093401871554 8.361355516548032 10.334746369229542
Ag 13.041687109158204 8.089406076376305 7.414073424318655
Ag 12.331350425353135 11.270599347884591 15.341898601704996
Ag 12.903852550312209 10.900881951147875 6.3824605084835735
Ag 13.125452880156175 12.548651989879351 8.587897995317014
Ag 13.370025132201691 13.67176927263178 11.14611603531246
Ag 10.702906498541878 9.342459721657004 6.584576072629331
Ag 11.419992301743656 10.528441143515467 9.91302500375319
Ag 11.523306480847749 11.869568216262074 12.431523291993003
Ag 10.830285773070088 7.7649715353215445 9.022663053113796
Ag 10.803492912563764 8.35857345384562 11.807233540418885
Ag 11.240646805147824 14.683321512210233 12.714584184362476
Ag 8.411281490293199 7.9630711191662655 10.468664850918511
Ag 10.836499931196297 13.404937131470279 10.070197869705098
Ag 9.03057375799 10.61445114061388 11.484453698610382
Ag 10.102375777701841 12.8482623774968 14.683147187889341
Ag 10.490149402188198 12.024511053244114 7.565979577259833
Ag 8.888365525042529 9.912500455219952 8.525206369046836
Ag 10.270349120157015 9.963581785202283 14.144202174640768
Ag 8.124160737731042 8.552231468059611 13.211478421491238
Ag 8.899332497504457 13.376422400078136 12.208738477135034
Ag 8.291592977811845 12.470631020602106 9.44997816402838
Ag 6.607728782010146 10.182849929753482 10.062787720842826
Ag 6.421395166645451 12.363084965349456 11.754615435686471
Ag 7.8234123305191625 11.333353233426466 13.962791391215806
