33
Energy = -69.67981931 eV
Ag 8.537791349975963 10.99060512415747 7.896843633252781
Ag 7.137351082713591 10.20688055085913 10.257804992699862
Ag 10.047802504779904 11.805562511514871 5.641833204164933
Ag 8.092888723693918 7.8417534369080455 11.497336787727402
Ag 9.6701738535481 8.947014449760024 9.485213684746071
Ag 6.670898987724974 9.516520786615404 13.212141249520496
Ag 11.25220896022677 10.143494205131207 7.496150226020527
Ag 10.921173959743847 8.068228506492828 11.938114147415375
Ag 12.461801086844941 8.631793027550364 9.614517113998117
Ag 10.55981089779923 13.017052857858067 8.10620698042837
Ag 8.771909783485498 12.531979811927828 10.215194411057794
Ag 6.969326572864288 12.105683766221306 12.387861127366909
Ag 9.316881649031663 10.383960043388822 12.092436314221024
Ag 11.484986596014064 11.20948693770845 10.258918986619767
Ag 9.041039984223287 8.339623717047074 14.130233662716863
Ag 12.688541584763442 12.39905083669545 6.399563037788705
Ag 13.867922113324555 10.784017049278216 8.31497487808369
Ag 15.181146365413742 9.227893520827728 10.213233407040626
Ag 8.599205599048476 11.152966076480764 14.715076112730886
Ag 13.236779619068615 9.568067212788819 12.199121597021596
Ag 11.287070486964513 9.949749971280886 14.17448244752207
Ag 13.228973634865975 13.544388759279567 8.948082467100837
Ag 11.107179257650207 14.04814266546985 10.669964892334166
Ag 9.499775535183938 13.129869827206932 12.891620073541628
Ag 14.518385142413388 11.855883304618862 10.839281622162762
Ag 12.249950958805366 12.278615535303915 12.703439318614143
Ag 15.908918310913593 10.236062486494767 12.75003236563983
Ag 11.048572101065918 12.590054185301273 15.21526441662511
Ag 13.897978169835639 11.031161603238905 14.588129789402837
Ag 13.780005973464037 14.454327216898237 11.626036020134464
Ag 11.520664383315589 14.965370546437462 13.309105117927041
Ag 15.598059966500118 12.94107115251627 13.191998803781837
Ag 13.582681300202156 13.859573247884526 14.778699086986306
