54
Energy = -118.07339624 eV
Ag 18.235726295816466 12.893063535321417 13.405562885424779
Ag 16.982229552118564 15.414966742716492 13.356292285512382
Ag 15.484882705172467 17.257889727800002 14.701526846775849
Ag 18.033262717868336 14.222645837305985 10.875878532840856
Ag 15.859373951996242 13.392704494082697 15.08538509497734
Ag 14.432839864820483 12.854702866076925 17.565792366291053
Ag 14.184506204825169 15.48697754450198 16.393339197676287
Ag 17.43960161869271 11.508582431264555 10.846599776411074
Ag 16.450955665386523 10.810071534699642 13.546126327552974
Ag 15.67497029125174 15.735495741484558 10.844682773947952
Ag 15.662786408984228 13.149172207308656 12.244843714943466
Ag 14.576486254778354 10.845963413350079 15.64555701319979
Ag 14.059910629339228 15.204102402293296 13.444144834021976
Ag 12.87765540936509 17.724744678591914 13.90439024207676
Ag 11.995976603495826 14.238167581950021 17.73218317314188
Ag 16.39712128107202 9.021624488944795 11.301014879005523
Ag 13.337943671397664 16.963788784566812 11.258012525105382
Ag 15.770368316270813 13.352121352916397 9.327929844510912
Ag 12.905434056732888 13.22649342668495 15.24640280425531
Ag 14.624024136279896 8.802313047692252 13.521878322849119
Ag 11.53743477509054 15.700343937815711 15.279983445638827
Ag 11.880333852977595 11.338566785380221 16.955039035437178
Ag 14.432729009639809 11.01201573009225 10.48509531297747
Ag 13.376938665951263 11.521477130130785 13.065694624527941
Ag 13.627166969320836 15.472577990204915 8.763756627126602
Ag 15.445885179983451 6.531347669791915 12.112031716458771
Ag 11.084675866127794 18.528722691894387 11.850501557089764
Ag 13.734170642468584 8.285441547934486 10.725040349889742
Ag 10.240763172871501 18.193309520631814 14.631201624660099
Ag 13.341719666912093 13.796884253821917 10.845620927781429
Ag 9.849830119944162 16.241738527273128 12.70223923999062
Ag 8.777352320111756 15.91303291539662 15.418328473984925
Ag 9.950222667353856 13.309596517884689 16.031703078876056
Ag 11.537567086282124 9.217344399906914 12.179313362278117
Ag 11.51398918740887 13.969757293488165 12.921304981396426
Ag 12.811129510780082 6.767235323880623 12.956771541265795
Ag 13.423404326143057 12.392004433294849 8.256821547894745
Ag 10.643152611115374 11.468246854990655 13.96414448665312
Ag 10.979880540248498 16.241224912238454 10.097601020569016
Ag 12.351903712477624 9.34172849721876 14.947713623687834
Ag 11.309678958277036 11.84160749709162 11.095695594480722
Ag 7.950993281115138 11.53634286437047 14.893477077909427
Ag 9.757176974996357 9.68838121063574 15.954301960331938
Ag 8.681810565180754 13.85413574394571 13.570382628222449
Ag 10.491682312537085 7.445652507869137 14.217476336711364
Ag 12.01188982131696 9.84651700815518 9.20472752498152
Ag 9.373456861998344 14.095222037843925 10.84981757297317
Ag 11.138927542558058 13.885780835514987 8.696288788209248
Ag 8.491128927918234 11.651879037365536 11.875452128616613
Ag 11.09472332417693 11.574333430044359 7.072266963045422
Ag 9.28331613288479 9.302421979877002 10.508462317418223
Ag 8.736751255972102 9.292175871372457 13.256198588727225
Ag 9.213527199431855 11.841429518968987 9.130235162720854
Ag 9.569302653900678 9.386047821892507 7.7809564920808265
