20
Energy = -40.16541110 eV
Ag 11.560336549306694 9.474418671574412 6.921186402933407
Ag 13.389927186339312 10.749995500333169 8.787132024078002
Ag 10.719679000779506 11.79956822420984 8.093407926915207
Ag 11.25215626968376 9.330069583533662 9.652209629565618
Ag 13.279516072374006 10.774476715641772 11.679533045273653
Ag 8.905367510673077 9.68087280951248 8.252457345058275
Ag 13.513020665320436 8.225504344167868 10.615564820409759
Ag 7.852103593983949 12.220028060432979 8.38417558206869
Ag 12.073644605032456 12.80389242411297 10.30795557696048
Ag 6.9461270858632975 10.460175658360416 10.4545922021081
Ag 9.662573094446582 13.997918373252645 9.502832808208392
Ag 8.590687910001877 10.143930429066394 12.984468800108191
Ag 10.93947269232087 11.680808891884762 13.155416428650852
Ag 13.103389401726274 13.341100025152478 12.816178814265145
Ag 11.222569130013705 9.07281659487721 12.502152915809228
Ag 8.817033472127596 8.472551920101223 10.760495633470253
Ag 11.029926464246332 6.814195953713062 10.984832904373803
Ag 10.44787495577693 14.188322584553895 12.163487033196756
Ag 9.492408407754136 11.485660838134597 10.71179799436139
Ag 9.190605483779215 7.354714188993016 13.248457135997745
