44
Energy = -95.30088650 eV
Ag 14.26717388328535 17.254944136560564 11.614444491298647
Ag 15.559952008323311 14.856764596836038 11.002135235421875
Ag 13.386328172500429 15.625596717861118 9.359652652183332
Ag 14.133227301165807 15.049734921048598 13.405527890697579
Ag 16.668705796274335 13.982319927405497 13.502132675001866
Ag 14.466243505166357 11.447812313776808 6.77854688391706
Ag 11.939244377725698 15.78888964444615 11.822088547610422
Ag 13.535683880647168 14.32801690675019 15.999538946069519
Ag 15.104982362030222 12.939171922897472 8.983148832197566
Ag 12.511857112855141 13.459005332734842 7.721413748548082
Ag 11.360964841923458 15.385835873165643 14.525761138104496
Ag 9.741314706808758 14.18413115058562 12.418039157162735
Ag 15.538633538309119 12.176894989945676 11.73665743504861
Ag 13.053604558040552 13.311947677207929 10.795570221720352
Ag 11.722551157466013 10.904286233428383 6.389310997067799
Ag 10.926904300642295 14.54407860426593 17.205804118733134
Ag 10.010096545562504 11.979218822531822 8.294757407710376
Ag 9.333770222985445 13.455494961659609 15.089961395933441
Ag 14.677619131592452 12.171323128945701 14.435485821755815
Ag 12.168251118923171 12.972145633605821 13.40682948009073
Ag 12.742551311763407 11.01234115505993 9.023609605267431
Ag 10.630785725852462 14.417481973438457 9.6705606567741
Ag 15.264787627537464 9.678057760775882 12.99302515668432
Ag 15.227543624920036 10.059040885982219 9.876835905411339
Ag 11.855035392403932 12.18680459296384 16.10482735207134
Ag 12.992393476343045 10.649469572349949 11.817410364266609
Ag 8.122055870483223 12.944843984618574 10.363771550628073
Ag 13.39699789073412 8.870532746732207 7.296038258201472
Ag 10.615129328586129 11.84535956922869 11.012367379395545
Ag 15.308897483223957 7.545693356518148 11.163867731621878
Ag 12.724482438648131 10.0307370621436 14.56372083418926
Ag 7.59363754474243 12.388599475194873 13.06811328682943
Ag 12.94788992645195 8.283312247368585 9.968753200934966
Ag 10.172345767446805 11.077940419954263 13.708900603722721
Ag 10.689808271695446 9.155063983418975 8.458262377152097
Ag 9.359708463968383 12.181264407357563 17.576915199264402
Ag 10.386057296632575 9.86184215344285 16.301582112147987
Ag 8.472144260440547 10.129864037042294 9.892684212301893
Ag 12.9578946345443 7.845944616184842 12.73330604346947
Ag 10.587803123433973 8.98670632762386 11.3275123125279
Ag 6.152979256174806 10.981870176144671 11.141999433231693
Ag 8.082485861535917 9.598455054358725 12.664898225781046
Ag 10.413194841458786 8.325619873431034 13.995807722329687
Ag 7.940306057455828 10.918413074151394 15.44018491929966
