52
Energy = -113.47514799 eV
Ag 12.34513776452639 17.865337917952335 8.484637170669071
Ag 15.343344741695502 14.412066868062798 8.670870487446289
Ag 17.51874997500693 13.431373219072514 10.155258200337927
Ag 12.773048195266833 14.909076686977107 7.719547388817811
Ag 13.68961258600161 16.131456457739404 10.08332188425826
Ag 14.089106805346512 17.081513747289574 12.927412503688492
Ag 16.12656412116175 11.749761482342556 8.17159328419564
Ag 15.84321638060413 15.18604808779136 11.464072317244081
Ag 10.70391724953419 15.852919283743198 9.273753125208623
Ag 13.35967532066211 12.16773463568715 8.152055093094805
Ag 17.2686719425362 10.659820492604894 10.438803156960885
Ag 10.470259934924448 13.166619811732277 8.071319795745948
Ag 11.697838811613082 17.525683427547893 11.324627108902567
Ag 14.810812979479756 12.512414034989453 10.753411351154472
Ag 16.775765170085055 12.60696707158889 12.76581149068023
Ag 13.003793923628095 14.66370412101884 12.486977872512117
Ag 15.51583746982762 14.731759204581826 14.132622144458939
Ag 12.111394184217609 13.385905853227387 10.263326551122116
Ag 14.50585959458702 9.853749502053114 9.599809666805895
Ag 8.367647770802884 14.453997594383122 9.518383339962613
Ag 11.179776860528564 10.73004156106574 9.292089094600858
Ag 13.908488627807689 12.319363821764465 13.67422244068941
Ag 8.483883446150067 11.672961332904064 9.63421666755262
Ag 10.140287820860943 14.86722691909593 11.779961497970202
Ag 15.538130118897687 10.155240663723076 12.41655883996173
Ag 11.076577805737465 13.672762726886528 14.2815257588013
Ag 11.159857890116442 16.550974148514687 13.834130054214377
Ag 14.682781283133004 13.13665813617486 16.341220934764753
Ag 7.724255401647481 13.298012081934997 11.951389468712742
Ag 10.231678148883923 11.894407320473073 11.90542269458417
Ag 14.37392493597716 7.805467554132571 11.603333289458213
Ag 15.837731470042497 10.932231264429918 15.07676824339139
Ag 12.754424713419004 10.599671327164456 11.67290746234115
Ag 13.13039017021479 15.295460052789528 15.360749141776834
Ag 12.016541595343556 8.199591463775727 10.236020725546862
Ag 13.179249347469787 10.690843409568341 16.403290360682856
Ag 8.63126356811905 14.992767251932499 14.141083978512015
Ag 13.701363567225403 9.051225889526005 14.160525785484053
Ag 9.112550364095085 8.934012277369707 10.09277306068871
Ag 11.480233836775156 10.910478922781728 14.18602740958922
Ag 11.995817497866646 13.176947676473183 16.98595480431919
Ag 9.298505425234795 13.688923458704306 16.573302179326387
Ag 7.756262645395693 10.482818441062973 12.159810648490943
Ag 10.453948003867053 8.97408392793391 12.504833985837909
Ag 12.288798589221651 6.873151280135912 13.152803864530494
Ag 10.134759926436685 6.442472000413336 11.355365105021683
Ag 11.37208219277719 8.490641333054691 15.60431623126883
Ag 10.200245755147403 10.96340698814878 16.602195160599372
Ag 8.642442764958176 12.1075195194967 14.36808728997938
Ag 7.834851486978665 7.760655067471389 12.42652840474954
Ag 8.7390817554869 9.317404106380806 14.728127178440266
Ag 9.701455823232415 6.7063991026660545 14.20773998404019
