13
Energy = -23.59375641 eV
Ag 11.9574219039409 10.51437176510676 9.379493990298977
Ag 10.35844883849734 11.091228731036205 7.182722382135839
Ag 12.054905528466227 7.840828768871345 10.614426490777895
Ag 10.500726128863933 8.391208215167259 8.35048742946898
Ag 9.812546173990825 12.222543352597505 9.720178811050198
Ag 9.916182506329683 9.5868350101685 11.026060193776974
Ag 8.558159171711369 6.457048441616845 7.837981864780136
Ag 7.551796550186596 11.020104042876081 10.785446546558818
Ag 7.675282988730196 11.39712296401322 8.054178319604889
Ag 9.427667486089137 6.821352212418215 10.481422700441161
Ag 7.624718060587694 8.342899328929919 12.01953358214452
Ag 8.44769855313356 9.154318509071478 6.629408387023581
Ag 7.660299793494177 8.699073486964796 9.252412671223881
