24
Energy = -48.59206482 eV
Ag 6.808191483601319 7.3018689530303575 8.277822359748583
Ag 7.263170022084486 10.217098213903869 8.470705081490339
Ag 8.648392708459133 12.80127435967368 8.922577847603186
Ag 7.263844044808977 11.480150290444799 11.033036122437816
Ag 9.41403262161901 8.2277357710741 8.18857516298783
Ag 7.658432859001825 8.45999750346373 10.687316181247642
Ag 8.08323845434908 12.317917632534563 13.706470389491729
Ag 9.042935771546048 9.902314310378703 12.738361249988445
Ag 10.05519380855067 10.859522932464007 7.285532755835518
Ag 9.575766490413104 10.426785253539357 10.007713528444377
Ag 8.873397639266447 5.953557282591747 9.597716875949098
Ag 9.784862910525007 12.796795077731552 11.60483940619808
Ag 12.515863522459455 13.246736907964083 12.191832642001359
Ag 10.467192321208291 8.022503640235964 11.213697523815059
Ag 10.739951910139284 13.540189051283882 7.045487409293205
Ag 10.924740371166475 11.714417745525942 13.953579196935207
Ag 11.564194801554212 12.473603043648847 9.500046112025442
Ag 11.571017220437291 6.515450018714857 9.228881694037183
Ag 11.920861010021953 9.343668828716355 8.858939557158527
Ag 11.507920941099309 8.954499324406797 13.777183489593577
Ag 11.95827423899201 10.568992285740544 11.597306549370103
Ag 12.831522167231933 11.549471953329597 7.243099748766335
Ag 13.267541341831242 8.16663855950138 10.978598022373825
Ag 14.008468722315904 10.916090764149127 9.70117171174007
