15
Energy = -96.25980205 eV
Ir 10.433593529133098 8.650184139144859 10.542268690121906
Ir 11.685688006065904 9.307710072253453 8.467186475069386
Ir 8.722568336502558 7.612067629339071 5.9029603939111945
Ir 8.8558405027626 7.836615420500047 12.339745831386907
Ir 9.914437909665754 10.200305528922021 12.495393468096177
Ir 11.381345725629865 10.958991648678813 10.370661410259858
Ir 11.544347790923869 7.8358802976507205 6.446181669317036
Ir 9.89180526812171 9.673704626724787 6.676243224097541
Ir 9.76237062670958 7.528979017013986 8.24772689934777
Ir 8.894351934634816 11.926342423358609 10.966946779305767
Ir 7.503307754559426 10.086464207512053 11.938179805358589
Ir 9.3435542209819 10.685571444647056 8.884490856483346
Ir 7.974181357368009 8.490369869761407 10.054444635576516
Ir 7.620579230990163 9.011660722624594 7.628832806583236
Ir 6.872753772280397 10.657778781660566 9.430603182283932
