12
Energy = -80.09818772 eV
Ir 7.726818537833028 7.744588362770592 6.538523221421156
Ir 7.7456383677419645 7.747065935440982 8.943997245290914
Ir 7.739461795422321 7.746034048779057 11.349279320437368
Ir 10.143895435756706 7.746636333614407 6.529775329894636
Ir 10.13917777694085 7.749851335159822 8.937838728494134
Ir 10.15590168219923 7.748122175117569 11.345504435296412
Ir 7.72379835406988 10.132274572161899 6.537761365063301
Ir 7.742565064144206 10.131339870753672 8.943320443475375
Ir 7.735834298514429 10.133644192898245 11.348740429149867
Ir 10.141618013631392 10.135543663888365 6.528998190828905
Ir 10.136928358797366 10.133873727520127 8.93716117771305
Ir 10.154224311036193 10.136887774070784 11.344962116846958
