10
Energy = -64.17630273 eV
Ir 7.547358153689626 6.87436301385207 7.5471028586977775
Ir 9.941843184746812 6.877071762077237 7.546837965946421
Ir 7.526583828946987 9.270156471114696 7.5715128334983435
Ir 9.968259612233044 9.270234265113741 7.571035105115323
Ir 8.744738553375258 11.43747015338106 7.541860630431455
Ir 7.547343958055297 6.874156389369633 9.94440793604827
Ir 9.942076718919669 6.876884592498078 9.944526196887642
Ir 7.5265988634552485 9.270106570754336 9.920250047535744
Ir 9.968455996426936 9.270202543893594 9.920519932120909
Ir 8.7448311340635 11.437444234033173 9.950036493718116
