12
Energy = -74.55395021 eV
Ir 11.026077271375776 8.786579835492935 11.190804282135364
Ir 10.995202007634402 11.409124051603438 11.134721261418541
Ir 8.785991116745247 10.060519012766974 11.167880137294087
Ir 8.957247120016019 12.3223965407287 9.890129
Ir 10.995202007634402 11.409124051603438 8.645536738581463
Ir 11.026077271375776 8.786579835492935 8.589453717864636
Ir 8.785991116745247 10.060519012766974 8.612377862705912
Ir 12.805680617173449 10.028594506920609 9.890129
Ir 12.843370245863168 7.589336789057419 9.890129
Ir 6.796214438394456 8.966815325821019 9.890129
Ir 8.950458508064688 7.831774452225254 9.890129
Ir 6.714036345269542 11.430184452936368 9.890129
