14
Energy = -90.85057309 eV
Ir 13.200055011313964 10.450365346438225 9.145343319107116
Ir 10.988522275840202 11.432231953749884 9.48429088404818
Ir 9.057469336580777 11.968708249559183 7.995038008906629
Ir 10.063043314811068 9.595403278197125 8.129326992444783
Ir 12.246790329185693 8.625018279126243 7.867061441804632
Ir 11.957869502461909 9.694165832384597 11.10263065986858
Ir 9.475154888854716 12.05291212665242 11.355116609596305
Ir 10.93307354762541 7.933639321120427 9.860435964763672
Ir 9.894952420385335 9.849409360477921 12.306603768714533
Ir 7.648594222263823 9.484038459225365 8.078810834383841
Ir 7.735539860602853 11.221713862997342 9.921284636743929
Ir 9.75530161594434 7.336722419208506 11.975346960616012
Ir 8.51347294787411 8.779437399616985 10.467224587219798
Ir 6.151308443378727 9.332565237720818 10.076708356620218
