15
Energy = -96.18214403 eV
Ir 8.54022276748223 7.449739991345841 5.364291649236064
Ir 7.67240064058246 9.725760359596253 5.214753251817556
Ir 9.634234979696075 9.265993180172593 6.834319000928996
Ir 5.724514369463913 6.585530759216342 7.26253071831459
Ir 10.291189617246417 6.59676240370959 7.016241760373354
Ir 7.88112670066923 5.376402752804851 6.6644633003271565
Ir 8.096907125156969 10.930085414112515 7.74078514345243
Ir 6.141145811334588 9.256261281556952 7.1013959047524216
Ir 7.882494953995034 7.722417483430545 7.83030975231886
Ir 10.052097002141084 7.9810611334519805 9.17572083784854
Ir 6.450554858854048 6.7981185026589 9.650655523683824
Ir 8.888242488402351 5.697182433641236 9.076778631761513
Ir 5.535769525839308 9.093792256692774 9.491370583680764
Ir 7.961248695217662 9.435605966519423 9.671380546554452
Ir 8.436508743023234 7.273944360193649 11.09366167405336
