15
Energy = -96.96683937 eV
Ir 8.774533023357485 11.93133927717683 10.322884833630651
Ir 8.749069872842425 6.752604053905004 10.324014145480804
Ir 8.594290350370995 9.328673849148085 10.42876880721076
Ir 10.873567170836322 8.006079301746796 9.443724224927893
Ir 11.006810713072777 10.584918878147725 9.326056592897363
Ir 7.278734600926813 8.058891104663541 8.603102266673858
Ir 7.33203250754823 10.592668831184687 8.644090552006961
Ir 10.160256814047674 8.083577531675905 11.96011219277576
Ir 10.203848311027405 10.671619477800334 11.985437350058628
Ir 9.422089911798858 9.300215921365805 7.739089040819878
Ir 9.402687199435869 11.855430010258852 7.792478064048147
Ir 9.339250546863267 6.791452097997184 7.8632554833430035
Ir 12.265102999755003 9.308280413809213 11.145783173779405
Ir 12.190736463523729 11.93700178816956 11.218775716063869
Ir 10.786132012811695 13.176389963841224 9.581570056283589
