12
Energy = -74.80797472 eV
Ir 7.230571717979107 7.832108700390018 9.412966364725367
Ir 9.106227090293695 7.152857304639934 7.829418824638276
Ir 7.005152310359827 8.144503176264896 6.964394413258853
Ir 9.887386920176436 8.882821005186694 6.254846456958959
Ir 10.590003395279568 9.963975383306092 8.37066701961025
Ir 8.714300557242824 10.642952417106832 9.955756640514057
Ir 7.929952643586825 8.915061016662072 11.530566223735537
Ir 10.818409483890772 9.652933590048203 10.81890414440733
Ir 8.213367100097724 10.230010952081834 7.491336120402209
Ir 6.408351762229047 10.148192776692463 9.18905768929638
Ir 11.411005006193259 7.647477842196473 8.594636392506525
Ir 9.606444258498458 7.56997496521504 10.293067838668208
