14
Energy = -90.57730198 eV
Ir 10.220273458588908 10.911375434738503 11.789912889173767
Ir 9.676578607006643 8.561092076355322 11.310967523323399
Ir 9.399712658634014 12.851293486344414 10.527575406047669
Ir 10.953429514008722 9.872235626227967 9.610384099573269
Ir 11.444804345165071 6.865190167930438 11.437862406572878
Ir 8.058668621608422 10.745856623029411 10.439477673063248
Ir 12.058475745173109 7.676078679301972 9.207850457224508
Ir 6.069486610864955 9.883356133499225 9.306431976776981
Ir 10.063389985679944 11.762461299379236 8.470060762504858
Ir 9.715267829196275 6.6543079523512825 9.605921476625149
Ir 9.931986467466567 8.497389817460336 7.857496060766321
Ir 9.849693872430787 10.451412316123818 6.365866231306952
Ir 7.841966855044774 8.202272807685068 9.490286706193425
Ir 7.983456344906064 10.33818714509809 7.8759495237021335
