13
Energy = -83.17486205 eV
Ir 7.465931412717694 11.563620971159763 7.674340294737065
Ir 7.171104414612858 10.497567523792906 9.857519743294771
Ir 6.742778034454947 9.168368702957173 11.893645737271543
Ir 9.814493040433563 10.886938266794663 7.5432670285539505
Ir 9.574345218102529 9.921367747387857 9.805727377611234
Ir 12.084406158762048 9.963873509348183 7.227158552306049
Ir 7.9142531641074605 9.112913576569044 7.770073319271935
Ir 6.985683585986742 7.873106413204567 9.793453436128072
Ir 8.939791222010692 8.139342722262008 11.41385839645982
Ir 8.686728334956758 6.753046214350673 8.257309241436454
Ir 10.209778805662175 8.360455579404757 6.966766505802128
Ir 10.281479902236306 6.649849831151171 10.056104319760156
Ir 11.523771509128764 8.52052238864126 9.153049466837475
