10
Energy = -60.81621706 eV
Ir 11.821953369283703 10.683682690806185 11.427859032303836
Ir 11.005529913444267 12.00465174801607 9.428956976622258
Ir 10.525976572540465 9.555285537639485 8.817920131995567
Ir 9.508471627804976 11.732069980138494 11.486882459036082
Ir 9.761134486091398 9.17731525630999 11.271465335602153
Ir 7.425908082011032 10.178842452881291 11.217899649922018
Ir 8.60370803037957 11.1998084596246 9.179626164213989
Ir 8.220889365709695 8.685864000580764 9.291471829199441
Ir 12.937306768799573 10.265292454609076 9.16000910084104
Ir 11.981861783935308 8.309927419394187 10.510649320263166
