11
Energy = -67.74716435 eV
Ir 10.633676047272296 9.321924885629288 9.162950026511428
Ir 6.733289676456471 8.345654784838738 7.539562998066277
Ir 6.699421852575107 10.80296155419752 7.971667813122971
Ir 7.642981660616079 6.688097982769401 9.28416340418622
Ir 8.843596826399684 7.106787552389936 7.047568734188094
Ir 10.169240274252722 6.878849213568065 9.141187555060826
Ir 11.062581707305075 8.246718198178689 6.954333461505998
Ir 8.961447360591587 8.318947771510926 10.839270450305051
Ir 8.520861387957057 10.557254648764385 9.655869714905975
Ir 6.666523723859271 8.92979136032556 9.955786876140177
Ir 8.914836374843876 9.65146872421369 7.296095858135834
