10
Energy = -63.1971138 eV
Ir 9.18358609554736 11.718481706927928 8.884977149053915
Ir 8.664495548290365 9.924613707630145 7.307263129535074
Ir 10.325650248798594 9.606927881251472 9.324597334887773
Ir 8.141900133041254 7.950117997608349 5.9624989121218706
Ir 7.7535467728184315 9.957152944184898 9.789036565488566
Ir 7.196454566282234 7.935330834930516 8.214335990069172
Ir 9.763563692617614 7.577731330533701 7.747461719730874
Ir 11.25040220180519 7.373419748486646 9.671457106119735
Ir 8.880758112402155 7.611626324475292 10.225304531905948
Ir 6.495925416826433 8.004245938215487 10.555887971502225
