11
Energy = -67.61251813 eV
Ir 10.131179756349638 8.011824682020983 9.068051049730984
Ir 7.709169919596636 7.235958246006268 9.006265031173053
Ir 10.91050557520151 10.42940422755088 9.134906362597402
Ir 8.71710988509728 8.215196345469993 6.942791547423028
Ir 8.55100556279783 11.010205096563025 9.808862954093273
Ir 9.12864258396452 10.744224982383379 7.2971018110638965
Ir 9.043426383241078 7.015413057638105 11.151782443041002
Ir 7.136127806032579 9.597605110526903 8.34673802691381
Ir 9.936465517946598 9.42164136985705 11.202080161673774
Ir 7.410282686854867 9.013676319870324 10.851390304477542
Ir 11.124486322917607 9.103252284249008 6.988432029947764
