15
Energy = -96.73519119 eV
Ir 7.004237035572078 7.691261627401722 5.518166470122579
Ir 8.03029735682192 10.087478658835247 6.163486858685039
Ir 11.43491933477881 7.948835088628019 7.650535623062602
Ir 5.625035743696302 9.129717547819999 6.986099622378023
Ir 9.014328642695336 7.851206209782858 6.896990324006503
Ir 9.869742367666593 10.10431260974099 7.925434512842576
Ir 5.588523819745935 6.620035181525414 7.302573558655034
Ir 7.942173067281576 5.564048549693697 6.845594801316139
Ir 7.467729783317725 9.448109802774015 8.582135213326085
Ir 7.110160689770094 6.059579793996809 9.157326667914274
Ir 9.579420137878122 6.482174440575939 8.855012342215117
Ir 10.595377464290959 8.592476713666175 9.872353290146318
Ir 5.578534521671656 8.008674653282844 9.465471414089787
Ir 9.00612994553196 10.451216874702727 10.389334881534332
Ir 8.166511714281807 7.973993872574412 10.402606044706166
