14
Energy = -91.46498431 eV
Ir 12.309477181446605 10.145933417845646 8.261427627626194
Ir 11.278039554224751 8.30222584118924 9.448825551735606
Ir 10.245798812186283 6.56650407828799 10.87396493800519
Ir 9.888053321679656 8.888877671730372 11.595942942321878
Ir 10.589988179759821 9.994914326964992 6.549323718134077
Ir 10.613556196213965 10.797120264593593 9.881675099803767
Ir 9.548831942383224 8.155349367337424 7.781875521779266
Ir 8.88230646010242 11.225407407161086 11.547849776374939
Ir 8.213008225923629 6.833693508282294 9.563361380478712
Ir 8.899141791435753 10.552347215777534 8.187738982220353
Ir 7.841553017071907 9.137664905656377 10.283098920587218
Ir 7.147700916675791 7.42749132657214 7.4425415417979295
Ir 7.202780004610275 11.592573800127132 9.684508578921772
Ir 6.511998227365699 9.599281693536152 8.1971007455361
