12
Energy = -76.50349359 eV
Ir 8.317141506898801 8.525143395311217 7.2099413111249016
Ir 11.575755471312418 9.671514764934539 7.324153186017492
Ir 10.499499686286825 9.564897209218291 9.55787209196417
Ir 8.040600474645005 10.219561175121909 11.867682943850651
Ir 8.898117351635157 7.022203136315612 11.164696858222145
Ir 10.566452895942438 7.541519100324969 6.702071667051403
Ir 9.673009568579216 7.366554086618041 8.937564870547494
Ir 9.35744745024673 10.643737838398161 7.507131249914826
Ir 6.725730546978431 10.308983929827477 8.074917906066723
Ir 8.443292999789529 11.19074251062099 9.735342715285917
Ir 10.113524374451327 9.0019509005846 11.86771193011321
Ir 7.569381673233726 8.723145952724314 9.83086726984118
