13
Energy = -80.68437479 eV
Ir 12.11799423155963 11.501288916313788 9.640597670750344
Ir 12.12464299479231 10.268988655312635 11.998348471406372
Ir 11.26876431568458 11.420308802704863 14.020884828487713
Ir 11.376034513688738 13.757739190330772 9.380845511782432
Ir 11.265668754559488 12.617572564448658 11.66925659647599
Ir 12.071297609745445 13.649739447430473 13.798537686321078
Ir 11.233627235526356 15.840759441522797 13.572617541033617
Ir 11.94069531871805 15.064961010735246 11.485012808518254
Ir 12.433143094962208 15.920443746812701 9.310315864558042
Ir 11.222350017188775 9.309828034974988 9.842327879040537
Ir 12.38868722111688 7.8807994643507495 11.330138016431329
Ir 11.8848623422631 7.225567392292637 13.508108094591046
Ir 12.503228056584307 9.372998832769696 14.274004530603289
