11
Energy = -66.09072343 eV
Ir 11.218485066204218 11.19825192915297 17.455283507431865
Ir 10.439513549486083 11.921878697686733 11.244703714095376
Ir 11.91860214736684 10.790932536172422 13.031364307290913
Ir 13.696518073621988 12.33283984861561 9.27594001980757
Ir 13.835150526698284 11.713578177472472 11.591223381834071
Ir 11.169542332321342 12.529064533033239 9.040429170941119
Ir 10.762595019067481 13.062691588619831 13.412026913204265
Ir 13.253525159322978 12.869696556671968 13.701558659153328
Ir 12.277782209905912 13.63315179079646 11.24161139664912
Ir 12.179784432979625 10.425628244389507 10.18646159056913
Ir 11.662614671845851 11.794682521779572 15.349692865850919
