15
Energy = -97.45603184 eV
Ir 11.116744354595724 10.944352823611952 13.033604403540021
Ir 10.807079704409894 8.944861032848616 11.853652769543459
Ir 10.886719666114166 6.4894987436825975 11.575301134940036
Ir 11.16320424231081 10.396437477558527 9.642805461598376
Ir 11.196204702269693 7.823099092309731 9.472596922453272
Ir 10.230981871073903 12.11462361128171 11.120991472096948
Ir 8.915853341711987 7.640653494898916 10.5490942984556
Ir 11.277234911598557 9.255494153605225 7.369307170410517
Ir 9.14395685617436 7.470732488240529 8.063083657273403
Ir 8.728366249303019 10.211817269688076 10.753624081340508
Ir 10.591807036392092 11.81878601615294 7.670686504356266
Ir 9.216997837597255 13.189573034851342 9.137904532578075
Ir 8.981777156024657 9.928871240933894 8.065745562072435
Ir 7.0755332304582375 8.929353834896443 9.31038283657685
Ir 7.402418477696978 11.573377058802528 9.130152226280222
