13
Energy = -82.49199848 eV
Ir 11.419012508011047 9.019920269070248 10.532151038703303
Ir 11.474221394291373 9.973512086640469 7.988982613828244
Ir 10.663928466494983 7.705178486793369 8.497879551646585
Ir 9.928911252238686 10.843161003752938 9.744849538315059
Ir 9.337131572602187 7.558875821625761 10.637884056318754
Ir 9.128976429188603 9.71135241301796 11.814991838878848
Ir 8.57311729466335 6.335230986157847 8.589384631391239
Ir 6.905323437206938 7.874342039022874 10.398249129131798
Ir 7.478216362561224 10.313203146193215 9.956305294513605
Ir 9.36402655003468 8.166903207118843 6.4534862525973775
Ir 8.01209073296278 12.312984887680404 8.673156671204543
Ir 9.040954932987562 10.505295853295598 7.409078752711545
Ir 7.604735162635335 8.56509590171695 8.137483195109883
