11
Energy = -65.22794571 eV
Ir 8.071066685295953 8.540477227684443 10.478934323688112
Ir 8.74025250218374 11.001112153423936 10.384134607064693
Ir 9.460129901224011 13.452301779380097 10.310468920909372
Ir 11.119292401002186 11.715430351156662 10.342896589506344
Ir 10.442859365262581 9.225285717278647 10.481419005665812
Ir 12.873576762295874 9.88155509554361 10.43999417897889
Ir 13.593674985804965 12.166783279311511 10.35511307729891
Ir 11.890171661375659 14.01482579232191 10.268988441360351
Ir 9.766797665955442 6.838854625024201 10.620482313403569
Ir 12.243392267175212 7.540517343121925 10.561317146399109
Ir 6.412570664831337 10.236641566956159 10.370036533317892
