12
Energy = -74.45223402 eV
Ir 7.720467427445839 8.085411985278768 5.277866603637592
Ir 6.766141271779458 10.228382129418614 6.232473452237778
Ir 9.185940279444361 6.975747594153126 6.910361359972932
Ir 9.033530828172616 9.569915870626767 7.1675703362327425
Ir 10.851841100256431 8.088810848445785 8.295295449401412
Ir 7.002266365075602 8.030121917098624 7.734143786408533
Ir 7.1457731055227 10.453554882150875 8.672186850342252
Ir 9.331497605417963 9.555228896126788 9.763234195544511
Ir 6.947271827612841 8.613558021456827 10.25703305458928
Ir 8.785465175543578 7.008894577516652 9.467982104403228
Ir 8.672590823308957 7.915745877168709 11.860025497885196
Ir 10.957542160147023 7.874955370285854 10.762155279071774
