11
Energy = -69.27671853 eV
Ir 8.95141854498891 8.95225361324864 6.786073981067738
Ir 8.948266094670199 10.171536477175307 10.874445155485786
Ir 8.947369741408396 7.7225318131140686 10.8713760834217
Ir 8.952152568365841 11.400337059141693 6.9705891465752785
Ir 8.950385004783442 6.503754616251689 6.964413045786551
Ir 10.270202645905728 10.270434051899096 8.69540045420781
Ir 10.269209170669452 7.6282644910410315 8.692085736172317
Ir 7.630278868851394 10.271413228392095 8.693053917130728
Ir 7.629319956801099 7.629237038904458 8.689740102087574
Ir 11.191447044526088 8.94667311872231 10.60577508644758
Ir 6.704686859029821 8.948300992109989 10.601783791616809
