12
Energy = -75.56585919 eV
Ir 8.649351272128108 11.236336552868465 9.299735224432295
Ir 8.649351272128108 8.536588447131532 9.299735224432295
Ir 8.107667211586243 9.8864625 11.421140025825139
Ir 9.8864625 8.162824802785774 11.542795816933655
Ir 11.123573727871898 8.536588447131532 9.299735224432295
Ir 11.123573727871898 11.236336552868465 9.299735224432295
Ir 11.665257788413756 9.8864625 11.421140025825139
Ir 9.8864625 11.610100197214225 11.542795816933655
Ir 9.8864625 12.286811983344954 7.349770627756526
Ir 9.8864625 9.8864625 13.384171449566903
Ir 9.8864625 9.8864625 7.42702464538124
Ir 9.8864625 7.4861130166550485 7.349770627756526
