15
Energy = -97.59044528 eV
Ir 8.428012794034482 10.386921403418357 8.323983038429091
Ir 8.924239539979434 8.81729243225302 10.389676652506925
Ir 11.473518668124315 8.825586731085487 10.411925457571337
Ir 11.982818267686351 10.406505484590454 8.359794621339418
Ir 6.749232653460794 10.187352224470942 10.135787689387664
Ir 13.637076940602645 10.219280560980021 10.194984812124503
Ir 8.91734372793609 11.51074522250683 10.695582245365422
Ir 11.441379019474326 11.523747310443682 10.716898800424053
Ir 10.19437210764535 12.149354918704361 8.522506737710325
Ir 10.164019699153053 11.166045034760355 12.895295251387191
Ir 10.21680586106698 8.611472278725584 8.184168358150849
Ir 12.451905871766222 9.953766406542169 12.463621536737069
Ir 7.897522970757118 9.930015524493559 12.426509434775538
Ir 10.220822892242184 10.507578688586765 6.534712056851055
Ir 10.179481554866726 8.682888347234767 12.623105738442494
