13
Energy = -83.42060975 eV
Ir 5.714613241483418 7.0488820266765435 9.05378430077186
Ir 10.177424640077751 7.955812418594457 10.810472406049252
Ir 5.705470852778385 9.41103173881351 9.590496562362471
Ir 8.132176041156201 7.028051415132257 9.578610132496408
Ir 7.96474820979495 9.291772716271787 10.4250109070289
Ir 7.484845119615454 9.714639097360863 7.878156551652505
Ir 7.651010691966285 9.316068419926578 5.333916033838375
Ir 10.078661250996861 9.875530566323452 9.20591203535701
Ir 10.100586321306501 7.538172486177236 8.251733682761914
Ir 8.587104993350534 5.4983526919404415 7.558381585014642
Ir 6.979208141042818 7.485863543910681 7.047517153104019
Ir 9.130701243637033 7.314720658804726 5.893326906826326
Ir 9.721125730268042 9.670293237882987 6.764189528075367
