11
Energy = -69.08721366 eV
Ir 10.090307950429365 8.390577962524846 6.906605297067076
Ir 8.365793238818618 6.856465007174697 7.592522425397247
Ir 10.329533307668903 10.846817811702104 7.118920367756485
Ir 11.296599869049981 8.045470688734119 8.913314439017531
Ir 8.539595022000178 9.797043452587424 8.514117547905183
Ir 6.554910364524225 8.388872609537291 7.973169755978996
Ir 10.944085625491038 10.31997630154308 9.462977224896392
Ir 7.471510723425548 10.414178218340597 10.6803683533284
Ir 6.549491688765611 8.234203885399172 10.356065406992846
Ir 9.650321610694641 9.712262928106856 11.400697821135694
Ir 8.99885060002236 7.785131134349418 9.87224136141434
