13
Energy = -82.25928747 eV
Ir 12.712679930570019 10.198843959442586 9.520123842443796
Ir 11.18271929511672 8.299070606266879 9.45545782213295
Ir 11.575538788636218 12.464247127612188 9.856522190909956
Ir 10.483905766222776 10.63973562087159 8.364508368454683
Ir 10.549721633644827 10.38823632346407 10.974142183615538
Ir 9.67296541237659 6.355041844696074 9.435789767426641
Ir 9.631375441538578 8.049199213741487 11.430768965016199
Ir 8.978114206555126 8.481243574018187 8.133763626294986
Ir 9.05946218619505 12.163472731363678 9.80729085975437
Ir 7.932556742283014 10.824985020627091 7.963138645478344
Ir 8.138387902029187 9.783561058924182 10.27200929837494
Ir 7.493679768400334 7.3358944509855215 10.12038835628711
Ir 6.445878203961606 8.859730188677952 8.44520824259109
