14
Energy = -90.34494669 eV
Ir 11.051240733066244 6.593076600272793 10.423446203851583
Ir 12.079019973976646 7.547480587668225 8.349613618664707
Ir 11.120809581672631 9.149474022521805 10.1385845154432
Ir 8.95815519398339 7.897773658234769 10.890112808606181
Ir 9.534700994970958 7.280256248422606 8.454553201523604
Ir 10.22440978123564 11.373730118293903 9.27298558217296
Ir 10.55194284838644 9.43109397852661 7.6499858526410405
Ir 9.263920908760818 10.348942425596398 11.437766091475401
Ir 7.274099154577852 8.377536874596917 9.046222620833433
Ir 8.230557805220078 8.624052682250339 6.749883687705918
Ir 6.957785836969248 9.261802662249934 11.505804635119564
Ir 7.750045883298447 10.701824255775847 9.464863260924322
Ir 8.682040953353287 11.087312008665274 7.185041493763462
Ir 6.284618399231264 10.11003974783361 7.394772839021912
