12
Energy = -75.49238433 eV
Ir 7.116952728327012 9.978072585985947 10.684870981294646
Ir 8.588294365267108 8.023025338026818 10.518548118166608
Ir 7.279410546716746 10.837861180743374 7.366474011071981
Ir 8.99851363311094 10.439104979970326 9.169206808495554
Ir 10.57617211844466 9.473593167523932 10.872176336528266
Ir 6.79505263826796 8.720646394879214 8.579670522714858
Ir 10.735913929135823 10.264770172016725 7.421355378078355
Ir 10.58290016922543 8.200291037995767 8.732582456302861
Ir 10.07657017437294 6.0837838005235705 9.964685873837627
Ir 6.898830360756861 7.246434930381735 6.522623062120203
Ir 8.754036334096453 8.919827580334093 6.8085945102330045
Ir 8.482783386537772 6.70964427583098 8.262443656058501
