10
Energy = -60.93918407 eV
Ir 8.280538200027769 6.508948232460806 7.146632919271183
Ir 7.3236369254256095 8.75484067990449 7.270169664895964
Ir 9.851911512336873 8.397317098965944 7.2745862083740125
Ir 8.484876217422114 7.811498006976849 9.353701215830899
Ir 11.967138709218226 9.371031984789226 7.848493633557449
Ir 10.04346645671011 10.758347965818137 8.140773037504239
Ir 8.323656027757272 7.093074868732657 11.539691540331924
Ir 7.594209390337633 11.013218467143249 8.088511758985746
Ir 8.669044494315365 10.06422681025296 10.127674128674585
Ir 8.539894714400814 9.311064963584124 12.314776577960718
