11
Energy = -67.36504672 eV
Ir 11.562195502910136 7.426340266443866 10.160890777111677
Ir 11.150840579758475 9.852733559499844 10.53052049603806
Ir 10.037816708002792 8.290948851854736 8.372746446289131
Ir 9.279396336699914 8.23918993946755 10.885775432049398
Ir 9.159964644530932 6.129197144746922 9.525182954869448
Ir 7.592906412947386 7.92300377171542 8.96635212871359
Ir 10.231271158093866 10.827177526917879 8.395715081608213
Ir 10.091325009127305 12.077541948270952 10.576475795596158
Ir 8.28740914607732 10.41902131185798 10.127607037921415
Ir 7.940077356713513 9.934255214094026 7.659268993079597
Ir 8.195959424681504 12.270762837202657 8.270711586885048
