10
Energy = -61.34054127 eV
Ir 11.508730415478777 8.866119442926605 10.051650772658268
Ir 11.112599168290707 10.566974349722637 8.241750881718954
Ir 10.634223297506049 8.084829484571824 7.763025215732662
Ir 9.590802386060584 10.557036403517978 10.316477992174834
Ir 9.134462976219137 8.06120912069796 9.856805548670364
Ir 7.22952825054119 9.777730445672738 10.099562107401255
Ir 8.728388357465896 9.802135837512468 8.006766284026392
Ir 8.27215193432402 7.307432728158451 7.548162449954259
Ir 6.355752833587227 8.99703576530642 7.812729579101533
Ir 6.751465380526408 7.297601421912791 9.621174168561218
