13
Energy = -81.78882336 eV
Ir 9.9254455 12.39059502843168 12.70604732487673
Ir 8.691684904534384 8.641495197402161 10.817236507192366
Ir 8.691684904534384 11.209395802597843 10.817236507192366
Ir 8.626878287813186 9.9254455 8.513699630779529
Ir 9.9254455 12.121770662687354 8.768315248866195
Ir 11.15920609546562 11.209395802597843 10.817236507192366
Ir 11.15920609546562 8.641495197402161 10.817236507192366
Ir 11.224012712186818 9.9254455 8.513699630779529
Ir 9.9254455 9.9254455 12.676994688793304
Ir 9.9254455 7.460295971568323 12.70604732487673
Ir 9.9254455 8.664673270370312 6.5543632198419965
Ir 9.9254455 7.729120337312642 8.768315248866195
Ir 9.9254455 11.18621772962969 6.5543632198419965
