10
Energy = -61.33000273 eV
Ir 6.290418883665079 8.164735965247282 5.851500872074266
Ir 7.224913833902526 5.9068740625477325 6.1745326712142115
Ir 8.29595304674129 9.38662625380626 6.566500671085599
Ir 8.987897478230582 7.048927962356565 7.3295328942353075
Ir 6.6677866777276575 8.604913414480638 8.316543839048885
Ir 8.380120046946415 10.254947811195944 9.035004083776037
Ir 5.619690692828692 6.466966993046247 8.061159157750039
Ir 10.327101221133285 8.980864208655937 8.137005774883015
Ir 8.630428386487576 7.7534584793163335 9.709493433099412
Ir 7.737446789631213 5.593441906641242 8.980483660127929
