13
Energy = -84.4226358 eV
Ir 10.756802317487434 7.172189792716873 11.189684938781426
Ir 9.559581685247212 11.16475551863149 12.255077897657676
Ir 10.651242514322645 9.530180254211176 10.648024186071268
Ir 8.361107958824437 7.132806085964842 11.433408500170609
Ir 9.371150525202589 11.826297836096003 9.967540882553427
Ir 8.27702425339983 9.487170231598006 10.879697238804276
Ir 8.1161052773453 7.685817179811491 9.030504687234883
Ir 10.49842759775244 7.719534768169668 8.791295355837171
Ir 9.11924350611626 12.3524184534062 7.654151718760221
Ir 8.01414086521094 10.171340420643743 8.275270567060748
Ir 10.386766643104158 10.194934746326664 8.038292077461458
Ir 7.862674389850415 8.370017896696076 6.665391430874018
Ir 10.259190028263813 8.398011669718278 6.421659130045021
