14
Energy = -89.99634722 eV
Ir 9.411032 11.97454892072033 10.473306569111632
Ir 9.411032 9.411032 10.713826842049459
Ir 11.971434594038534 9.411032 8.344239665014264
Ir 9.411032 6.847515079279666 10.473306569111632
Ir 6.850629405961468 9.411032 8.344239665014264
Ir 9.411032 9.411032 8.139671815703784
Ir 10.710444089368359 11.631984088585144 8.302555053773439
Ir 7.192103469442777 8.112677825564687 10.513909164725273
Ir 8.111619910631648 7.19007991141486 8.302555053773439
Ir 7.192103469442777 10.709386174435313 10.513909164725273
Ir 11.629960530557222 10.709386174435313 10.513909164725273
Ir 11.629960530557222 8.112677825564687 10.513909164725273
Ir 10.710444089368359 7.19007991141486 8.302555053773439
Ir 8.111619910631648 11.631984088585144 8.302555053773439
