12
Energy = -74.77245094 eV
Ir 8.262506677138473 10.443438862473334 5.207266143063947
Ir 7.718048159239347 8.177450813545713 5.841484262810487
Ir 9.624088392406925 9.306371741783893 7.0606316868912
Ir 7.283413559450443 9.979082124795696 7.574004649885558
Ir 6.461544337377765 7.509645825455141 7.980311023200884
Ir 8.878096707324334 6.926432930964295 7.7429949826732924
Ir 10.48205135332102 8.29130413066191 9.224484200681946
Ir 7.748472977550735 6.378599137091204 9.883793966463914
Ir 9.156823999544892 10.517996071162395 9.275112073611606
Ir 7.3784959744823935 8.869618662815109 9.916697679036899
Ir 9.818027504792568 6.690899215362413 11.09033785577831
Ir 9.373370651612612 9.094100778130548 11.387821770143464
