13
Energy = -85.22822026 eV
Ir 7.520458583981079 7.941426446733357 7.026448914685936
Ir 8.119642318123995 7.937284960083055 9.33281431094823
Ir 7.447722269580619 7.9437643384060665 11.69362214295986
Ir 9.837034265813177 7.9463228297431305 6.390629730048288
Ir 10.530518634313493 7.943654001530499 8.666658106910576
Ir 9.904658709991214 7.972012933132723 11.190126665766288
Ir 7.522047471200583 10.34471463673349 7.0251544252358675
Ir 8.12108156705153 10.350608718777861 9.331344807058375
Ir 7.449099739892569 10.347649664174995 11.692342720628115
Ir 9.838611318879957 10.336171241160073 6.389542454707435
Ir 10.532042974088755 10.340352611271632 8.665191030004669
Ir 9.906134949944468 10.315744766928994 11.188840124173526
Ir 12.132345697138964 9.141691339586808 10.268683062960303
