15
Energy = -96.71082932 eV
Ir 9.51710643862756 7.274898675884611 12.156832344170455
Ir 7.939661257328263 7.840556701167854 10.376661039384175
Ir 11.231675297334654 8.109650659813333 10.745804278110628
Ir 12.226282280409059 7.482331002414066 8.609585736408262
Ir 8.854675896803107 9.77203599403239 11.539238135712635
Ir 9.71674092546991 7.855356677668254 8.61153890103259
Ir 7.225366130368629 8.522575806757485 8.111201603805089
Ir 9.463244372906738 11.25895910032294 9.690171886702064
Ir 11.312462795791447 10.474943338589245 11.248212739561243
Ir 11.361559972391245 9.964802747401839 8.673556773735074
Ir 7.08263042373708 10.931722622837547 8.910969054599727
Ir 11.073737096880905 8.605408061799102 6.579481251439533
Ir 9.12651836962028 10.047003159409254 7.353188864524115
Ir 7.307984604773324 11.56728269975791 11.205032853689735
Ir 6.944084152207076 10.742768505572489 6.5170755045370345
