15
Energy = -96.41330811 eV
Ir 13.111116907734287 10.414706683963576 11.528574157125254
Ir 11.70444714551922 8.631371088808233 10.728969475725545
Ir 11.669212609409856 10.705552793228723 9.233562936516416
Ir 12.01534051167758 6.531922481562293 9.505139215052166
Ir 10.108499218037734 10.537849788259408 7.377586458020828
Ir 10.747893953849625 11.039010431213093 11.47070917470611
Ir 11.00863625961894 8.405653311149075 8.310997661093834
Ir 9.679975098341506 7.023705181546111 10.105672435055112
Ir 8.854972450423455 9.247128347196021 11.337759310510478
Ir 8.455834425963188 9.059078959009232 8.808635998419211
Ir 8.399107978472506 11.607986270123094 11.389172794426155
Ir 8.089259046618977 11.57668481079947 8.81284941662933
Ir 7.747421584040832 10.344260200336036 6.762812054714572
Ir 7.322578261807999 7.584116689139672 10.400728271710765
Ir 7.083443332641352 13.182420929193366 10.173575976842681
