11
Energy = -67.41908738 eV
Ir 10.320058 10.320058 12.778727101055354
Ir 11.602829184929186 11.574186295568746 10.885249168272631
Ir 10.320058 13.808696719732385 11.047717396709933
Ir 9.037286815070814 11.574186295568746 10.885249168272631
Ir 9.037286815070814 9.06592970443125 10.885249168272631
Ir 9.082874238518249 10.320058 8.61256852712763
Ir 10.320058 12.585272618575926 8.940171288527306
Ir 11.55724176148175 10.320058 8.61256852712763
Ir 11.602829184929186 9.06592970443125 10.885249168272631
Ir 10.320058 8.054843381424075 8.940171288527306
Ir 10.320058 6.831419280267618 11.047717396709933
