5
Energy = -24.88987425 eV
Ir 10.32997174794057 8.83286060343596 9.043491983907378
Ir 12.067562854939567 10.229466173937784 7.958405828301514
Ir 8.119343119401547 8.542087023642425 8.6500200084785
Ir 12.358422944967922 7.9631613402015144 7.986779404086044
Ir 6.464570353389575 8.29858607680749 10.139269545346696
