5
Energy = -26.64103 eV
Ir 10.764394182526955 9.494276645478331 9.278712658892761
Ir 8.909712442560153 8.200024585276447 8.787976111556302
Ir 8.492600394280398 6.103973070680715 8.241404426559331
Ir 9.415171743277273 11.32830978623366 9.67805404408595
Ir 7.566849766918632 10.035922210963548 9.178181077834685
