5
Energy = -21.31663389 eV
Ir 14.529252443576654 11.36542517797608 10.458618776948414
Ir 13.790783047923718 12.081442355111225 12.411001957944421
Ir 12.932004839005444 17.001288916835847 17.092957593616752
Ir 10.592286410104961 16.734389566953652 16.895095429299236
Ir 11.796106093231288 15.458834175723736 0.2344757874756994
