5
Energy = -9.52357615 eV
Ir 11.682725713205322 13.420818864289558 11.86206277129794
Ir 10.996764111217852 11.729862818646515 10.540179493216302
Ir 9.736724637514863 13.553873564335726 12.892264430126364
Ir 10.757721970415208 9.108283851708686 10.32803378045263
Ir 11.896044655273812 7.257358744304069 9.447571934827481
