5
Energy = -26.2750272 eV
Ir 7.854176097396588 9.555067580776933 7.688540170481157
Ir 9.465289743126286 7.839034077055329 7.420689168105648
Ir 6.354878489760643 9.038625720782498 9.45886460923392
Ir 8.54437983677969 5.769460549580037 6.72701427856025
Ir 7.197017175228036 7.213553414096448 8.120633115910383
