5
Energy = -26.29442128 eV
Ir 8.130167724894424 10.292129899662056 9.506575280182808
Ir 7.419127751520533 8.387680648965006 8.210015650199484
Ir 9.458311895944812 9.587197960802966 7.569740808180979
Ir 8.753420553896346 8.028685753436099 10.23282628353458
Ir 10.738089842122989 8.203423505512877 8.97995974628137
