5
Energy = -25.72664499 eV
Ir 9.253832651985485 7.718088015740535 11.087648785323477
Ir 8.631851599342351 9.36133729464411 6.810963522695481
Ir 8.684346164918935 8.296758618450145 9.05156145889425
Ir 8.658714363474958 6.9604068785121775 7.06056306102295
Ir 7.451551294448614 10.339285643152689 8.656330695782204
