5
Energy = -25.03921035 eV
Ir 8.842771281494812 8.2578928315831 9.941962440130771
Ir 10.335285388766346 6.6464585032453884 10.223123849991412
Ir 8.198251002777972 9.338174712329792 7.773135103270629
Ir 7.325906305856526 10.073632880516689 9.834443475182583
Ir 8.725366972012287 9.087698261321844 5.641364250438704
