5
Energy = -25.33390874 eV
Ir 10.521010680671743 8.546565128410395 9.860046979348853
Ir 7.562254412198094 9.931844466018063 6.868781502099412
Ir 6.2335578679497585 9.10157099149386 8.650135571321051
Ir 8.53931987604534 8.557850157521488 8.542512340811584
Ir 9.813010756711083 6.575473341617231 8.755148352823259
