5
Energy = -26.80035109 eV
Ir 7.8565273655675645 6.616349312162453 6.677425139370698
Ir 9.284066599527767 7.474700947178723 8.26226929878906
Ir 6.264135051362757 8.32816460591957 7.126909776205067
Ir 9.687431171080979 9.108516839666475 9.970893568008423
Ir 7.636222131604751 9.244617487634876 8.727765314074059
