6
Energy = -32.67905959 eV
Ir 10.347274760132379 13.014595626456707 9.696027353881242
Ir 10.586870727780903 11.624799724602891 11.646830724604063
Ir 9.412452560615794 9.410702688685221 11.46115278149173
Ir 11.827219721479228 9.600209913573522 10.976095736552752
Ir 10.075502346472113 10.703743712228441 9.336629019254472
Ir 10.329343274991503 8.291046781201302 9.442809259258397
