6
Energy = -33.418537 eV
Ir 8.269245937632853 9.692075196446769 11.222587535030986
Ir 8.474662046796443 10.010838057539173 8.89649902814698
Ir 9.054781574777563 10.405732468770827 6.649113588530946
Ir 9.212643028259649 8.153202979526164 7.376723094997398
Ir 8.311229804622485 6.179305768060674 8.28731080450307
Ir 8.818433120836557 7.761596730601517 9.954824716651165
