6
Energy = -31.6143436 eV
Ir 4.698155517347056 6.335305193910164 4.962881984474324
Ir 6.693818220555053 4.928075139797784 4.709789614778185
Ir 6.390986657135436 6.304167281013278 6.661410313212788
Ir 8.654276212026623 5.7294910359292945 7.242255476969744
Ir 4.730484034316433 8.00858850808798 6.782458932144853
Ir 7.602319434402767 7.464412917045124 8.411243754203475
