6
Energy = -33.14953516 eV
Ir 6.655263190791072 8.035406625352106 7.228953578491761
Ir 9.089665402507276 9.273960150005713 7.711487303389138
Ir 11.04688628055173 8.6900911388341 8.771735621500632
Ir 9.850255835963756 7.288681849942554 10.28383413689883
Ir 6.906024487085236 10.192155216164497 8.115935500518159
Ir 7.854614393939811 7.8993375103442585 9.310575665041547
