6
Energy = -32.62781728 eV
Ir 4.370905639261224 6.989796766308623 5.836309481366807
Ir 5.525648408811075 3.3548041994524076 6.965839741319874
Ir 7.5528732707465664 6.771534002991892 8.042863758629771
Ir 5.909228212519268 5.548464067297846 6.821111766497952
Ir 7.665293003483674 6.865106598472849 5.685952124896671
Ir 6.048865897958121 8.13782864851112 4.660983328257622
