6
Energy = -32.72953722 eV
Ir 10.350838495502632 9.150916563983808 9.174751400840226
Ir 9.300116223602357 7.981635720015598 7.245092723660966
Ir 8.860473058125903 7.245302581320346 9.579658487287556
Ir 8.690672671298246 9.27828600718937 11.086975023548261
Ir 7.853787943704719 9.456180976170453 8.82723652399761
Ir 7.390215301954125 9.311954145334052 6.523182818587665
