6
Energy = -33.34231116 eV
Ir 10.534140414185948 7.012618657693416 9.38685070913815
Ir 10.944191921200828 9.099555479958658 8.376160764035971
Ir 8.269969133663018 7.222858498364097 8.933831677587596
Ir 8.677836188442232 9.367829298647353 7.976220823393238
Ir 6.598269916958404 8.873250986769449 9.432788310794125
Ir 6.442109881199495 9.872867447553869 7.313390868254667
