7
Energy = -39.70531373 eV
Ir 9.203495521673263 9.754927690333538 9.75518734619379
Ir 9.86313745189758 8.991829362188348 7.564480977938046
Ir 8.640355417751445 7.281442875638591 8.887982621697635
Ir 6.9199639938506925 9.174014546504631 9.352803460647392
Ir 6.076942539230899 7.060185392620824 8.56109889131303
Ir 7.39737518821991 8.305196016113394 6.902414955766173
Ir 9.339203349550411 6.876583851605005 6.440762349977478
