7
Energy = -39.64923043 eV
Ir 9.640488042024188 8.1373367045696 10.737752965425884
Ir 7.354061469250646 8.039485452095885 11.202515393326184
Ir 9.815662940489574 7.312596954955645 8.484116709037231
Ir 10.50347122326619 8.677431011951791 6.721654789200456
Ir 7.851314824235242 8.678173387195923 8.92292065124962
Ir 8.627074669557926 10.064183187148421 6.9444817558351195
Ir 6.3966388895333 9.285685545309342 7.1476784476533615
