7
Energy = -40.42210798 eV
Ir 10.445634836050479 13.948398210577317 10.112926607240334
Ir 9.564419449989682 11.889160898075358 10.702575409024389
Ir 10.649510534326808 8.354118709627954 12.454525637938994
Ir 10.241852435152499 10.627421762117422 12.653170081549073
Ir 11.819720124887013 11.008330885616951 10.809265371285994
Ir 12.222292598559466 8.738761642762967 10.745154881867329
Ir 12.620146220804306 13.095230897150977 10.166746440168424
