7
Energy = -38.21860734 eV
Ir 10.295539989786873 11.402509691354126 12.802259943792986
Ir 11.767084364738999 12.25070142849093 11.052252389002536
Ir 10.539095239051218 9.3501775604703 8.500012201921923
Ir 10.612023504678236 10.013540705763909 10.884092266178655
Ir 10.51689360000017 11.814203184553008 8.957942038864147
Ir 12.567506948286134 10.48025760621479 9.334544486761418
Ir 10.123494008730864 11.135820379692934 15.018546132619731
