7
Energy = -39.14345769 eV
Ir 8.287588911252683 11.620829240904472 7.406247234165625
Ir 9.037135512280514 8.911618439869592 10.301414185584404
Ir 9.991366721303013 10.28919959008343 8.464302979798646
Ir 7.7188895186094015 9.397145731572778 8.080584665736138
Ir 9.52845852367691 6.506922997793061 10.280853924500594
Ir 9.685282805432186 7.780721277529532 8.023553088497748
Ir 7.427709911354483 7.169994626156456 9.119475825626036
