7
Energy = -39.6377442 eV
Ir 10.215372179175661 9.889035281371445 7.280081312841505
Ir 7.869473171265632 9.805136060790423 8.292056066623054
Ir 9.050263427763355 7.788545404271285 7.296583215532265
Ir 7.737693060418076 7.524456085148891 9.401762397773926
Ir 8.050498164525882 5.721607593478199 7.890388319268948
Ir 7.889680580152148 9.456182352351314 10.822406124634595
Ir 9.824011604488192 10.45202941037684 9.653714751114654
