7
Energy = -40.99300189 eV
Ir 8.082113477894568 10.08298516141647 8.235225853452606
Ir 6.518213428458946 8.632176255034931 7.145879144295253
Ir 9.906166111038774 8.83592613150509 7.311459261147067
Ir 8.339025176602673 7.0911315028731705 6.659140948727021
Ir 8.074889772684497 8.667180441704541 10.167190251728854
Ir 6.92136942526511 6.958674133015176 8.869392953359144
Ir 9.543522604142922 7.117226374450512 8.997011587290176
