7
Energy = -39.71788009 eV
Ir 8.508295611929023 10.063994006777104 6.521146610492962
Ir 6.783176843392668 9.713480702294481 8.204675848782571
Ir 9.242924250142563 7.7514664224639604 6.612157200013224
Ir 9.016056924777537 8.899497108425543 8.747264729758342
Ir 7.166290348560532 9.052907200491926 10.511027053109288
Ir 10.166091421001067 6.618362175590686 8.54988669623611
Ir 8.162964431389549 6.9254476313975974 9.887955256748993
