7
Energy = -39.60994042 eV
Ir 8.080733853069335 9.908250143234532 12.171462076163749
Ir 11.98851289367968 9.695936966734783 10.1918965201685
Ir 10.04070139531701 10.767716302419025 11.300162007894377
Ir 7.754193571877499 8.53139211615558 10.264311939891185
Ir 13.007869365546924 11.382637544677122 8.865305790212506
Ir 9.696693650074883 9.304862288077306 9.274758696359536
Ir 10.647380701302268 11.601379217873422 9.038369742441063
