7
Energy = -39.65166886 eV
Ir 8.975100169580395 6.478014893775807 7.3773612501362535
Ir 10.275942281686897 7.615902609076708 8.973746249609816
Ir 10.715973585632756 9.94006546486928 9.558079783211445
Ir 8.81136174738529 10.396238756297612 8.243276947231141
Ir 8.341913723606334 8.630114575718594 9.933912924083463
Ir 7.08817308424884 7.649781373401045 8.154735690812672
Ir 6.4972441532011365 9.997631339187501 8.462820185831498
