7
Energy = -39.9379836 eV
Ir 7.184172288601378 9.926861907337312 9.312418709645778
Ir 9.655414755668412 10.361773461584527 9.182326701698917
Ir 10.084091605413045 7.861300009811476 9.132977074864302
Ir 7.606205667421175 7.44915487897717 9.259875661368167
Ir 8.735011206264922 8.877771692751095 10.992785479837442
Ir 8.509325041031119 8.91256826838795 7.431107845719915
Ir 10.94818885463451 9.332985111223865 7.333977892044829
