7
Energy = -39.88294998 eV
Ir 8.533033234537754 9.759770279467851 6.860758516816981
Ir 7.329652354414685 9.77529393063183 9.105107078819612
Ir 9.611194039975315 10.809161905228077 8.92261982928036
Ir 10.501995501158412 8.637597759933303 7.989233352902727
Ir 9.306448414580867 8.678829154801216 10.171522840337028
Ir 8.211296449889598 7.610671196804137 8.162966832165774
Ir 9.882676042295369 8.144068856950529 12.214119049448058
