8
Energy = -46.49025694 eV
Ir 10.639113706916378 8.904989404629099 7.31759671700064
Ir 7.189554568889498 10.748145218309842 9.08690990420332
Ir 7.236389092361682 8.469076820496982 8.633170337434946
Ir 9.419552862528521 9.518501941291138 9.343285402813246
Ir 6.808489526517997 6.481218907864382 7.449419658827184
Ir 8.685394507624485 11.117407683970365 10.90618756643619
Ir 9.09247610818843 7.032261810393191 7.65837032996116
Ir 10.790536179364667 7.488454197386696 9.348912469430863
