8
Energy = -46.85891109 eV
Ir 5.607436979263354 8.030820162525032 6.056111158149661
Ir 7.755133678830168 9.369279316015735 6.646972473000399
Ir 7.815060222122711 6.697542645289339 6.4583879192766975
Ir 5.618417758408091 5.604065824311752 6.108123407286729
Ir 9.719117618892211 8.11937249741483 7.226134601527942
Ir 6.516057412231529 5.522179215404375 8.371281453676193
Ir 6.5319240602620425 8.016413284158832 8.374066961632291
Ir 8.668233251400766 6.871708036290983 8.990303006861343
