8
Energy = -46.46212742 eV
Ir 7.8146294718557465 7.8911565203149046 6.898038572216708
Ir 9.914613243251074 9.021926398608413 6.737804784431465
Ir 9.168457948706372 9.876028723111833 8.849116662973989
Ir 7.639935698349147 6.346023465527914 9.029344967974689
Ir 9.875533422250106 7.312004173017621 8.51102667790229
Ir 7.30810053681905 10.179338262216588 7.366133891853037
Ir 8.749159179341707 7.9772001645886 10.63222893350009
Ir 6.804974391555728 8.671726831969785 9.251709509147847
