8
Energy = -45.21200878 eV
Ir 10.196295632721313 12.964772173409868 10.37753530661112
Ir 12.15850343818612 11.398658694414326 10.592068492337523
Ir 11.039788096869428 15.186890410869655 10.522706661875985
Ir 12.122324700282967 7.574052758342237 13.015542408816257
Ir 12.397121364184036 13.692863220382453 11.75121137986853
Ir 10.75759616399683 11.865435029780087 12.560597162300587
Ir 11.902726503452863 9.684937238601867 12.36783687989652
Ir 13.347109577985487 11.784710927763156 12.880476464646623
