8
Energy = -44.88082887 eV
Ir 7.951954729242044 10.332880084230608 13.3157578064507
Ir 13.010157565969994 11.008870945219318 10.369328035015519
Ir 14.733548751957702 12.35081969717463 9.481141916314403
Ir 10.198418823295142 11.12071292450232 13.111641428955625
Ir 12.491349512328995 13.329590955277114 9.633878246545157
Ir 10.778684317062027 11.937764132582789 10.837717494983824
Ir 11.55299489550501 9.605830688286824 11.643258281771997
Ir 9.08535857030806 10.094915433621892 11.207397302833733
