9
Energy = -53.90162331 eV
Ir 10.613553152013719 8.315730417798187 12.260908111120242
Ir 10.382252123839326 7.362849395632174 10.091558738164714
Ir 9.509587979112872 10.275309971630229 11.472339270276095
Ir 10.272914171854875 6.41947435548143 7.9109102623893355
Ir 9.323258646316994 9.324710143879916 9.321669567789659
Ir 8.34888541245212 12.21922265255146 10.734749226865409
Ir 9.200868177462969 8.405237855132768 7.152815819352469
Ir 8.213859916724584 11.263870197747705 8.560562345740598
Ir 8.057127972852 10.341427478828443 6.370896894218081
