9
Energy = -53.2582399 eV
Ir 8.970667399269423 6.2551395432724455 8.97129
Ir 8.971137167814 7.771438233490388 11.062528594360263
Ir 7.633880082208054 8.416166933710201 8.97129
Ir 10.308429155606325 8.415617733586597 8.97129
Ir 8.971137167814 7.771438233490388 6.8800514056397395
Ir 8.971502411894836 10.28481965758928 7.661291150946301
Ir 11.104144600498087 10.770521166659112 8.97129
Ir 8.971502411894836 10.28481965758928 10.281288849053702
Ir 6.83920953670872 10.771648708028243 8.97129
