9
Energy = -52.04884003 eV
Ir 14.220262780028396 9.159611006264289 12.820514090760087
Ir 11.917683477359537 9.567921764601705 12.286163639013148
Ir 9.730541303578365 10.236783111725657 11.500072651283347
Ir 11.732836778335864 10.537151854901904 9.881749520548244
Ir 13.764679882581673 10.957266477472654 11.328850161253119
Ir 10.06523652947755 12.34971277835291 9.773264279525115
Ir 11.527997875558976 12.087018486880337 11.744282063270191
Ir 7.729791231557049 11.11505474901193 10.471979192479814
Ir 7.932562794420578 13.008728888864752 9.045617437077711
