9
Energy = -53.62604841 eV
Ir 11.012245428490289 9.185103082184513 9.830504192557276
Ir 8.774830967427357 7.985243594027221 9.241988000369686
Ir 10.253779588001978 9.103976698739817 7.477755740643999
Ir 12.58572977717825 9.046397881039374 8.051027162878462
Ir 7.372859578059332 9.699898569331134 10.518864099364738
Ir 6.549886133534498 8.73112960445226 8.353344278236987
Ir 8.39443429609517 10.433368182220828 8.251053455120612
Ir 9.409097291200672 8.703859955522551 11.695576899305564
Ir 9.529737028642524 11.013984840184595 10.488149357018127
