9
Energy = -54.63272847 eV
Ir 8.031710558939553 8.156240781849066 8.41992848261861
Ir 8.329499659332875 10.08555676314724 7.006571903849383
Ir 9.76191504620649 7.740514968123536 10.296841132427398
Ir 11.741730347459402 9.085611124574593 10.112544588215691
Ir 8.121236682388002 6.130516111359986 9.679453830318343
Ir 10.39007115052343 9.292876075513249 8.042955640324005
Ir 8.117326886560958 9.627726832430703 10.370493542970246
Ir 10.199187673378757 10.993388417618426 9.897798087570589
Ir 8.07582062873191 11.59798858582847 8.899308002699193
