9
Energy = -52.58646665 eV
Ir 8.234497952368416 8.72622042621422 10.012261401279135
Ir 7.158181278766829 10.87146200610692 10.029048770704096
Ir 8.59287905653468 12.957981556807145 10.00403946076725
Ir 9.643752413966023 10.789986582867156 10.028191824671302
Ir 10.824741805797592 8.358424686193901 10.017093583322954
Ir 13.203492140922512 8.48114890176407 10.016177665202628
Ir 12.136944424915738 10.620722454280227 10.011085479412362
Ir 11.116973961334883 12.795720389918856 10.029814882761297
Ir 9.254424759003394 6.564220995847518 10.018174794285889
