9
Energy = -51.4891956 eV
Ir 9.941889081056392 11.516816786318374 14.363083480796504
Ir 12.697036791437778 11.721298445395947 8.973995199184891
Ir 12.483951993635353 11.43539612369662 13.974343656592847
Ir 8.76931708473836 11.345073517123081 12.079381915696635
Ir 10.648589915062882 11.341171609884302 10.190158175314506
Ir 13.730418854162515 11.343606014335426 7.009515473579683
Ir 10.939510971186387 12.69269545970084 12.347549875539563
Ir 12.915773134102896 11.379835425999604 11.351055966009381
Ir 10.95049012004088 10.077058321805094 12.45860166086896
