9
Energy = -53.32759303 eV
Ir 8.662839883161944 5.937426384793884 6.90311122925277
Ir 6.897663740461921 7.792655561802992 10.273619956856534
Ir 8.941490184822749 7.571091613233825 8.920448911751548
Ir 9.681517503494135 9.816027631361491 7.798427622724808
Ir 7.307901126095397 9.514779468966731 8.359363183543278
Ir 6.659182616129044 7.049925370559625 7.78792786042597
Ir 8.33329607692874 8.356630686729346 6.228789184641772
Ir 10.655906582384965 7.5628429807002195 7.015825922306267
Ir 5.055979278989888 8.594397294320679 8.90826312096584
