9
Energy = -54.26280668 eV
Ir 9.649593894452016 10.160009525954402 8.560007673894148
Ir 10.26093703083994 7.690727661322618 8.83637626507257
Ir 6.758185510976031 8.176803533056974 9.039472324698455
Ir 7.772150324474623 9.541448741192303 7.110886115730428
Ir 8.385421893997078 7.071385051794774 7.382719484474163
Ir 8.297185502385684 6.326504599528899 9.844648050367915
Ir 7.257222465158326 10.645048270836542 9.387012452073053
Ir 8.608399897577765 8.774966365954496 10.46488143849576
Ir 10.11888112736559 8.721083142487839 6.481973195193133
