50
Energy = -109.23715336 eV
Ag 13.086081610546524 13.774437436339742 7.671562275058505
Ag 13.732942162297043 11.198316772829095 6.680393748767544
Ag 14.433314841632743 14.905062501864322 9.925710762278355
Ag 15.18502014555445 12.262506209167142 8.795590236842406
Ag 16.533151783371085 13.345450534981717 11.044026599581422
Ag 11.003711693358735 11.852541674746066 6.628530532318878
Ag 12.143415273725216 9.038013046498483 7.422395814624251
Ag 12.174250844176884 11.457554560366516 9.156241007954018
Ag 14.689889073854282 9.424023818362759 8.633848474639203
Ag 12.185546429663011 16.123533340558204 8.933157483225237
Ag 15.387626105052428 7.784255883906 10.879380917651236
Ag 14.78810043490572 14.745424475549079 12.81038739006317
Ag 16.0177162978335 10.55331485099865 10.95217595008655
Ag 15.623980048202334 12.052235808041507 13.372698963996715
Ag 9.71104543806756 10.013082005682678 8.310865857807528
Ag 8.343221619786961 12.394488429145241 7.522855138792683
Ag 10.43944282136207 13.894961077912098 8.5367036652875
Ag 13.286952670215644 9.643336416286742 11.1072943095768
Ag 13.730332199084941 12.50316219235048 11.209623661234023
Ag 10.26611122058085 7.318508827852549 8.624176318907054
Ag 12.896252511543025 7.305827165564845 9.609907171559689
Ag 10.06869423449945 15.729254459688764 10.74472516485066
Ag 10.279867966113956 12.951150380453072 11.157218260529717
Ag 13.170355155451828 7.235516197626296 12.638876132130527
Ag 12.626417158882965 16.265599326119393 11.725268907811305
Ag 12.06218688361793 13.820165569613913 13.036174279180539
Ag 8.315853107374043 8.52222673894219 10.330081304989806
Ag 15.093490291339368 9.216845638103871 13.333581088561372
Ag 7.904885877777258 14.06746491869152 9.875979629201217
Ag 10.713979816514103 7.4600687629685165 11.387653266162376
Ag 12.840612938069478 11.108713943175422 13.455455647465573
Ag 10.262811723624422 15.892820819063138 13.573695724210241
Ag 8.084388733314508 11.291799346259415 10.106774720862047
Ag 12.914645715634016 16.003638250140675 14.591365775518018
Ag 10.619619147336161 10.275121260772098 11.242198246628591
Ag 7.798175702686843 15.420382468095903 12.372443685033488
Ag 13.860608476836022 13.389488392143642 15.191657533718868
Ag 7.570063848829952 12.666737673364564 12.414491412968905
Ag 14.715910179406599 10.740671671642243 15.69112004849544
Ag 10.140722931687828 11.78238347520307 13.779636194918222
Ag 12.771914851229695 8.78202281558195 15.042075999390828
Ag 6.570021269824092 10.018108037612505 12.114747407659241
Ag 8.9547593589566 8.977845293010096 13.074528257656983
Ag 10.789806877143446 7.10868371914315 14.201068072371879
Ag 11.089755364954334 14.096169317891372 15.719202810609671
Ag 8.415515240353658 13.972171808067023 14.719232744678871
Ag 12.00436891856934 11.41190726167949 16.156654596148794
Ag 7.593908206370193 10.932112622278181 14.624637763281147
Ag 10.039462042598917 9.465972996611416 15.58196229287437
Ag 9.319097363506177 12.054924414372223 16.539971359155963
