36
Energy = -76.67885271 eV
Ag 15.848363229070783 14.850161726321602 12.9548603295867
Ag 15.953818530327455 13.048887945338024 10.7757669379821
Ag 13.733014134089766 14.66632228261204 11.126240265918815
Ag 13.925076856373735 12.754279288868855 8.871892322812501
Ag 13.182464919893619 14.888087137740039 13.904965781311066
Ag 14.51642798091886 12.458900097257866 13.287663024238427
Ag 11.025019667301459 14.56396704257257 12.017591335986614
Ag 11.652797724040145 14.323181341337241 9.306708881043264
Ag 15.032976258144501 10.494543617037083 11.367691713407567
Ag 10.459545805996393 14.894617404959412 14.699222874773481
Ag 12.472053160610356 12.085567603430661 11.204950015033535
Ag 8.281869075813924 14.35629993788071 12.781107322564745
Ag 8.889285783104919 14.18981192942815 10.034794883657257
Ag 13.518774445936902 9.954708132174185 9.128549760159832
Ag 13.026742278481297 10.030113459885847 13.312667362879822
Ag 11.836758401229714 12.454258199440678 14.119073952560703
Ag 9.098766891525504 12.5000043490282 14.637511234500156
Ag 9.663822904201707 11.997058996037323 11.734115216910023
Ag 10.29845021665664 10.090063817129506 13.961911316364919
Ag 13.583564015214467 8.093760699345367 11.299448397747994
Ag 6.9362490714885485 12.385811679097852 11.168215397724577
Ag 9.750953919743145 13.655536983918726 7.421993068536696
Ag 11.255754775822455 11.607516722752703 8.634623140469222
Ag 7.490522292161703 10.684502572564412 13.33875521227802
Ag 11.100402261305454 9.660697417662153 10.974109327565836
Ag 11.906127605354051 9.428434736219309 6.91548092373868
Ag 11.453252882731809 7.702024276575435 13.139166778412594
Ag 11.998576936363841 7.556116274172244 8.996512756504316
Ag 8.311486768144048 11.697088339824937 8.85447772434087
Ag 11.977450768386586 5.761781598180588 11.146632710358261
Ag 8.113145433621694 9.684124688125161 10.813689452587607
Ag 8.575595526636576 8.069025138821459 13.119788446253391
Ag 9.583109709755023 10.947166655932048 6.453728697781232
Ag 9.630522494342829 9.110014575316786 8.530322070045942
Ag 9.632092483747872 7.237277067204275 10.61484219908317
Ag 9.747289781847464 5.532706989403308 12.827770945167584
