26
Energy = -52.91818769 eV
Ag 12.365251264016269 12.254893959086907 11.194089751696705
Ag 10.427499929782694 10.51750972689737 14.791187706746195
Ag 10.160438766022065 8.619578203521378 12.454532065166237
Ag 16.62913703008395 10.933497688915237 11.075776054640512
Ag 12.607784618179807 9.983222812971668 13.087870918112017
Ag 8.000412559738129 13.65861500308816 11.328487884689835
Ag 10.635057824197009 14.3619703006406 11.947500806085595
Ag 12.581073988540137 11.759864391033394 8.448829480819864
Ag 8.555661867146053 10.024387439861078 10.211838869491963
Ag 12.015748814029271 12.67305271378399 13.883595586191047
Ag 7.955248225707594 9.532656797758392 13.882880634457592
Ag 12.779445049920964 7.800682565900498 11.386172122791619
Ag 13.505093321735835 14.50764853146291 12.137164965727692
Ag 12.290583541507248 14.46596344581322 9.505783470583141
Ag 15.171231442119138 8.88061261676501 12.479175706261707
Ag 9.437349285991843 15.297518116633515 9.627598726529678
Ag 14.654799885854867 11.886651183415195 12.764070629974523
Ag 6.9122623750044285 11.334573436898992 12.149339922576997
Ag 14.79685302176496 12.991601294430856 9.94422776158203
Ag 14.138534052441994 10.168925692699851 10.292381135438998
Ag 10.234020076207285 7.624138386719973 9.738039914958906
Ag 9.752645218644162 11.42956172745796 12.252216885378918
Ag 9.183020536574956 13.21202606305456 14.16275535385452
Ag 11.377705790957888 9.948341040617253 10.254345921637157
Ag 10.169860580095932 10.218648591456285 7.851627293961172
Ag 9.951422949034429 12.527730456476712 9.577200300483993
