15
Energy = -28.63782901 eV
Ag 11.441829742889015 12.41767486914508 8.655235698587097
Ag 9.628942949088643 11.982548378406555 10.800913448622133
Ag 8.871780536726847 13.659172636721369 8.69435583774689
Ag 12.306652762482754 11.564488890578593 11.28919684896532
Ag 13.675197930675793 10.723228099334436 8.982018246183157
Ag 14.95445360877842 10.777834449198402 11.442223653927972
Ag 9.055813772356919 10.94742656810039 8.128949622764681
Ag 7.053175612875756 11.728806717838557 9.895356786369767
Ag 11.156981978414711 9.59804263154252 9.31140049450579
Ag 8.489152085423427 9.121720705690013 10.123112159666322
Ag 13.009709247063164 8.821080203272945 11.235474088285883
Ag 7.686141968337174 10.541708858153921 12.35453110907992
Ag 10.423831088896542 9.763185596954829 12.280998317534793
Ag 10.660396988501214 7.34982535780119 11.011166761240247
Ag 8.385068724780528 7.802385034552093 12.594195923811066
