21
Energy = -41.91573315 eV
Ag 11.730864718804769 10.122326303629832 14.354934481606694
Ag 11.143359549934509 13.371202927206642 12.503075873804926
Ag 13.486005415507732 11.86378936581588 12.985873581587596
Ag 9.189253789318716 14.230613674129918 14.312956352283711
Ag 11.313284851997347 10.606757076196782 11.634637943877376
Ag 12.11340521739428 8.026838414422894 12.354523637114381
Ag 15.544274074906296 12.406163429744241 11.180815841455466
Ag 9.529555556046018 8.82482298708807 13.029751724731803
Ag 14.032076760202461 10.11099562057942 10.811725804595625
Ag 9.350219978780117 11.513922797202994 13.724584963596447
Ag 9.99881046477444 8.334596649526805 10.321659293770457
Ag 12.953401875138924 12.769777760697274 10.378774860086661
Ag 8.378062637005106 13.370170361677983 11.831240146871963
Ag 12.677813736820623 8.023353297534452 9.655137385054807
Ag 10.248090644899703 12.637592119644617 9.844700718830955
Ag 8.475508387363453 10.62246485422229 11.129833276608736
Ag 11.985992753305453 13.14173945639252 7.788146915308291
Ag 10.823941087739612 8.280159349768894 7.6151321479223935
Ag 12.064153440630667 10.56405899674004 8.734216017976944
Ag 7.582726273943307 12.554341694678529 9.271786314541691
Ag 9.216797053580844 10.388976860989166 8.41441835672546
