13
Energy = -24.20769583 eV
Ag 6.723411003534154 9.28034543417648 8.979478418404923
Ag 4.865011092410358 4.702114329690887 6.5505264287974185
Ag 5.354926156594161 7.020455708120214 7.96127211227555
Ag 5.354926156594161 7.020455708120214 5.139780745319286
Ag 6.723411003534154 9.28034543417648 4.121574439189913
Ag 7.719275752813027 8.128470931504555 6.5505264287974185
Ag 7.670917643128966 5.344911293671901 6.5505264287974185
Ag 7.855824981100905 6.729582537177846 4.057191815081796
Ag 7.855824981100905 6.729582537177846 9.043861042513042
Ag 6.424323709274108 4.338358095328589 4.258660662512193
Ag 6.798472775390675 2.6843461637439145 6.5505264287974185
Ag 5.386194609616611 9.559517306149074 6.5505264287974185
Ag 6.424323709274108 4.338358095328589 8.842392195082644
