18
Energy = -35.88124225 eV
Ag 9.821899895356987 5.458338872118638 6.608388221275871
Ag 7.246834627841601 6.665800922367282 6.608388221275871
Ag 6.667838951418554 8.133325639932306 8.967174392404296
Ag 9.369002494015248 7.855531271512012 5.138738412645825
Ag 7.537592668215964 9.424678375869014 6.608388221275871
Ag 8.086613905012364 5.381529630631145 8.949494450753658
Ag 7.507748943157752 3.868419725331541 6.608388221275871
Ag 9.369002494015248 7.855531271512012 8.078038029905915
Ag 5.862269426445091 5.868510098630559 10.532864000000002
Ag 5.327131234199411 4.919289272717377 5.195874633739061
Ag 6.667838951418554 8.133325639932306 4.249602050147449
Ag 5.327131234199411 4.919289272717377 8.020901808812674
Ag 8.086613905012364 5.381529630631145 4.267281991798086
Ag 5.862269426445091 5.868510098630559 2.6839124425517475
Ag 3.242372553714084 6.123273603591645 6.608388221275871
Ag 4.920684789418325 8.452475529086962 6.608388221275871
Ag 4.024071241539827 7.320814563876906 4.212884254937148
Ag 4.024071241539827 7.320814563876906 9.003892187614596
