12
Energy = -22.29025028 eV
Ag 8.61967859576547 9.055362020812572 7.105347248378541
Ag 10.148068282757556 8.215952337072109 9.370854557505817
Ag 8.636681000041188 9.055360764227784 11.639228998870353
Ag 6.033569296888883 9.90624519567077 7.903520079275869
Ag 11.571091041069211 8.358702380900448 7.012459611590601
Ag 6.043830142852069 9.907114675703646 10.858975415839154
Ag 10.695226417633737 10.768855250591583 10.72688039739088
Ag 7.380784640976957 8.016427248485115 9.374538959472128
Ag 11.601030001397106 8.360249119941424 11.710679174760486
Ag 10.684724260898347 10.77007073146924 8.002383617394576
Ag 12.762591168142459 9.259006582585615 9.359002382016042
Ag 8.257451151576754 10.766328032562642 9.370854557505815
