14
Energy = -25.85381541 eV
Ag 9.574319616497364 4.672811364269395 7.678291672719063
Ag 6.798922306068799 3.4579400366295445 7.745871215411341
Ag 9.488057586020854 7.310502000166851 7.09689041806874
Ag 7.580145710355503 5.369494754010351 5.9085606194787665
Ag 9.213174056673576 9.852765412757586 6.106823353385664
Ag 7.365726077388164 6.146579766196359 8.620189198290138
Ag 4.812934533923822 4.94085370645132 6.678589349870103
Ag 7.792157462152655 7.883160620516682 4.798403809229967
Ag 7.17114043227944 8.69676323164364 7.605942577391724
Ag 5.926239955884977 5.8800906307353795 3.778277217840098
Ag 3.296825578843873 5.611430156426337 4.46284443302159
Ag 5.1221794936744445 7.553331651849001 5.763220507173777
Ag 2.688943633477562 6.8504695969188445 6.9313691558473
Ag 4.8936229715104 7.36497582138887 8.490802638954777
