15
Energy = -27.64111233 eV
Ag 4.020751974405247 5.955417649185917 7.37525663826089
Ag 6.630401272187644 6.415483400786995 6.307974701613928
Ag 8.086006709590901 4.390086760030616 5.086397011442376
Ag 4.679236065651827 8.491523021241003 6.342512296842085
Ag 5.776624344235729 7.667759025247567 8.865074830168155
Ag 4.497910680950798 6.264033314565023 4.538345693976029
Ag 7.996033516385009 6.511772028050181 10.081612701350116
Ag 8.413767902991458 8.194006211943009 7.881304359047334
Ag 6.441169080284993 10.15825377952133 7.771204540514935
Ag 7.0570163429271595 6.693613040151393 3.5851790800940204
Ag 8.89434476995283 5.361669445401509 7.674707802047066
Ag 9.276036336569012 7.002372315918841 5.414188515551214
Ag 5.505949996767116 3.909753670233842 5.961184748458206
Ag 7.264922385390178 8.987546640204547 5.337197760850363
Ag 6.287541538880392 4.813626659960144 8.60653978648936
