19
Energy = -37.86926151 eV
Ag 6.573780884512753 4.919462039971704 3.4508654305412985
Ag 5.13459742104192 7.389455439915454 3.4509898562939254
Ag 8.012964347983585 7.389455439915454 3.4509898562939254
Ag 6.573780884512753 8.35176997568042 5.660606905032289
Ag 5.038927836600942 5.685291987053952 5.671082251975355
Ag 8.10863393242456 5.685291987053952 5.671082251975355
Ag 6.573780884512753 3.298895237636821 5.704206915744589
Ag 3.739412856561046 8.211339219654928 5.702482113976857
Ag 9.408148912464457 8.211339219654928 5.702482113976857
Ag 6.573780884512753 6.574400904560051 8.100662462595457
Ag 8.033159450114187 4.144223032101482 8.039295901176548
Ag 5.114402318911315 4.144223032101482 8.039295901176548
Ag 9.397668665944407 6.533737741884109 8.041174924900817
Ag 3.7498931030811016 6.533737741884109 8.041174924900817
Ag 7.948477053377761 9.054202988266564 8.03577885086887
Ag 5.199084715647745 9.054202988266564 8.03577885086887
Ag 6.573780884512753 1.8152819660576318 8.036538182832272
Ag 10.697590000000002 8.952762932040963 8.033674555305218
Ag 2.449971769025505 8.952762932040963 8.033674555305218
