10
Energy = -17.69767692 eV
Ag 6.797985457413391 7.282854295881651 3.0978103183309558
Ag 4.7238211349134644 6.970248565359271 4.779413392479512
Ag 7.315472796706634 7.519045128811617 5.810152028649162
Ag 2.980867526334467 6.567111407739236 6.782628223376338
Ag 6.910887374118627 4.960398375787591 4.767332395353029
Ag 7.596133460241245 7.276923625456577 8.530793204875474
Ag 5.52448130437962 5.480463030951351 7.069863231537387
Ag 8.21748925688567 4.924994274898323 7.229557671623073
Ag 5.22003107002837 8.229151050731408 7.4262781811953245
Ag 9.626704690565036 5.7026843159687965 9.420045424166407
