13
Energy = -24.00661633 eV
Ag 6.559768357519981 8.382932961832994 8.553598861151245
Ag 8.005248702270967 7.958945956404545 6.217380219454816
Ag 8.623551651526451 6.559768357519981 8.661884239906481
Ag 4.21654186601438 6.559768357519981 3.875031647014121
Ag 4.495985063513511 6.559768357519981 8.661884239906481
Ag 5.114288012768997 5.160590758635417 6.217380219454816
Ag 6.559768357519981 5.135324954285123 3.7995143296123923
Ag 8.902994849025578 6.559768357519981 3.875031647014121
Ag 6.559768357519981 4.736603753206968 8.553598861151245
Ag 8.005248702270967 5.160590758635417 6.217380219454816
Ag 5.114288012768997 7.958945956404545 6.217380219454816
Ag 6.559768357519981 7.984211760754841 3.7995143296123923
Ag 6.559768357519981 6.559768357519981 10.62740961457243
