12
Energy = -21.31827969 eV
Ag 6.541229531926555 8.582753385894168 6.541229531926555
Ag 7.943971227714525 5.138487836138583 4.22386606385317
Ag 7.943971227714525 7.943971227714525 4.22386606385317
Ag 6.541229531926555 4.499705677958938 6.541229531926555
Ag 8.582753385894168 6.541229531926555 6.541229531926555
Ag 7.943971227714525 5.138487836138583 8.858593000000063
Ag 7.943971227714525 7.943971227714525 8.858593000000063
Ag 5.138487836138583 5.138487836138583 4.22386606385317
Ag 5.138487836138583 7.943971227714525 4.22386606385317
Ag 4.499705677958938 6.541229531926555 6.541229531926555
Ag 5.138487836138583 7.943971227714525 8.858593000000063
Ag 5.138487836138583 5.138487836138583 8.858593000000063
