14
Energy = -25.78010958 eV
Ag 7.630971207988744 7.545801088839039 6.565525267358687
Ag 5.2872988154735125 5.41359117952564 8.060102514827769
Ag 6.084787147492535 7.985923133517873 8.761438507819662
Ag 4.22649798607183 7.573464642917889 6.565525267358687
Ag 9.182489876486212 3.1062670423306176 6.565525267358687
Ag 6.516088160257159 3.313323289274707 6.565525267358687
Ag 8.01367111216389 5.217845765727165 5.094139021924938
Ag 8.009848495050425 9.868443507613241 5.049215961041339
Ag 5.725582820395843 9.820632932847996 6.565525267358687
Ag 5.2872988154735125 5.41359117952564 5.070948019889606
Ag 6.084787147492535 7.985923133517873 4.369612026897712
Ag 8.01367111216389 5.217845765727165 8.036911512792438
Ag 8.009848495050425 9.868443507613241 8.081834573676037
Ag 3.844512551461118 3.586257574043811 6.565525267358687
