14
Energy = -25.77071425 eV
Ag 6.56503278043111 9.356533000000002 7.6675155396957075
Ag 6.56503278043111 6.56503278043111 8.71899392456515
Ag 9.319800829667352 6.56503278043111 5.208574002112398
Ag 6.56503278043111 3.77353256086222 7.6675155396957075
Ag 3.8102647311948723 6.56503278043111 5.208574002112398
Ag 6.56503278043111 6.56503278043111 5.89177911513314
Ag 7.962472435048404 9.037123955718462 5.248831046431398
Ag 4.244119682588167 5.202748038538273 7.638045654248732
Ag 5.167593125813816 4.092941605143764 5.248831046431398
Ag 4.244119682588167 7.927317522323948 7.638045654248732
Ag 8.885945878274057 7.927317522323948 7.638045654248732
Ag 8.885945878274057 5.202748038538273 7.638045654248732
Ag 7.962472435048404 4.092941605143764 5.248831046431398
Ag 5.167593125813816 9.037123955718462 5.248831046431398
