15
Energy = -28.13131685 eV
Ag 8.777316757930178 5.364072832077454 7.392407265552324
Ag 10.40544827821518 7.283511755100057 6.338880193625727
Ag 6.589795294453593 3.876452292182631 8.196437023959337
Ag 6.981843678567849 6.557518783541702 9.19532464403451
Ag 7.871049285535182 8.14924688777983 6.998200768744093
Ag 8.168279402781577 6.353018307316029 4.843182908512472
Ag 6.890077036829354 9.328207927291102 9.339003181793691
Ag 5.216526821702205 8.947142844511076 7.244968388562917
Ag 5.7540795665015185 7.91830526479568 4.713258298763896
Ag 5.901342394924656 6.013897553550309 6.678432324759113
Ag 5.820803519134548 5.173010497897745 3.9430403645610617
Ag 7.496802482669269 3.573173189470505 5.532615709229788
Ag 3.225008196155713 8.895006354323337 5.40345570874145
Ag 4.628923459437366 3.6532071543076605 5.9922047050038705
Ag 3.4941384029857763 6.127641315720145 5.216267489149524
