19
Energy = -37.96195715 eV
Ag 8.331108879256725 4.733789859622879 8.957975670089306
Ag 5.797788201597253 8.774351670703853 4.232869610021392
Ag 4.395457138240366 9.470308821522757 6.536815362488199
Ag 3.6163557615964974 7.0954803036862 5.127702174349089
Ag 9.377992317956373 5.801600897250667 6.536815362488199
Ag 3.6163557615964974 7.0954803036862 7.94592855062731
Ag 6.1232667297214185 7.087250816072012 6.536815362488199
Ag 5.702100014334788 3.347722561738399 8.701823975538714
Ag 5.888876735677582 6.015220152518811 9.163018756213901
Ag 8.26649891607601 7.502915446445175 4.585289432532702
Ag 5.797788201597253 8.774351670703853 8.84076111495501
Ag 5.702100014334788 3.347722561738399 4.371806749437683
Ag 8.331108879256725 4.733789859622879 4.115655054887091
Ag 5.888876735677582 6.015220152518811 3.9106119687625007
Ag 7.366439558597005 9.554197976223941 6.536815362488199
Ag 4.517668437499719 4.760880989499538 6.536815362488199
Ag 9.984603036620095 8.534733669153312 6.536815362488199
Ag 8.26649891607601 7.502915446445175 8.4883412924437
Ag 7.228607651562838 4.051558728122791 6.536815362488199
