18
Energy = -34.58485856 eV
Ag 10.487303975398559 7.49049681196886 5.113813720801871
Ag 10.328116107957952 10.084245412889668 6.690213593496563
Ag 9.768796996339573 9.85775689755555 9.363526736899674
Ag 9.448759095050272 7.672694713418554 7.688653781696489
Ag 8.010122648801437 6.117515025967064 5.74912102847211
Ag 8.223865389581356 8.909434716799401 5.2725563103704784
Ag 7.531869249706877 5.885788481603108 8.475108547298237
Ag 7.299585600300403 9.529968184382598 8.029817459717561
Ag 7.998944179230331 7.91036939668275 10.350423782973568
Ag 5.428378286277879 7.796269439525797 9.319455902721655
Ag 6.848762626634751 3.7131539552676776 7.008917234739461
Ag 6.20010991283391 5.58464824653099 10.789584558567634
Ag 6.000205258065935 10.300577670798166 5.604182615230252
Ag 6.163082791675913 7.579583938144786 3.9342848567014665
Ag 5.684675696717566 7.702172982443518 6.628405445242145
Ag 4.823613976571519 5.321908643783579 8.117634276615503
Ag 5.2340961702363575 5.319218645584321 5.2978941224108445
Ag 4.269539759538105 3.0089766004907457 6.444007567482486
