12
Energy = -22.18989593 eV
Ag 7.836526558582599 7.10967624019881 6.547724987720229
Ag 7.515346665095805 4.327917084749371 6.547724987720229
Ag 6.743077210130765 5.751711472014924 8.793873192794686
Ag 5.410633703258958 8.109174963331608 7.919945371631535
Ag 5.410633703258958 8.109174963331608 5.175504603808924
Ag 4.955202393238414 5.709477167889404 6.547724987720229
Ag 5.388220341888709 3.36690377106782 5.086742540633967
Ag 6.743077210130765 5.751711472014924 4.30157678264577
Ag 5.388220341888709 3.36690377106782 8.008707434806496
Ag 7.942331274866291 8.54990257567434 4.189533698306893
Ag 7.297099175436346 9.870243795627365 6.547724987720229
Ag 7.942331274866291 8.54990257567434 8.905916277133565
