16
Energy = -30.29480099 eV
Ag 5.560023716486547 7.730974158618376 10.290035049513687
Ag 8.843618266576533 6.262703463090106 7.335089815624372
Ag 6.221340503222614 6.166848627660228 8.204529778047679
Ag 7.81190870684238 8.545943000896733 8.646489052310548
Ag 6.839833421178304 3.5158222165218125 7.928051264225331
Ag 3.5078841195170507 6.624285137257086 8.413270019997098
Ag 5.139722359857672 8.85552491348781 7.774685463197395
Ag 9.758347199355962 8.74416734877106 6.53270946656014
Ag 4.395417061012663 4.4079358306970455 6.827144911675045
Ag 6.968380853957333 5.073427363700288 5.683659653116462
Ag 9.011961567649704 6.780719650564664 4.558624431648874
Ag 7.105003655135672 8.41513953707844 5.8931672336327985
Ag 4.6044022652742855 6.990476625721945 5.76852715450479
Ag 4.812422086040322 4.712598212634748 4.002934672365794
Ag 6.364070950884875 7.067225545676887 3.609089168190211
Ag 7.6579759380918535 4.655038412904535 3.1161238513546916
