10
Energy = -17.50949398 eV
Ag 7.510023389211595 6.9896281162335345 7.612365577672644
Ag 4.722321706552569 5.22963817597063 4.6238111274263884
Ag 4.5679679232365595 7.915958309289429 3.8855122320286437
Ag 7.366976833311872 5.114172324638435 5.513239246016772
Ag 6.512591163715928 6.368767786911739 2.8042678494179714
Ag 5.696193460386469 5.882580516735901 9.416934703688817
Ag 4.878441510412373 7.117644609035224 6.709902970117606
Ag 5.1766006122003905 4.374466889251707 7.130950522921244
Ag 7.075140953444979 7.857432981766866 5.104033378320943
Ag 7.666026381610027 4.321994224250029 8.371266326471726
