11
Energy = -19.23672828 eV
Ag 4.544048517680938 9.445197211216307 5.811460210024976
Ag 8.435643886756486 4.860256488071401 9.88839084009158
Ag 6.121720793950007 4.711709788035773 8.584662084403151
Ag 3.9203666499544 4.4438250450882855 7.083154215096235
Ag 5.092910503762155 7.039276102575038 7.129180517765836
Ag 7.206550007986628 8.837279242348952 6.40222242082504
Ag 6.949165920775857 5.460373461858405 3.075250427436053
Ag 8.03335993363593 6.503585906741518 7.7092242014127015
Ag 5.740739880935384 7.504208842747281 4.370583189468323
Ag 6.352376304304513 5.064995465099339 5.7413836235794315
Ag 8.442298915050982 6.895911168757847 4.971178077668776
