14
Energy = -26.10829991 eV
Ag 6.399526177558264 7.386251489657787 6.344553799267488
Ag 7.839950210486851 9.266909016728073 7.819713847828862
Ag 7.866493437786679 6.529057748820771 8.517220751810058
Ag 9.356439328647937 7.480984021334941 6.344553799267488
Ag 3.5595210207680092 4.200998479104069 6.344553799267488
Ag 3.676856568822132 6.959511427663997 6.344553799267488
Ag 5.24807515948744 5.493401994912474 4.5042812656824625
Ag 5.589174316767651 2.8235297431105884 4.93549433287581
Ag 7.231912461497356 4.641975620264901 6.344553799267488
Ag 7.839950210486851 9.266909016728073 4.869393750706113
Ag 7.866493437786679 6.529057748820771 4.1718868467249175
Ag 5.24807515948744 5.493401994912474 8.184826332852515
Ag 5.589174316767651 2.8235297431105884 7.753613265659166
Ag 5.5121113833934645 9.928235144575613 6.344553799267488
