10
Energy = -17.25598497 eV
Ag 9.69623494218684 6.428202431792643 5.479351520467022
Ag 8.053980440862377 7.282606498024303 7.556132760729286
Ag 7.437332687567258 4.955854095762092 6.062784022666255
Ag 6.065111499152778 5.587136252431048 8.450783241612976
Ag 7.314524552053723 9.721959398282884 6.451161139619868
Ag 5.084650706600145 3.6202084489492155 6.673483302744066
Ag 7.219601622577749 7.484286528472038 4.793081523422234
Ag 5.350545514292764 7.832962583636593 6.888740486347016
Ag 5.004700896814653 5.836084419203054 4.919139945760071
Ag 3.4937099856632408 5.810457028537415 7.305644865531846
