16
Energy = -30.5980679 eV
Ag 7.944768063126763 9.302975799827438 5.536249061863619
Ag 6.682219919110402 9.695335392279638 8.143675819046699
Ag 8.984074289180471 5.824521363849306 11.374609368703222
Ag 7.637151305073464 8.060547542493358 10.251460171589658
Ag 5.795181981817219 5.459922698907179 6.777300062958139
Ag 5.387995098972855 8.347934977739591 6.04672099894625
Ag 3.266097619460892 6.794864906517568 6.8445386574979326
Ag 9.571437538433932 8.074696827953051 3.628222362054697
Ag 5.182254046556409 7.332385899061827 8.82127840460437
Ag 4.663999465603278 6.1680795906142265 4.3930971531065754
Ag 7.751078610365286 7.244049227164397 7.403530895949547
Ag 9.453669765276464 9.2316118038668 8.454661691199549
Ag 10.218967006156573 7.591038139367581 6.242905823378932
Ag 7.241123649879186 5.3689466602855145 9.302470814160655
Ag 9.94679676497034 6.514963044465195 8.918407873858184
Ag 7.378242399714342 6.6702821733972355 4.635455906294327
