13
Energy = -23.5359893 eV
Ag 9.07534858363816 7.63237711708847 6.496676258417364
Ag 7.4756185981972 8.207705134116084 4.301431639765747
Ag 9.171402503787236 4.958325002041449 7.7315348341404
Ag 7.617761311019488 5.509265351703904 5.468040055831724
Ag 6.929121145378027 9.339779890159955 6.837880037283486
Ag 7.033903522356224 6.704308301662105 8.142765640578938
Ag 5.675202979975082 3.5749842612962484 4.955774177690532
Ag 4.669195840585914 8.138089453981475 7.903463804768887
Ag 4.7936866669741915 8.514049185193953 5.171310453697443
Ag 6.545832542607953 3.9391677376373972 7.5997377593488125
Ag 4.742432336478492 5.459986611283053 9.137103972569554
Ag 5.566147011359637 6.272262835294136 3.74696554327013
Ag 4.779029054049807 5.817462359766062 6.369897604308615
