14
Energy = -25.29107888 eV
Ag 5.3660957044921425 8.71112793950522 7.907333509655689
Ag 7.726888302993699 7.2602159705915215 7.925599250863448
Ag 9.887483452866928 8.378172674696666 6.554695226172918
Ag 3.2219069994789047 4.731217777649168 6.554695226172918
Ag 3.274313926652137 7.411824078570995 6.554695226172918
Ag 5.382502149352138 5.849174481754312 5.183791201482385
Ag 7.743294747853697 4.398262512840615 5.202056942690145
Ag 9.835076525693696 5.69756637377484 6.554695226172918
Ag 5.3660957044921425 8.71112793950522 5.202056942690145
Ag 7.726888302993699 7.2602159705915215 5.183791201482385
Ag 5.382502149352138 5.849174481754312 7.925599250863448
Ag 7.743294747853697 4.398262512840615 7.907333509655689
Ag 3.22975006470641 10.11574 6.554695226172918
Ag 9.879640387639423 2.993650452345833 6.554695226172918
