16
Energy = -30.76148464 eV
Ag 6.83356576421144 10.804779835113289 9.611179311775297
Ag 7.520514543905575 9.355988361097825 8.120371028756301
Ag 8.344284410122079 9.48380318889198 11.503912542660329
Ag 9.024868172051077 7.542967782195487 10.30259347707138
Ag 10.449752694184122 9.018989125773382 11.752319776123471
Ag 6.385591088739109 8.611462239815918 10.03147790090643
Ag 7.370428808694841 6.613493300923339 8.830742826470411
Ag 12.315643599559216 9.671588833023261 9.922338768984496
Ag 11.383145113322255 7.562255099420847 9.58569680868021
Ag 10.959016947990053 11.382876571502136 8.555551700503134
Ag 8.57362151660843 11.397546718825284 8.087148717737724
Ag 9.462576613534436 7.424219112290751 8.092420566116727
Ag 11.76714442395127 9.167478201923526 7.865913353692461
Ag 9.42728718557875 9.482195137150025 6.728295578441868
Ag 9.574717609363738 9.355988361097827 9.158194544403672
Ag 9.407017508183328 11.923544130954841 10.138429052402747
