15
Energy = -27.43180317 eV
Ag 7.456070577094328 7.951951825728547 8.054254029815544
Ag 5.671944692972869 8.14623080763486 10.284723198821982
Ag 9.418060461510475 7.315790979009601 6.2017386621026604
Ag 6.336946488917604 3.2173270954557034 8.034142529071843
Ag 8.221309361781179 5.277458170543007 4.5835828112460355
Ag 5.839340460753798 5.367722065046978 6.2994109932743205
Ag 10.618971758244907 4.895216547538204 5.979615229503196
Ag 4.709083276986334 7.708211948069418 7.759946470874564
Ag 5.76754370659515 5.891148601597674 3.485253752609693
Ag 6.203314323609382 5.722227573056347 9.137426150680133
Ag 8.444944051862297 9.837668737197024 6.038712521824412
Ag 2.446491283696573 8.740045291058529 6.782070564695285
Ag 4.0082209624969245 7.258474159098835 5.112913442634923
Ag 8.343307811556706 5.0994165947789885 7.487385109477847
Ag 6.789524594667937 7.7561822884493745 5.307121092967542
