19
Energy = -37.29780599 eV
Ag 8.416378522350218 9.46731048200913 4.460866173522995
Ag 5.730172350195096 8.9436889134284 4.405597245514766
Ag 9.7385507213665 9.279672015019585 6.82250551300374
Ag 8.357436250691155 6.918454911479481 5.463476742192845
Ag 10.03107209654443 6.683848132762218 7.660264842813842
Ag 5.840515509415613 6.189708903603246 4.327521858943766
Ag 6.942562547796335 9.125286574584694 6.90451638091441
Ag 3.3966761087248756 7.548477259754776 4.004862702927843
Ag 7.98268068388434 4.4687147614157965 4.153881592960085
Ag 8.62561845300707 4.439308935289005 6.851350618245788
Ag 8.425367143103761 8.752697524526045 9.223031896825875
Ag 5.99506965201766 3.979895779689813 6.0662977060351775
Ag 7.671018976785268 6.104547482338525 8.910818520616766
Ag 4.429307392436602 7.868084261608489 6.626085459992152
Ag 5.655789648850419 8.070018675349434 9.118150369772515
Ag 3.5698096093826894 5.351216758601366 5.739593335460283
Ag 6.712671233698952 3.5230991341874 8.72184825357065
Ag 4.873359143429968 5.562311293610174 8.146788203555147
Ag 5.6807967049179275 5.783163894019936 10.7609590667032
