11
Energy = -19.37798761 eV
Ag 6.194881934540764 3.9391500897119407 5.249897252006841
Ag 8.492025461633414 5.538790941403377 5.203525720972949
Ag 5.771394049854913 6.087429741098667 3.4899448742142134
Ag 8.177186459572633 7.271463130752071 3.0566827148211058
Ag 6.964137982453366 5.307858717528553 7.502162557230399
Ag 6.8340330332379615 6.012341092858968 10.226428389238214
Ag 6.875587092012089 7.710523724871667 5.511807474155706
Ag 4.448230596425861 5.9243075713782805 5.943615188135666
Ag 7.213700521040488 7.916086883442249 8.249801376371572
Ag 4.5674684104405285 6.137502724817877 8.732584585766789
Ag 4.721905938421175 8.396150641342555 7.070019159654353
