14
Energy = -25.38953571 eV
Ag 6.610972992669292 8.540936940762986 3.89900897243686
Ag 8.031553154002253 4.350034984835605 6.378322623668573
Ag 6.610972992669292 4.681009044575598 3.89900897243686
Ag 6.610972992669292 6.610972992669292 10.559984987098275
Ag 5.190392831336332 4.350034984835605 6.378322623668573
Ag 6.610972992669292 4.344741043847321 8.840273037057528
Ag 6.610972992669292 6.610972992669292 5.953947126353053
Ag 5.053469996622614 6.610972992669292 8.260857222719459
Ag 4.532603044977661 6.610972992669292 4.263060412408602
Ag 8.168475988715972 6.610972992669292 8.260857222719459
Ag 8.689342940360925 6.610972992669292 4.263060412408602
Ag 5.190392831336332 8.871911000502978 6.378322623668573
Ag 6.610972992669292 8.877204941491264 8.840273037057528
Ag 8.031553154002253 8.871911000502978 6.378322623668573
