12
Energy = -21.67804313 eV
Ag 6.082196985373085 4.781126117912665 7.012208488830777
Ag 9.009014965333796 8.119863687788191 8.236246706730144
Ag 4.257844224637598 5.947134662448634 5.103577129107022
Ag 6.66511601516189 4.876229325368709 4.309866016450487
Ag 6.5598224867685655 7.615619739427426 3.9444944014933845
Ag 8.18325339986423 6.4195262742170245 6.021094481972482
Ag 7.5304021304351325 9.084640832211306 5.996864072279064
Ag 4.921596841371189 6.006762948884024 2.439749129363642
Ag 8.23060132119768 5.505358458563556 8.707658416341543
Ag 6.333571957026092 7.487506650481969 7.9848318922890416
Ag 3.855789660691611 6.226887366747121 7.7681614828767565
Ag 5.70076779462386 5.484602024436066 9.81428604243418
