19
Energy = -37.16678904 eV
Ag 6.560571057722572 6.560571057722572 6.560571057722572
Ag 8.609117640584543 6.560571057722572 8.609117640584543
Ag 8.609117640584543 6.560571057722572 4.512024474860596
Ag 4.512024474860596 6.560571057722572 4.512024474860596
Ag 4.512024474860596 6.560571057722572 8.609117640584543
Ag 10.469210000000002 6.560571057722572 6.560571057722572
Ag 6.560571057722572 6.560571057722572 2.6519321154451414
Ag 2.6519321154451414 6.560571057722572 6.560571057722572
Ag 6.560571057722572 6.560571057722572 10.469210000000002
Ag 8.609117640584543 8.609117640584543 6.560571057722572
Ag 4.512024474860596 8.609117640584543 6.560571057722572
Ag 6.560571057722572 8.609117640584543 8.609117640584543
Ag 6.560571057722572 8.609117640584543 4.512024474860596
Ag 6.560571057722572 10.469210000000002 6.560571057722572
Ag 8.609117640584543 4.512024474860596 6.560571057722572
Ag 4.512024474860596 4.512024474860596 6.560571057722572
Ag 6.560571057722572 4.512024474860596 8.609117640584543
Ag 6.560571057722572 4.512024474860596 4.512024474860596
Ag 6.560571057722572 2.6519321154451414 6.560571057722572
