11
Energy = -19.75740159 eV
Ag 4.152971147067742 9.385086637482939 6.134127190192521
Ag 6.289617136283117 7.568034746370252 5.231121623801949
Ag 6.750932208795832 9.99121495181182 6.62825836804774
Ag 8.434430194969694 7.855078135973046 7.099888917266115
Ag 3.766499721530714 6.704084893937854 6.18851566886195
Ag 8.312176809335423 5.67132048755518 5.364796472136288
Ag 5.710034023550141 7.739127232824271 8.002931092543962
Ag 5.962910361450268 5.16233075828307 6.783472732207363
Ag 7.592080216945271 5.91166323675863 8.919012384925558
Ag 8.23164648780487 3.628331380391055 7.344866598805911
Ag 10.073599430962515 5.623702910982139 7.582576840454742
