12
Energy = -22.12874901 eV
Ag 7.743650028923923 5.35153352205621 7.964746902125525
Ag 7.774637368712313 8.116909935867712 7.9425021475187165
Ag 5.273599364453998 6.780413861151214 7.947588909148032
Ag 5.591474859863008 9.238950278184413 6.54133595856204
Ag 7.774637368712313 8.116909935867712 5.140169769605361
Ag 7.743650028923923 5.35153352205621 5.117925014998555
Ag 5.273599364453998 6.780413861151214 5.135083007976045
Ag 9.799391476002182 6.823765735670407 6.54133595856204
Ag 9.672480845158363 4.024256925972595 6.54133595856204
Ag 3.1018053931262632 5.441545343865883 6.54133595856204
Ag 5.612831450732538 4.327764814627737 6.54133595856204
Ag 3.134273953681502 8.142033766272888 6.54133595856204
