15
Energy = -28.51290261 eV
Ag 6.931299768227261 7.119974839285428 4.221409084656499
Ag 5.718057015820473 5.13253322062033 5.99558396160841
Ag 9.926411420994693 4.988227208541638 8.377125584084494
Ag 8.7427904685956 6.1277662842583975 6.100184776586271
Ag 5.573364635989272 4.142451250778234 8.545344365867933
Ag 4.261612985244467 7.43257439625433 5.196363226191307
Ag 4.787907042884453 6.820618815482259 7.95812513566126
Ag 6.249410509096587 8.71983016977191 9.329708691131298
Ag 7.560605860276567 4.26004843996284 4.226564150584288
Ag 7.4861615604526115 6.208964633322839 8.632996817413009
Ag 7.898307622205669 3.6677439356418544 7.035094220047895
Ag 4.955313752400298 5.421081912727978 3.340972354931658
Ag 5.824414417824345 9.685947803988043 4.661188176826635
Ag 4.545459606438622 9.498495690774332 7.159921380747301
Ag 7.035690864993426 8.270548930033808 6.716225605106359
