16
Energy = -30.28530463 eV
Ag 6.572426960672783 9.830000999999998 7.154146783155746
Ag 4.2680474512090285 8.87680647013654 5.989840702039864
Ag 3.314852921345567 6.572426960672783 7.154146783155746
Ag 4.2680474512090285 4.2680474512090285 5.989840702039864
Ag 6.572426960672783 3.314852921345567 7.154146783155746
Ag 8.87680647013654 4.2680474512090285 5.989840702039864
Ag 8.596886422960013 6.572426960672783 4.53265632228661
Ag 6.572426960672783 4.547967498385555 4.53265632228661
Ag 4.547967498385555 6.572426960672783 4.53265632228661
Ag 9.830000999999998 6.572426960672783 7.154146783155746
Ag 6.572426960672783 8.596886422960013 4.53265632228661
Ag 8.87680647013654 8.87680647013654 5.989840702039864
Ag 8.011755210084091 8.011755210084091 8.61306403520891
Ag 8.011755210084091 5.133098711261473 8.61306403520891
Ag 5.133098711261473 5.133098711261473 8.61306403520891
Ag 5.133098711261473 8.011755210084091 8.61306403520891
