15
Energy = -28.71741495
Ag 8.16562560485709 8.670586948983424 6.330596033572549
Ag 8.465861317571802 8.131938194245603 9.055737914010136
Ag 6.8244308635198525 9.448163474121472 10.404357954203789
Ag 10.263322076340492 8.318564124868768 7.286728757328618
Ag 10.465656181787944 7.2275040885056185 9.359515929450613
Ag 9.496845801350013 8.88880298724335 11.030369915115946
Ag 6.44968329304572 9.448163474121472 8.146307198743052
Ag 7.550201280162763 11.4196274811834 9.343452971194262
Ag 8.265420182300172 10.783084433401376 12.001427307677664
Ag 9.213598481945636 10.183136679777304 7.960309646581955
Ag 9.744443878217135 10.940643997437627 9.93488419860604
Ag 10.462850782081428 10.227426460668866 12.539149818139544
Ag 11.451122765110272 10.089825441539809 8.416461199191964
Ag 12.76329497410053 8.1544579585253 8.615158277201285
Ag 11.790771661869654 9.441204399636657 10.448470734722054
