11
Energy = -19.29628704 eV
Ag 8.989465279630222 3.6971166620745217 8.100153253960574
Ag 4.93278060438004 4.769483060262327 4.78465435994933
Ag 7.1706275275010904 4.007161988945303 6.163751781786255
Ag 6.829698321345063 6.785522928880017 5.099411715577659
Ag 8.553504031762046 8.677225808499784 6.074015826501368
Ag 8.174263047099162 6.252304290418463 7.542537685798738
Ag 5.252263759148933 5.7614537094481175 7.306550168056004
Ag 4.2181182772741925 7.723565718304084 5.450575683697833
Ag 6.155764610962895 8.395355389106477 7.425448608447061
Ag 6.098683024955198 9.73737686334841 5.063895327724094
Ag 6.260148575143266 6.795018718169881 9.614212036012395
