19
Energy = -37.34960256 eV
Ag 8.674294722326648 5.1619275104913935 5.6802356300595225
Ag 6.122609102787744 4.127297244866226 5.250184064193427
Ag 8.281603917470514 7.874617372708886 5.8829096950253925
Ag 7.157629465327777 6.306688611077817 3.7328751288767266
Ag 7.566415758253937 3.658014552759669 7.71338419974841
Ag 4.795773036326642 3.2539001400347716 7.495664782195428
Ag 7.4523150123460455 9.09938333215089 3.577952101476945
Ag 4.303708699616481 5.772816526959976 3.772537130584637
Ag 5.387474708823604 7.772594140191358 2.1868536280444113
Ag 3.193716072432279 3.8090760036134057 5.3143300538478115
Ag 8.538224246261736 6.3576717988772815 8.178674442215604
Ag 5.236883520262056 8.07835726354589 5.03556664227028
Ag 8.037268495216756 4.724671989215706 10.304670022758268
Ag 4.225267743737897 5.992441393987138 6.6302241769273635
Ag 5.7288920185849666 5.463341880375303 8.894841094388743
Ag 6.705482941235903 10.165021797151283 6.188340414527814
Ag 5.74153112506745 8.027210890032588 7.778992114391536
Ag 8.144718777906359 9.213623226239278 8.416295969066494
Ag 7.033247911375363 7.462676678946917 10.274364023640707
