16
Energy = -30.64798998 eV
Ag 3.975258042792959 8.617464235796776 6.95102851483439
Ag 4.614891417518881 6.664250198860214 4.916608869025063
Ag 5.181262029215861 7.066027407791193 8.895813029030945
Ag 5.72500533012471 4.576131964613206 7.689603534483188
Ag 7.651884185286062 5.817109650917762 9.35407192621427
Ag 3.2397121870132746 5.950311003396953 7.210811672630202
Ag 4.183511499572942 3.922075038439453 5.51467468004594
Ag 9.802225002641931 6.812062792170215 7.762707455140801
Ag 8.663044336722393 4.309545378151247 7.260910753052125
Ag 8.789954803645216 8.727363060455797 5.871342490790213
Ag 5.974720144095566 9.050486978879979 5.112242099719745
Ag 6.935810429309739 4.39136740666693 5.08905686964555
Ag 9.38371038979446 5.938847801747469 5.119258545904632
Ag 7.221976764510635 6.99673346986225 3.821337672225833
Ag 7.1147977242879215 6.800131378501063 6.728876473081257
Ag 6.595501188437496 9.413357708720108 7.754920889146884
