18
Energy = -34.59261389 eV
Ag 7.572688140385287 6.022642630784469 7.9871746620318484
Ag 10.003770359664989 7.678240196745483 10.750594515792798
Ag 9.093647745037773 8.546239115434325 8.34124730758906
Ag 8.846218333053 5.182643607180384 3.8988143303775797
Ag 7.946562605054538 9.683608850666365 10.678032481503717
Ag 6.91325863206553 7.139569817046155 4.264546462178992
Ag 6.625527757920765 4.763445871944413 5.694361073592597
Ag 5.256097852720908 10.572884670931854 9.95199567483822
Ag 6.347214312406909 8.295758551918954 8.934788369480563
Ag 8.2225696335 2.648089638325286 4.653052800405436
Ag 7.366554641216437 10.922643465799093 8.20833022519847
Ag 4.985411944918704 10.057556544742846 7.0046404661797
Ag 9.25164918517101 4.267328829638378 6.63342884960232
Ag 9.301920957971138 7.0268648238314055 5.9171315755001395
Ag 7.436247292384489 9.080113315753055 6.150547971275712
Ag 10.303078251721812 6.02145342395392 8.523390570834291
Ag 3.6762150516733456 8.375095899823428 8.745882707646475
Ag 5.326024346575011 7.122881102444322 6.625304591467662
