16
Energy = -30.34738741 eV
Ag 5.588537814001997 9.468851098778261 11.093447963727275
Ag 4.611652625148165 5.075837918121993 6.471821446764094
Ag 6.925330516303946 5.347851372673906 7.891854766241728
Ag 6.95951452267299 9.654452302718736 8.719780259941725
Ag 5.47287993788349 7.741548486265504 7.186605800533689
Ag 8.379648362414757 8.699940148103991 10.924558989852766
Ag 8.236532986050582 8.450247016694751 6.483364899575583
Ag 10.978414745248589 7.749847418241369 6.786298875632612
Ag 9.135268299604142 5.828051917383352 6.0576435361114465
Ag 9.881286432605224 9.520736081810622 8.690707608262004
Ag 6.276204118523933 7.175778727498072 9.786341854558486
Ag 9.037455800687857 6.930174098670015 8.82014239142754
Ag 8.455954649772853 11.16610229156371 7.008405997601906
Ag 6.712013837091947 6.55290619268137 4.981088484406731
Ag 4.077105262096873 7.231449241156614 4.846516801122742
Ag 7.074300309529519 3.882769988083112 5.599935294998191
