10
Energy = -17.70315589 eV
Ag 6.502862711757298 9.174187547214228 3.353815070161925
Ag 4.370012056929701 9.095867174325644 5.068454657545796
Ag 6.400595759099731 7.2951292552341425 5.332882113879497
Ag 8.37466890358965 5.40244500447944 5.5909570654872045
Ag 8.493197622886612 7.303724823137788 3.5879091799302247
Ag 6.447801086171377 5.521639865276158 7.540755920262998
Ag 8.49170766128115 3.7170653351024434 7.785024169852715
Ag 4.466044543542013 7.424624105540831 7.275895632705715
Ag 4.6970409082266515 5.930291617730877 9.591188498996305
Ag 6.74194354030361 4.120900065746378 9.858992484965555
