14
Energy = -26.22585773 eV
Ag 5.05898945411406 6.549527089358923 8.425661077090425
Ag 5.071694313606278 7.936676684143096 5.9019040413305595
Ag 6.549527089358923 8.91496504762675 8.013513261300991
Ag 6.549527089358923 5.087187680115897 3.5462202330540573
Ag 6.549527089358923 4.1840891310911 8.013513261300991
Ag 8.027359865111572 5.162377494574751 5.9019040413305595
Ag 8.8855638839438 6.549527089358923 3.5570649170695265
Ag 6.549527089358923 8.011866498601956 3.5462202330540573
Ag 8.040064724603791 6.549527089358923 8.425661077090425
Ag 8.027359865111572 7.936676684143096 5.9019040413305595
Ag 5.071694313606278 5.162377494574751 5.9019040413305595
Ag 4.213490294774049 6.549527089358923 3.5570649170695265
Ag 6.549527089358923 5.191917630679389 10.500422054336207
Ag 6.549527089358923 7.9071365480384594 10.500422054336207
