10
Energy = -17.51991469 eV
Ag 8.764420648244462 6.931928077466229 4.61638595126586
Ag 9.208979095110305 5.948978036696717 7.670661280380127
Ag 7.2347989250470075 7.756819953549242 6.730375031400035
Ag 6.071709128037198 7.083050855956905 4.139366823951684
Ag 5.1764856833067805 8.078605008070637 8.483382136541028
Ag 6.590734837277775 5.6808328819852045 8.471712303132916
Ag 3.382556377984316 6.953255295855625 4.008942055832358
Ag 5.191540165480603 3.7124075324250283 7.093207114696154
Ag 4.632136385661813 6.3459748961129145 6.368438621925344
Ag 7.2377756215346 5.0148013083315535 5.84665862809109
