14
Energy = -25.65469392 eV
Ag 7.520063645111096 7.980305774184785 8.787473337711413
Ag 6.88445930598146 5.396792108984588 8.221833957505776
Ag 6.278615059764537 10.312670523385522 7.752570555049868
Ag 7.929867907399271 7.139455789153084 6.168060092373026
Ag 8.456692987697796 3.2257905185237945 8.751304820875728
Ag 5.2532891920451386 7.727882026081595 7.310769065786702
Ag 9.12170148070511 4.640483311175385 6.464138852800891
Ag 2.7741567568767627 7.2548274312902645 6.242099061358844
Ag 6.187451123348295 9.460277484635617 5.1931424572915885
Ag 6.615926906835799 3.0889798786467635 6.702718822958827
Ag 6.9881183737266905 4.974629053039637 4.716548195492808
Ag 7.328953916522764 7.616125767279941 3.4904252553282236
Ag 4.671720136467739 5.032636277640926 6.4847869038801536
Ag 4.922505819113881 7.072872977751531 4.594523039811761
