11
Energy = -19.53759511 eV
Ag 9.427148494839027 8.065672405391762 5.077004163752735
Ag 8.88812639137473 6.092133414366871 6.953812543213142
Ag 6.940390799394902 6.758186050747535 4.925044468606839
Ag 7.1373856233426505 4.134856826642297 6.115271178183638
Ag 6.148183331094267 4.4391156280788415 3.53998959397267
Ag 7.488269721395544 8.551251290452068 6.963149408056363
Ag 6.347624605310177 5.946911998255884 8.060924813369743
Ag 4.63909435165382 5.390780306352592 5.63288459048922
Ag 4.808097796029394 7.887063701240346 6.823877811994876
Ag 6.080259822496937 8.483429055830733 9.273416520460504
Ag 3.527882311566515 5.711060690718398 8.078236810756607
