16
Energy = -30.42280518 eV
Ag 5.340802142623084 8.699495079474973 7.934800596382516
Ag 7.788418266700202 7.226409149300371 7.945729010100468
Ag 9.879518478932788 8.50934015764881 6.563418772454842
Ag 3.247319065976895 4.617497387260877 6.563418772454842
Ag 3.2585226519843324 7.3989199208869225 6.563418772454842
Ag 5.338419278209485 5.900428395609314 5.181108534809218
Ag 7.786035402286599 4.427342465434715 5.192036948527167
Ag 9.868314892925353 5.727917624022761 6.563418772454842
Ag 5.340802142623084 8.699495079474973 5.192036948527167
Ag 7.788418266700202 7.226409149300371 5.181108534809218
Ag 5.338419278209485 5.900428395609314 7.945729010100468
Ag 7.786035402286599 4.427342465434715 7.934800596382516
Ag 5.08181518792684 11.143653 6.563418772454842
Ag 8.045022356982845 1.9831845449096828 6.563418772454842
Ag 5.6122281873821525 3.2898188749333723 6.563418772454842
Ag 7.514609357527532 9.837018669976313 6.563418772454842
