18
Energy = -35.27263613 eV
Ag 8.897397660199605 10.025277804562633 5.633802906007429
Ag 9.521370488497686 7.326070801355929 5.617098010385721
Ag 7.634065919146225 5.592974069301073 4.4188342686938205
Ag 6.948521032876132 8.240282880282356 4.8819320286519154
Ag 6.286713445011495 10.38075938872525 6.638797702988517
Ag 9.892714666925478 4.551722735585245 5.519235806369984
Ag 7.937687740495245 8.445778931250373 7.75293524310504
Ag 5.001586387296819 6.263442762961842 4.832460188286349
Ag 8.517643158356366 5.723034693135118 7.703955983441802
Ag 5.007040432045357 8.176301092152018 7.700574791187552
Ag 8.502110229619944 3.0110875598152345 7.348058641110486
Ag 4.250444006670351 8.923098867604946 5.1028266231496815
Ag 6.183921780258606 4.202197008210913 6.345065258883501
Ag 6.579650536923744 6.743844527680455 9.389591976121258
Ag 2.8092138941275437 6.925836710759851 6.416843226992792
Ag 6.615786244039031 4.01844964912604 9.117802627727992
Ag 4.355176920293791 5.472269651479246 8.288371598535837
Ag 3.433457692325876 4.27792336557571 5.87389111005146
