15
Energy = -27.8658998 eV
Ag 6.0509539056006 8.567056099337165 4.876206265670382
Ag 6.251568213064146 9.32717848880242 7.642921203313855
Ag 4.007688564706856 7.615503689440055 6.717662990879615
Ag 8.669167147383176 8.538484645533046 6.137780962380328
Ag 10.514695499147214 6.955627349357866 4.744062119101251
Ag 7.885467005292565 6.372637853300917 4.251936000434483
Ag 5.119200605485263 5.785499071636809 4.654904849121213
Ag 5.278448845742969 6.9784073376603 9.25603111482058
Ag 6.636759692696429 6.702086437244167 6.7760764552416
Ag 9.28636457738087 5.805475283740854 6.915941830598649
Ag 4.641458848011333 4.900286839598569 7.402316880758191
Ag 8.215022943978344 7.6263084412806466 8.926130707312078
Ag 6.444161727357868 9.180196436664735 10.39470187853416
Ag 7.257152364684065 4.909871129174043 8.741337206231341
Ag 7.105049356710198 4.11442312390027 5.908124473011841
