17
Energy = -33.1056672 eV
Ag 6.562152934130011 6.562152934130011 6.562562884315122
Ag 6.562152934130011 9.828719999999999 7.140624675849267
Ag 4.252350585033663 8.871955283226361 5.983713732169463
Ag 3.2955858682600243 6.562152934130011 7.140624675849267
Ag 4.252350585033663 4.252350585033663 5.983713732169463
Ag 6.562152934130011 3.2955858682600243 7.140624675849267
Ag 8.871955283226361 4.252350585033663 5.983713732169463
Ag 8.590378330675605 6.562152934130011 4.477248966835906
Ag 6.562152934130011 4.533927537584419 4.477248966835906
Ag 4.533927537584419 6.562152934130011 4.477248966835906
Ag 9.828719999999999 6.562152934130011 7.140624675849267
Ag 6.562152934130011 8.590378330675605 4.477248966835906
Ag 8.871955283226361 8.871955283226361 5.983713732169463
Ag 7.999748001996871 7.999748001996871 8.646921874119448
Ag 7.999748001996871 5.124557866263153 8.646921874119448
Ag 5.124557866263153 5.124557866263153 8.646921874119448
Ag 5.124557866263153 7.999748001996871 8.646921874119448
