11
Energy = -19.23861888 eV
Ag 8.83616317295704 3.9870187938952073 4.9489638416626205
Ag 7.807888902890362 6.4541347715925115 4.718622820237829
Ag 7.14316152600089 4.878417109835777 6.866121049882281
Ag 6.573162225731719 4.622582993222427 9.600240991754415
Ag 6.779551855745138 8.818593387177073 3.8171196090014528
Ag 7.152318364231898 7.118648010144075 8.456287023863691
Ag 7.805192452408661 8.758492816126926 6.3505472024348695
Ag 4.712694318102188 5.772807353351517 7.992409604333795
Ag 5.4468126586297965 7.3545518806422425 5.8758876123026615
Ag 2.819992485525054 6.857294730347562 6.442086235865297
Ag 8.837312412373992 9.211560544499115 8.789743764521727
