15
Energy = -28.25057188 eV
Ag 6.67847306333676 10.021615260705827 7.001269038033257
Ag 3.386840833105704 7.651382806892045 8.246351477783197
Ag 2.946525888872377 5.872997074507102 6.1768390442713805
Ag 6.077845295330204 8.018038609545522 8.742934392584853
Ag 5.200042063050025 7.70754006707727 6.009256546202103
Ag 4.48676457009849 5.888874643201394 3.923567772139627
Ag 7.960373042878779 7.638795965388642 6.62064979152466
Ag 7.052773782886815 6.8049543097725955 4.0683910168021775
Ag 5.108724209748421 5.478476143840685 7.945431561668259
Ag 7.769025498860299 5.807796638248914 8.781933598412877
Ag 6.547458938629402 4.012828669100364 3.615035394080762
Ag 7.1711220664532895 4.863827520331667 6.202330734059463
Ag 9.851588240127956 5.641902185350815 6.865554058022408
Ag 4.664280713429869 3.6904867080268935 5.688848798838709
Ag 9.122238538620536 4.9012844480447075 4.283426712607
