11
Energy = -18.91395609 eV
Ag 9.20764294506396 7.476919114876279 6.438733189388193
Ag 8.575087210924615 5.281507058740262 7.980459242391023
Ag 8.303983746482377 4.935291321680947 5.1541495997026034
Ag 6.817907171808112 9.347485835889447 6.433950370876282
Ag 6.340492317034231 3.788996122320375 6.6858724552331665
Ag 6.5653489370410405 6.564583841048147 6.594568916595898
Ag 7.643414091119214 7.907717752167958 8.72306987100405
Ag 5.516113212509999 5.270539193153556 4.41766715503928
Ag 4.589023823804484 7.8781642006146875 5.177616722952428
Ag 4.851132703827661 8.22727388404409 8.000536025295942
Ag 3.918536354716168 5.663706302092719 6.685183282773541
