16
Energy = -30.8040394 eV
Ag 6.5581689045014 10.262515420947366 6.5581689045014
Ag 6.5581689045014 5.17636709854356 8.081591310867934
Ag 6.5581689045014 7.93997071045924 8.081591310867934
Ag 4.208158823670502 6.5581689045014 8.61009571009424
Ag 4.264636630393661 8.599274760231042 6.5581689045014
Ag 8.908178985332297 6.5581689045014 8.61009571009424
Ag 6.5581689045014 7.93997071045924 5.034746498134867
Ag 6.5581689045014 5.17636709854356 5.034746498134867
Ag 4.208158823670502 6.5581689045014 4.506242098908406
Ag 8.908178985332297 6.5581689045014 4.506242098908406
Ag 8.851701178609138 8.599274760231042 6.5581689045014
Ag 8.851701178609138 4.517063048771758 6.5581689045014
Ag 4.264636630393661 4.517063048771758 6.5581689045014
Ag 2.392021809002799 6.5581689045014 6.5581689045014
Ag 6.5581689045014 2.853822388055434 6.5581689045014
Ag 10.724316 6.5581689045014 6.5581689045014
