16
Energy = -29.00005765 eV
Ag 6.5634820174980995 9.028557020690096 6.745446640099858
Ag 6.5634820174980995 4.098407014306103 6.745446640099858
Ag 6.5634820174980995 6.5634820174980995 7.902901191730934
Ag 4.556083406145486 5.08905665524565 8.848346586410976
Ag 4.556083406145486 8.037907379750552 8.848346586410976
Ag 8.570880628850713 5.08905665524565 8.848346586410976
Ag 8.570880628850713 8.037907379750552 8.848346586410976
Ag 5.08905665524565 8.570880628850713 4.278617448585222
Ag 8.037907379750552 4.556083406145486 4.278617448585222
Ag 6.5634820174980995 6.5634820174980995 5.224062843265265
Ag 5.08905665524565 4.556083406145486 4.278617448585222
Ag 4.098407014306103 6.5634820174980995 6.38151739489634
Ag 9.028557020690096 6.5634820174980995 6.38151739489634
Ag 8.037907379750552 8.570880628850713 4.278617448585222
Ag 6.5634820174980995 6.5634820174980995 10.53144
Ag 6.5634820174980995 6.5634820174980995 2.5955240349962003
