16
Energy = -30.58658036 eV
Ag 10.074958169290264 8.595890791958993 11.305024640102895
Ag 8.865171445498548 6.379458249455452 7.3041024524437805
Ag 6.265650160521169 6.568216811888906 6.218764508662665
Ag 9.391014848028552 6.313666058583885 10.078360304496588
Ag 4.529735571098721 8.7140014251257 6.2712102699511005
Ag 4.111428723275353 6.478020446604191 7.995329501712866
Ag 7.416327993362087 9.330357342096649 6.447487928642051
Ag 8.759750719861092 4.035515111158137 8.84406007820354
Ag 5.965175396830381 8.474118731531085 8.641836911484074
Ag 6.252320896283499 8.641052372528945 4.078529608016988
Ag 10.15558079146764 8.820997534229152 6.368819541072056
Ag 8.806605147564456 8.83347423625851 8.823305401081686
Ag 7.3084334520227845 7.957926989019623 10.999474211755185
Ag 8.876468508335243 9.858946164402923 4.109441015524943
Ag 8.500950307372852 7.165913439820504 4.699179900203776
Ag 6.663946197601198 5.862576394869997 9.109447866465327
