15
Energy = -27.80794385 eV
Ag 9.900498980635453 8.890914025354656 4.836223110543877
Ag 9.069184208387583 7.980293487491028 7.237927807736157
Ag 7.59001298014759 8.216348604610499 3.420447267609609
Ag 8.950370383355676 6.28949990626301 4.927734980656633
Ag 4.888947802812106 8.628780674878623 3.8601163347136134
Ag 8.383704110051903 6.958415383797454 9.782834957103956
Ag 6.3581796566963025 7.8552523872543025 8.100950714585062
Ag 7.365217866809293 4.077019292076005 5.264247264411929
Ag 7.752018478108233 5.510016798973634 7.504976182413584
Ag 5.962113252687394 5.555027344264076 9.828622945628622
Ag 6.238750285500884 6.715414478766635 5.2730124488928345
Ag 4.089172955244204 8.164379411160397 6.4655780652917985
Ag 6.160187778624711 3.318913738687432 7.948886738478208
Ag 3.9048919032281315 7.497791631357717 9.252653973820834
Ag 4.751178458835221 5.57812430705267 7.347515508449379
