10
Energy = -17.69207339 eV
Ag 7.384502214894854 5.48408455528028 4.90145942809633
Ag 6.316959027146654 8.07178538551097 4.954256750420766
Ag 4.705872117130547 5.9968235817337385 5.53003923706119
Ag 8.969193325848002 7.51813216866499 5.953977714701419
Ag 8.079554170703474 10.046215609731933 5.990860651875676
Ag 6.138940949611649 3.816663181907361 6.738389488851635
Ag 3.5170181335054647 4.079240610076157 7.248105020807727
Ag 6.753190689961656 8.218977160219533 7.679139087195481
Ag 7.928473746577715 5.683685848518176 7.753429640772932
Ag 5.210560320120084 6.088656593856966 8.254607675716946
