12
Energy = -21.73137701 eV
Ag 6.574639403826572 8.11046413994527 6.5275657437191965
Ag 9.234819679810215 7.3711886248493865 6.5275657437191965
Ag 7.628892640681376 6.89742567570124 8.834149678487947
Ag 5.286863967120541 5.664112854225804 7.964597829931942
Ag 5.286863967120541 5.664112854225804 5.090533657506452
Ag 7.639012537484415 5.05563423381844 6.5275657437191965
Ag 7.293603965060945 4.242959596154305 3.789512487438394
Ag 7.628892640681376 6.89742567570124 4.220981808950448
Ag 7.293603965060945 4.242959596154305 9.265619
Ag 5.280897341519406 8.3264173852389 4.01467116942864
Ag 3.9018014747439556 7.531670903377018 6.5275657437191965
Ag 5.280897341519406 8.3264173852389 9.040460318009757
