16
Energy = -30.66366406 eV
Ag 10.856772439138961 7.955260041897904 9.929002632940456
Ag 8.252896394756462 8.008793613255477 9.09783617978915
Ag 6.548061726218958 10.119511694190487 8.374895990395254
Ag 9.534548774483518 5.54338861098068 9.526013888962712
Ag 6.781064968472248 5.384999456506653 9.403620823073558
Ag 3.806743670891747 9.531154467190191 7.976234577092079
Ag 10.388342663177488 7.327103582508666 7.28098012952503
Ag 5.747636700157637 7.528816066293803 7.923390046597302
Ag 5.507619314317243 9.506025197164377 5.749896269404813
Ag 5.335511505009913 5.084281403653476 6.6446342110234315
Ag 9.279855172874608 6.577932193794813 4.845115893677739
Ag 3.711960899332142 7.340638992746905 6.144355534734489
Ag 8.121717162460694 8.711486825634175 6.356508386830132
Ag 6.3534027986634385 7.0301834701105435 4.903261093683164
Ag 8.077823537572122 5.690593037297482 7.070529635863863
Ag 7.3399522796490855 4.442030289938927 4.676734451935007
