15
Energy = -27.95757691 eV
Ag 3.996913451106995 5.010746849060004 7.822577836801623
Ag 6.077105038699336 7.724177590529139 4.027976039505137
Ag 6.486375954674374 5.474514047360918 9.229177747274797
Ag 8.72245577002706 8.224783428450598 4.99072874840996
Ag 8.858134931689712 5.343195625609441 5.226488268738511
Ag 6.44150393440628 4.903726005948684 3.7287335810504407
Ag 8.764297251008934 4.419338239814736 7.923252965681735
Ag 6.269682528527667 8.366819650787868 9.094102600740886
Ag 8.043648502247539 7.010006353575397 7.4072907581377025
Ag 6.421757997329594 4.618944608463865 6.502947458679654
Ag 6.477973438641492 9.08198891229014 6.405748252931358
Ag 4.325354461921772 5.952623936689105 5.2179552715532385
Ag 4.183683527238172 7.797189456302294 7.264301843984708
Ag 8.285784499383952 6.683254839624716 2.7792868562259234
Ag 4.108033624198082 6.851395231925117 9.842136546716338
