12
Energy = -20.64843929 eV
Ag 7.021292625550715 7.648284474113359 9.100456253648927
Ag 8.984466567050944 6.017651354876608 7.785243089202934
Ag 6.513497544687373 4.997669235948815 8.507088513732207
Ag 8.430111683733536 8.60697011502253 6.864084194592198
Ag 4.430705165210162 6.787357717179566 8.218989710206683
Ag 5.628454282436483 9.074360906561095 7.125452165246346
Ag 8.798224527792607 6.449885182403775 5.019872761592476
Ag 7.611723820737158 4.154658800688648 6.110109311873436
Ag 6.717493803306443 8.240199139265314 4.716038526448258
Ag 4.801680221840522 4.627499297437771 6.374302518112082
Ag 4.251360038841848 7.216399646723062 5.448554064601654
Ag 6.209283669002134 5.5920292487164325 4.1412338189304725
