12
Energy = -20.93558632 eV
Ag 8.914643559761913 8.17955353496031 5.362671974018575
Ag 5.731367060025824 4.548763919852489 4.90863887398979
Ag 9.710002017087614 9.372778705368106 7.7354397607715155
Ag 7.034424546859574 9.59347883254793 7.034215771114039
Ag 7.950277971995041 5.134952291640831 9.607506565970198
Ag 4.202462697338221 3.34044168667951 6.879435339189239
Ag 4.4616546463492055 8.620516723387187 7.1115878849642264
Ag 7.996925977161316 5.903125198213278 4.123268546057614
Ag 6.149978788167386 5.13036673667542 7.633273568832307
Ag 3.780470335885889 6.042102574966256 6.438018419851352
Ag 8.122253780878875 7.129975564493391 7.841692804979932
Ag 6.213773781057482 7.27529253070944 5.586755659717293
