13
Energy = -23.64228809 eV
Ag 8.091044232485112 8.203669581339042 7.4184174571411114
Ag 8.449161595287059 5.482122898715031 8.191421609151947
Ag 6.117976802906203 8.94406610659861 9.28023985089639
Ag 6.856489927731309 4.631041698871183 6.055165995326122
Ag 5.797552671106742 6.484357704053954 7.922138799335073
Ag 4.198268359338556 4.476909243254675 6.634615173387322
Ag 8.266452507007996 7.400773344135413 10.078641814926105
Ag 5.498003651821064 8.986078099572117 6.609649057113804
Ag 3.93623549604316 7.030621829269172 5.4755977096808195
Ag 7.666498991278835 4.982648724496344 3.437704528329328
Ag 4.937556017256887 4.995622300572251 3.9469889559659532
Ag 8.989042825461148 6.392658801613613 5.578684459429041
Ag 6.527840073458857 7.2674210156070655 4.672271734235105
