11
Energy = -19.54772798 eV
Ag 8.099412741385603 3.9151605419813316 7.03085124221495
Ag 4.529481860370466 7.889450651232024 6.598064178712289
Ag 7.1751059392921706 8.062950201740868 7.441846454318003
Ag 4.198346963155981 5.598500573134068 5.070683247795164
Ag 5.979537005847693 5.554679498981232 7.217068827201306
Ag 8.75660281601205 6.335476765154448 5.865965879707602
Ag 6.8090845059128595 4.628122650658339 4.619131117146191
Ag 6.462769600801527 7.395249092881341 4.692306743022979
Ag 5.062638855586902 7.264472756841884 9.263769796748255
Ag 8.46969615887543 6.2634149415455616 3.1202513314176583
Ag 3.183903038724534 5.797482190550348 7.791601805924853
