12
Energy = -21.40614206 eV
Ag 5.120623561009631 7.912839342353226 7.727705235589509
Ag 7.9809578039290585 7.912839342353226 7.727705235589509
Ag 6.5507906824693425 7.915251361306001 5.19745905246523
Ag 9.018439405168998 6.5507906824693425 5.536732845702944
Ag 7.9809578039290585 5.1887420225854575 7.727705235589509
Ag 5.120623561009631 5.1887420225854575 7.727705235589509
Ag 6.5507906824693425 5.186330003632686 5.19745905246523
Ag 6.5507906824693425 7.886830017688768 10.06418968026523
Ag 5.147832228784684 6.5507906824693425 3.050952045203915
Ag 4.083141959769687 6.5507906824693425 5.536732845702944
Ag 7.953749136154006 6.5507906824693425 3.050952045203915
Ag 6.5507906824693425 5.214751347249916 10.06418968026523
