15
Energy = -27.50351184 eV
Ag 1.8354309110231255 8.261633805010145 7.918080246669674
Ag 3.4557173762559668 8.088796723696898 5.769776289082294
Ag 5.270167403785498 7.4139500149312605 3.761528120156237
Ag 4.4525248579340735 7.9502365634842675 8.504075301871584
Ag 4.102628155459644 5.455979728273236 5.495764565294994
Ag 6.231448420683162 7.321238713083268 6.284805516570324
Ag 8.154167201944452 7.505612609567079 4.076288264612906
Ag 9.137746696442507 7.338350428592913 6.760980561234384
Ag 6.905910340559398 5.095095371184226 4.356713534026759
Ag 7.104997921143876 7.1237180037104375 8.82962059316154
Ag 5.035541338455046 5.321154573831971 8.071248802400998
Ag 9.685527716983653 5.323104188292181 4.912649938839281
Ag 7.9193234610606975 4.932144175389113 7.123809715851013
Ag 5.751633792755686 3.340059886526651 6.254417906972915
Ag 8.378543360982125 2.892934858652388 5.266262918776074
