11
Energy = -19.1017086 eV
Ag 8.725839089731782 8.934891429110177 8.886323861346677
Ag 7.862355274803022 8.783482523356557 4.138436395891651
Ag 8.407274396719112 6.223205204161559 9.096133489945894
Ag 7.401681885552845 7.6349431374174435 6.719855255602591
Ag 7.8725554893969205 4.665874913488148 6.872174724904914
Ag 5.412441244415771 7.66865208428564 4.5993704765480325
Ag 7.82554937086848 6.055283832379564 4.499337958258323
Ag 6.134042030909969 8.014091804332262 9.158560458715204
Ag 4.460012244242039 7.161172297305978 7.152674900778509
Ag 5.43443998872611 5.085915106112609 5.595855745068985
Ag 5.843061031747668 5.269462706577298 8.672580421920769
