13
Energy = -24.11374518 eV
Ag 6.551602057725305 9.332591723676245 9.382191685338446
Ag 5.116194255616254 5.1668269852220385 7.48886008252117
Ag 5.116194255616254 7.936377130228572 7.48886008252117
Ag 5.1686696647774975 6.551602057725305 5.073675324734346
Ag 6.551602057725305 9.124075427274562 5.415187903579463
Ag 7.987009859834355 7.936377130228572 7.48886008252117
Ag 7.987009859834355 5.1668269852220385 7.48886008252117
Ag 7.934534450673112 6.551602057725305 5.073675324734346
Ag 6.551602057725305 6.551602057725305 9.546382120712943
Ag 6.551602057725305 3.7706123917743635 9.382191685338446
Ag 6.551602057725305 5.188078715395032 2.9634472361635558
Ag 6.551602057725305 3.979128688175909 5.415187903579463
Ag 6.551602057725305 7.915125400055579 2.9634472361635558
