12
Energy = -21.45955295 eV
Ag 4.71449506675242 7.8057273816669355 8.83189184905993
Ag 6.53746657080098 5.830572447718521 8.534098078272862
Ag 4.9667052580657725 9.029223381329048 5.077939392109315
Ag 6.848412595893781 8.301448497732553 7.0456748171685035
Ag 8.716656697739396 7.499050830999865 9.029468380691068
Ag 4.543148671284368 6.6048731894846995 6.411243911292764
Ag 8.851325296334615 8.210279776633131 5.030957196732377
Ag 8.599734020429215 6.053206410075495 6.644781796153202
Ag 8.242127666489422 3.734782112974489 8.058880594672733
Ag 4.478686945399732 5.109597200236166 4.096279223198648
Ag 6.580733547443481 6.819621026599231 4.545219659326468
Ag 6.338253979295325 4.397957832075236 6.078532287408255
