11
Energy = -19.84026709 eV
Ag 9.223779290605169 9.303024186755863 7.704781703481859
Ag 10.104936382007198 8.48337466114087 9.405852666536626
Ag 9.100701914349674 9.378010044300103 11.566571813307071
Ag 6.622397912861445 9.574323901624965 8.54820139364262
Ag 11.377590386311061 8.56262503916102 7.557450029796474
Ag 6.516661764853609 9.586528640211194 10.70285238527132
Ag 10.720658918831491 10.27543309166986 10.700514980535822
Ag 7.975165805332375 8.210638393002728 9.325545900685263
Ag 10.610857591532252 10.416823139990328 8.561913838867158
Ag 12.71010029984068 9.574323901624966 9.152645238253717
Ag 8.848736710118771 10.446477977161956 9.33957611969152
