15
Energy = -28.44810031 eV
Ag 9.897363557861153 5.448033767759504 7.117719866225791
Ag 8.032581986355492 3.2695283996319406 7.030376816612266
Ag 7.901563266307347 5.45967697167627 5.174606751395159
Ag 7.333622517133917 5.762374303828138 8.033729064186753
Ag 8.503025918848442 7.912636492519553 6.60806054499113
Ag 5.644785550101931 3.9299728896092105 5.77901007895429
Ag 7.627408379107806 7.957926629612862 3.9174830003244256
Ag 5.603024301702948 3.660703057998314 8.552867857706426
Ag 4.515993691053699 5.990903450666333 7.271038935669658
Ag 5.105364925811053 9.035115000414185 3.5310247915262494
Ag 5.357512040509711 6.480852638410364 4.620768065101509
Ag 5.403058401636471 6.167645695576679 9.928876256057714
Ag 6.576246724798205 9.722160292553395 5.846453555991079
Ag 6.012067992934169 8.290312038072576 8.113681301275399
Ag 4.053840059234935 8.47961768506795 6.04176242737943
