16
Energy = -30.40941698 eV
Ag 5.852622168839035 6.281627550400038 9.107533282978913
Ag 6.6104917030509025 5.932263134632986 4.609914798502869
Ag 6.530095538139095 7.942622776860731 6.795287574564306
Ag 4.739975393267702 7.965692720506297 4.6678037745690455
Ag 7.118220515179933 4.84040380122217 7.0612618629064094
Ag 8.633165947006438 6.502678952712705 8.767552169973655
Ag 4.524781113407899 5.937447732408888 6.574980942672156
Ag 8.313124707500409 10.326371683540014 11.245158601059613
Ag 7.259827325982674 7.776688768611226 10.890158414799048
Ag 10.54773691407009 8.263008248273755 7.798208426674854
Ag 7.48123161164667 8.459792019533072 3.924017659388416
Ag 8.773168873698951 9.59388690915725 6.049557596893475
Ag 8.013303766816344 9.353772576129975 8.699386522776098
Ag 4.80858727711292 3.8615768824623213 8.366978385412036
Ag 8.915016583022856 6.749832802396233 5.922784072295777
Ag 10.002823707075525 8.229076016886802 10.487531804682224
