10
Energy = -17.65722254 eV
Ag 7.237392683656012 8.809188822560769 3.6938055714208686
Ag 6.71161005955822 6.217872780356559 4.461185941408146
Ag 5.83169711285233 8.355347401319134 5.9988255191780215
Ag 5.92619543501929 3.749216652900466 5.235794891606549
Ag 8.546602688181784 7.600614102699453 6.052335138762054
Ag 7.852344024462742 4.99606755762542 6.818848290729803
Ag 5.089791141251159 5.702167100413647 6.96581805964688
Ag 7.074478238165327 7.088162331631741 8.387216134444904
Ag 4.432110718550259 8.027533573742986 8.275355590196181
Ag 6.300592140923534 4.456643919371 9.113629105227513
