18
Energy = -34.71771691 eV
Ag 4.056673984864745 6.590122077383774 7.941506264555462
Ag 6.590122077383774 7.9779033643635815 7.958436867460907
Ag 6.590122077383774 10.52248721891212 6.590122077383774
Ag 6.590122077383774 2.657756935855427 6.590122077383774
Ag 4.288394741288672 4.084616584302356 6.590122077383774
Ag 6.590122077383774 5.202340790403966 5.221807287306638
Ag 9.1235701699028 6.590122077383774 5.238737890212085
Ag 8.891849413478875 9.095627570465187 6.590122077383774
Ag 4.056673984864745 6.590122077383774 5.238737890212085
Ag 6.590122077383774 7.9779033643635815 5.221807287306638
Ag 6.590122077383774 5.202340790403966 7.958436867460907
Ag 9.1235701699028 6.590122077383774 7.941506264555462
Ag 1.845232154767546 5.2303093601075545 6.590122077383774
Ag 11.335011999999999 7.949934794659993 6.590122077383774
Ag 11.335011999999999 5.2303093601075545 6.590122077383774
Ag 1.845232154767546 7.949934794659993 6.590122077383774
Ag 8.891849413478875 4.084616584302356 6.590122077383774
Ag 4.288394741288672 9.095627570465187 6.590122077383774
