13
Energy = -24.22573984 eV
Ag 6.573580080813245 8.149174401939714 6.797743602445349
Ag 8.357631376787326 8.801916952554375 8.801551168575
Ag 7.097630903736891 8.82875588209676 4.12576412146719
Ag 8.833556932225271 6.407759573470038 7.467079638087907
Ag 9.158726 8.796200909280364 6.03416831850586
Ag 6.559348794805176 6.559348794805176 9.163558685556934
Ag 6.545117508797107 4.969523187670639 6.797743602445349
Ag 5.137290979569749 6.7923754288326395 4.827680974374005
Ag 7.981406610040604 6.326322160777714 4.827680974374005
Ag 3.9599715896103524 4.322496680329989 6.03416831850586
Ag 4.28514065738508 6.710938016140316 7.467079638087907
Ag 6.021066685873461 4.289941707513595 4.12576412146719
Ag 4.761066212823028 4.3167806370559765 8.801551168575
