18
Energy = -35.9342824 eV
Ag 6.563600227642593 6.563600227642593 9.863156323628045
Ag 6.563600227642593 8.857716691744475 3.4724947789132288
Ag 9.651161127563546 6.563600227642593 6.2722900365444385
Ag 6.563600227642593 3.544288725930841 8.059830770322874
Ag 8.712957707709519 7.95166744778497 8.517898198336864
Ag 8.038521544851704 8.79699798357068 5.840166823090175
Ag 8.038521544851704 4.330202471714503 5.840166823090175
Ag 5.127320555637108 6.563600227642593 4.064040036495425
Ag 5.088678910433479 4.330202471714503 5.840166823090175
Ag 4.414242747575668 7.95166744778497 8.517898198336864
Ag 4.414242747575668 5.175533007500212 8.517898198336864
Ag 6.563600227642593 9.582911729354345 8.059830770322874
Ag 3.4760393277216397 6.563600227642593 6.2722900365444385
Ag 6.563600227642593 4.269483763540708 3.4724947789132288
Ag 8.712957707709519 5.175533007500212 8.517898198336864
Ag 5.088678910433479 8.79699798357068 5.840166823090175
Ag 7.999879899648078 6.563600227642593 4.064040036495425
Ag 6.563600227642593 6.563600227642593 7.11207644367798
