13
Energy = -23.73012975 eV
Ag 5.195743262451453 6.819826919727175 7.684458040542446
Ag 8.101195688460784 7.475420327895336 7.563920933241405
Ag 3.5403890371660176 9.122012167780055 7.381443547661962
Ag 7.055211824531501 5.607316518229572 9.26370199888851
Ag 6.187013372444927 9.363435075581911 6.696949679191459
Ag 8.736681097777277 9.33513810511302 5.610525631526972
Ag 9.784241929881608 6.555759508848621 5.5167080028598665
Ag 7.109093542894317 7.161906916468365 4.958360969694433
Ag 4.367794413013148 7.598700766300257 5.2292373568634325
Ag 7.91369760405202 4.819463229851118 6.586073198018633
Ag 5.414765301514138 5.024342511085085 5.249110246328328
Ag 5.3511668808437935 3.9702945645452234 7.816865710373257
Ag 6.5687573064593945 2.53436553684476 5.819607226898608
