15
Energy = -28.46698322 eV
Ag 5.889778897324314 3.403256177025355 7.584459064888399
Ag 4.559071063962491 5.927844166906851 7.457517319737033
Ag 8.71747710074733 3.668480229290113 7.363126139934974
Ag 7.037350138527809 4.897743810117787 5.532585332225859
Ag 7.266183415706233 5.82393211716565 8.3062052031344
Ag 5.828231577766438 8.140590434912493 8.586632239801814
Ag 9.368726079040805 6.288445881191414 6.500879061759033
Ag 2.579647743496992 6.3870273536099065 5.536096742399023
Ag 9.489241786601587 9.009284759212758 5.649337872464708
Ag 8.564024053667833 8.33226274364197 8.208410157357616
Ag 4.322374027574549 4.184441726855981 5.329119344851186
Ag 3.9959858358837814 8.593103393333644 6.469188959753977
Ag 7.934951190729679 7.181454393891006 4.227727014631578
Ag 6.753588413981495 8.8884532657286 6.070042523377271
Ag 5.220539994431782 6.800850866559576 4.705844343126252
