17
Energy = -33.29652317 eV
Ag 7.82414708909254 3.8036461283136282 6.144744722959606
Ag 6.017296553057108 8.763422536649456 9.59160429292294
Ag 8.57683597040388 5.645936712829582 8.156127752293006
Ag 7.490374828093307 5.607697627246033 4.0234496774645105
Ag 6.210452948035588 4.157901882545006 8.371743657988906
Ag 9.805457196578612 5.694185252918249 5.597941266109444
Ag 6.740653228206794 6.128897350393357 10.256714459797339
Ag 10.086807178692744 7.850165016395016 7.306308844942936
Ag 5.4258568616274925 5.148634919545878 5.868442372936899
Ag 8.424956937612446 8.037009326833669 5.046972853497795
Ag 5.676409051570126 7.617915515150284 4.560827416751205
Ag 8.71295990823764 8.027317601028551 9.698560103290939
Ag 4.7793820199418064 6.569758112624094 8.362785757821413
Ag 7.768043393266881 9.42994423861362 7.513146450554948
Ag 5.021565430275632 9.028336044888324 7.027866991418539
Ag 3.389333113799911 7.007052149708275 6.024737055704367
Ag 6.657143382368059 10.162990936489125 5.090425560246218
