16
Energy = -30.31968124 eV
Ag 9.544887591529582 6.6974102419946995 7.800773514845174
Ag 7.806939327213859 7.016185930214293 5.207846896354506
Ag 6.639526015354899 7.3554420199294 7.688249696830703
Ag 8.440126367304245 9.292046653376014 6.757071332181401
Ag 6.050493515830122 9.975384827697978 8.237722231620491
Ag 3.9844210974697383 7.771362767107751 7.855239425409261
Ag 10.579650355865757 7.853713997599578 5.535371423193553
Ag 8.358539529388954 8.79082104736525 9.507693282658979
Ag 5.711702352705786 7.924477405137223 10.239474920758179
Ag 7.669446084124958 4.774686553005438 7.161429197513672
Ag 5.220569358826392 5.754673906378902 6.003982400843996
Ag 9.797739744386988 5.15507208806721 5.30616188000752
Ag 7.186175115820921 4.35618005189281 4.474734300775677
Ag 3.458231628725883 10.429729730536978 7.6640617654988406
Ag 7.684149651654033 5.946997523628241 9.759437330210769
Ag 10.883349572066244 9.076156870213614 8.159149247604672
