18
Energy = -35.26875017 eV
Ag 7.758856441264917 9.079827345448072 8.452659301481226
Ag 4.56736453190206 6.458576851995326 6.039160796301902
Ag 5.390246697094627 10.249068879351608 7.829450125485756
Ag 10.26485844973549 8.25415065066108 9.09342833930896
Ag 7.886321150194344 6.70456762290562 9.809141123752617
Ag 5.688626000560692 5.072674991272897 10.04163564545189
Ag 8.566930787224758 3.940051055685238 6.172120856021558
Ag 7.662285940673675 10.170706084405865 5.910578101922346
Ag 9.791060616099962 10.81350948890608 7.743402682059649
Ag 9.9009968197931 8.522351127735929 6.253987934858949
Ag 5.406252026431077 7.5293281482737235 8.578387711374278
Ag 6.512525387079375 5.2058636290246465 7.4288110400021345
Ag 3.211470406711858 8.615234802842965 7.2181225606079265
Ag 9.429229201766951 6.079639766545662 7.622234112937156
Ag 9.892445122475985 6.146020341599636 4.910446086947948
Ag 7.3857621239765665 7.218332272265212 5.655737924335843
Ag 8.259237339718512 3.9821589740962238 9.131243975365221
Ag 5.2595835006056335 9.002659159425225 5.340096937422652
