18
Energy = -35.94692688 eV
Ag 9.944965999999958 13.142350529835703 8.744968508233596
Ag 9.944981999999973 10.58105601293872 9.991876811726195
Ag 12.288841862693396 10.017717273167726 11.492016031814808
Ag 8.470286380715851 12.72305092475229 11.143351621668923
Ag 9.944974000000034 10.93908846119652 12.755964748599686
Ag 12.284457975273378 11.40443369348628 8.697100579887195
Ag 9.944977999999931 10.815530369410673 7.182107308231764
Ag 11.419672619284114 12.72304692475225 11.143343621668848
Ag 13.849096623367446 9.18500951642203 9.251367658733471
Ag 8.532625802612602 8.645299717891112 8.247185143813313
Ag 7.601119137306587 10.017702273167794 11.49201203181477
Ag 11.357349197387373 8.645302717891209 8.247183143813293
Ag 7.605488024726533 11.404419693486146 8.69710657988725
Ag 6.040877376632591 9.184978516422085 9.251366658733392
Ag 9.944990999999987 6.570428228906464 9.46726603268828
Ag 9.944977999999933 8.289785620442977 11.831466044809558
Ag 7.581033188493067 7.360217762915121 10.686992236937911
Ag 12.308949811506983 7.360238762915109 10.68699323693785
