19
Energy = -37.04132454 eV
Ag 10.27018623036856 5.631148645397023 5.602227318543642
Ag 9.64260174857634 4.220134297332543 8.037657740793168
Ag 7.137840417067329 2.7669362423830166 8.054493046931942
Ag 8.070534395687803 7.228829542437452 4.746003623906363
Ag 7.755167468879191 4.598842032880798 6.040109139279388
Ag 10.397066936676824 8.430188342723278 5.663738119172175
Ag 9.028572463956893 6.985760639243032 7.70271201274801
Ag 5.720925387260179 5.497130116958648 4.396623839382319
Ag 7.20537567104519 5.354245796666185 8.944108426509768
Ag 5.095365344821269 4.280694647773108 6.903384493387478
Ag 8.371304667912566 9.572415518609061 7.122082632882916
Ag 6.061776949768073 6.967237764924893 6.700758982757563
Ag 3.482077789554685 6.43460428498608 5.824762982696681
Ag 4.5874261125572255 6.022067428398348 9.091468961082226
Ag 5.526961978556272 8.26904248347724 4.200878437877769
Ag 6.701764975167324 8.236840122293922 8.967795900558304
Ag 3.923756390905487 8.43881162073724 8.04724989718617
Ag 5.740445549462699 9.869012117206157 6.595335449548039
Ag 3.238835229974296 9.229254299765431 5.456144551950723
