16
Energy = -30.09081119 eV
Ag 5.153118469198886 6.559420162977263 7.971913104860155
Ag 5.153118469198886 6.559420162977263 5.146927221094372
Ag 7.915471998650182 9.537195369999392 6.559420162977263
Ag 7.965721856755641 6.559420162977263 5.146927221094372
Ag 7.915471998650182 3.5816449559551327 6.559420162977263
Ag 7.965721856755641 6.559420162977263 7.971913104860155
Ag 6.559420162977263 8.802568804616715 8.852538263537102
Ag 6.559420162977263 4.316271521337809 4.266302062417422
Ag 10.047218000000003 5.198160645047256 6.559420162977263
Ag 5.203368327304346 3.5816449559551327 6.559420162977263
Ag 5.203368327304346 9.537195369999392 6.559420162977263
Ag 6.559420162977263 8.802568804616715 4.266302062417422
Ag 10.047218000000003 7.920679680907268 6.559420162977263
Ag 6.559420162977263 4.316271521337809 8.852538263537102
Ag 3.0716223259545234 5.198160645047256 6.559420162977263
Ag 3.0716223259545234 7.920679680907268 6.559420162977263
