14
Energy = -25.25001444 eV
Ag 3.1826580137028637 8.761781526311298 5.21891484880425
Ag 5.962598577742784 9.045728623343518 5.264769359645028
Ag 8.751549251497819 8.804462125894396 5.253380220419774
Ag 2.954510437098819 5.968223530868422 5.22009542884453
Ag 6.00430908444392 6.004179805361046 4.892672613386781
Ag 9.05156088703669 6.025452592956927 5.268685458103843
Ag 3.2427649080785708 3.1838614282742213 5.193270864702465
Ag 6.033528018311245 2.9520049073285097 5.230200036820398
Ag 8.816429375769292 3.2369076260257783 5.228718817662065
Ag 4.6270100647554555 4.600132431077905 6.998918529052906
Ag 4.588698378276624 7.3528633286663725 7.017434584686489
Ag 7.3464828531230415 7.377440796529261 7.034921540091968
Ag 7.381190560966074 4.623679215568522 7.020641131118569
Ag 5.973399394741837 5.979971957118052 9.07406646198516
