10
Energy = -17.67374876 eV
Ag 7.582579656600069 8.560408394440401 3.3772106624139435
Ag 7.797264735813694 5.972577267912563 4.160773391788464
Ag 5.732196425026736 7.599491434106517 5.298486436980575
Ag 8.441164002592208 8.1944003577386 5.943399361805209
Ag 5.864617604985737 4.8413859291268055 5.725763679611148
Ag 8.375489064269043 5.5453266483508195 6.870507979069658
Ag 4.258207020703115 6.4961670377448755 7.331497208786411
Ag 6.731772032581584 7.6262527775406745 7.9582231841739155
Ag 6.269004859873616 4.909856575662612 8.541566133424615
Ag 3.9493293838042383 5.255758363626585 9.794196748196656
