19
Energy = -36.73613549 eV
Ag 9.567542935979516 9.057395575160916 6.617220903289777
Ag 7.395890911541056 8.708956552309061 4.9331081733886535
Ag 7.25060393229915 10.496702461384189 7.126271716162223
Ag 9.164909882533996 6.376391369216955 6.0863873280810274
Ag 7.206783010984407 8.228969240061256 8.7237454524045
Ag 7.445134408808611 6.10934375083162 3.8336742204212904
Ag 3.5433492537285423 6.297786968508072 6.449146936097741
Ag 7.6118927038357596 3.975186675763551 5.957794608543778
Ag 4.869658361288904 7.57140148366392 4.273527116882506
Ag 9.78120327135971 7.2129913027513695 8.737347269604907
Ag 3.068112351634457 3.487469673877149 5.957082019331243
Ag 5.44815762364704 2.1466726496281168 5.599107451352798
Ag 6.369997450683966 6.541887828564084 6.394821351574341
Ag 5.1504437781797545 4.711460517519176 4.563744021113487
Ag 9.210968109874134 10.109951254310621 9.111528593786513
Ag 7.701360437653749 5.3822600785491685 8.508588108269699
Ag 5.271312843653511 4.157312298248102 7.552564079471322
Ag 4.972293070634155 8.882611824153308 6.775111119084443
Ag 5.043874242393288 6.597428828787639 8.881835841505858
