12
Energy = -21.61308969 eV
Ag 5.593736099916281 5.651158693007253 5.030867191158748
Ag 7.663796314609146 3.9470863253295083 5.635602839798388
Ag 3.7560284680594966 7.715448527040805 4.890639289117367
Ag 6.510384195133999 8.310866547063304 4.884864124858086
Ag 5.884099415580006 4.704158863065177 7.634364088005705
Ag 8.086427083847616 6.511877753002759 6.399486335188549
Ag 3.3405761919794292 5.413304539149086 6.704054292580199
Ag 8.757854793450567 4.564720140288587 8.306064929410876
Ag 9.313743888810704 8.823082384680681 5.4218764421952255
Ag 5.173824726589392 7.435715965043669 7.2872889396171985
Ag 7.194512884531671 6.719135443553427 9.094025744434225
Ag 7.482159924931773 8.975280190154317 7.4578979900744695
