13
Energy = -24.10351383 eV
Ag 4.528319758533533 8.942923687666614 5.685421848727552
Ag 2.4324293267465706 7.208049280658153 6.472907599546442
Ag 4.7924658738129216 7.246522951738924 7.909693587979888
Ag 6.684191197962915 8.384947666359613 4.05620949996908
Ag 7.14736487602206 7.293679557563497 6.529419320005328
Ag 9.330015516585554 7.230243043701543 4.7805911741524
Ag 4.739884189027969 6.28126614536902 5.092839583879048
Ag 3.7453434827612804 4.782499691769345 7.235764681053914
Ag 6.50291422875647 5.108356954976061 8.20491154227998
Ag 6.019506838578241 3.8751466790329996 5.79136322326841
Ag 7.215160827902452 5.638119452590159 4.040663691059403
Ag 7.8242268419255225 2.7277571775231486 7.575269501078614
Ag 8.733282663589542 4.9453418503317685 6.287405134574672
