16
Energy = -30.58631834 eV
Ag 5.049787852854953 9.134431957544589 8.043992818024911
Ag 7.594482172193033 7.937647193012122 8.179375707869884
Ag 5.049787852854953 9.134431957544589 5.267109381428153
Ag 7.594482172193033 7.937647193012122 5.1317264915831755
Ag 5.291945512689983 6.586068305458494 4.210943933967944
Ag 7.222073868733908 10.252545633546298 6.655551099726529
Ag 9.761243570088423 8.80393063404868 6.655551099726529
Ag 5.484113398277406 3.6479148062112454 5.234303643449215
Ag 7.696221466445145 5.129865504057108 4.350505743954843
Ag 5.484113398277406 3.6479148062112454 8.076798556003842
Ag 5.291945512689983 6.586068305458494 9.100158265485115
Ag 9.28156718520195 6.051072194103097 6.655551099726529
Ag 8.017701484651475 3.5496968329993592 6.655551099726529
Ag 7.696221466445145 5.129865504057108 8.96059645549822
Ag 6.271588072581345 5.850104163280931 6.655551099726529
Ag 3.7015426094464727 7.109612605079409 6.655551099726529
