14
Energy = -25.48281088 eV
Ag 6.641018143569741 7.176698759614839 9.624847999999998
Ag 6.874701788623466 3.461305801463627 6.553783559587579
Ag 6.296596772271622 4.524072738311964 8.994725027327933
Ag 6.641018143569741 7.176698759614839 3.4827191191751563
Ag 4.5499167476470666 4.935615668111399 6.553783559587579
Ag 6.296596772271622 4.524072738311964 4.1128420918472255
Ag 6.552431069878816 6.80109936017652 6.553783559587579
Ag 4.364591931760093 7.416394148239335 5.111815452507367
Ag 4.364591931760093 7.416394148239335 7.9957516666677915
Ag 8.589200956783094 5.685186918452766 5.129921462147725
Ag 8.589200956783094 5.685186918452766 7.9776456570274314
Ag 6.580547463223387 9.376844048382681 7.942569306373678
Ag 6.580547463223387 9.376844048382681 5.164997812801478
Ag 8.83200969286047 8.196555778471396 6.553783559587579
