16
Energy = -30.40952673 eV
Ag 7.623774558716936 4.782667745389152 6.27563762169658
Ag 7.75319740890463 3.6762874006586554 8.865948290082327
Ag 9.652873288830822 6.580667321589228 5.563588922902501
Ag 6.250970781936166 5.925069642890607 8.741585823761014
Ag 4.907104762374157 8.25579790090767 7.994457616705466
Ag 8.512666544709479 9.670083284725289 4.9550582412876505
Ag 7.207328133666944 7.655021269167451 6.334278994666974
Ag 7.504959660299665 8.505578658248947 9.235162225912378
Ag 7.005726190157149 10.300742978286591 7.184018660838473
Ag 5.096301470596538 5.961771293260847 5.97273375361471
Ag 5.305577056467185 3.5690934380677275 7.366793568571398
Ag 5.534741290525097 10.481274791560605 9.49289866917689
Ag 3.584682433089653 5.709077302231791 8.213777539642207
Ag 11.128516645080332 8.778947696048789 5.063549114306471
Ag 9.59203092020346 8.847033919681964 7.440424304735477
Ag 8.964144521696568 6.2757436782665295 8.359061629669823
