17
Energy = -32.88536518 eV
Ag 10.14980631379893 7.380633688656986 7.090334540353426
Ag 8.88547931370828 6.391423556317934 4.687840566912909
Ag 8.595041579474406 5.042436199070379 7.104147284659659
Ag 9.912228194041852 5.784059110738051 9.419691144178037
Ag 6.993121826496746 4.301825108989823 5.078318851874644
Ag 6.068108982212611 6.761066738737013 4.309047258214076
Ag 7.882131474516548 7.548460242024744 8.755051552429219
Ag 7.807076670365177 8.673227578701043 3.4164245815909937
Ag 7.813076351468334 8.544698264025378 6.189373958358643
Ag 4.231244826621977 4.769057020996534 4.882516410252561
Ag 7.265718231538387 4.823132690634037 9.483356055040488
Ag 5.45542953144835 9.399286294652724 5.016537473451783
Ag 5.489675659547019 6.898180603666531 9.963605318571952
Ag 5.437292614577925 8.482315000641137 7.678403039090281
Ag 5.621764243789225 5.533595705799123 7.270482159215769
Ag 3.2625831655677224 6.677000120616203 8.381138945685729
Ag 3.736788979197751 7.339057334365563 5.78561805905472
