14
Energy = -25.20117023 eV
Ag 8.945554234930663 8.128221157306012 5.953532424920499
Ag 6.565206815449078 5.07772606448176 7.56369922010679
Ag 8.920788393623837 6.565206815449078 8.281963022869915
Ag 4.184859395967493 5.002192473592141 5.953532424920499
Ag 6.565206815449078 8.052687566416393 7.56369922010679
Ag 4.209625237274317 6.565206815449078 8.281963022869915
Ag 6.565206815449078 6.565206815449078 5.133982145691812
Ag 4.184859395967493 8.128221157306012 5.953532424920499
Ag 6.565206815449078 9.364894781320407 5.193199444851454
Ag 6.565206815449078 3.765518849577747 5.193199444851454
Ag 8.945554234930663 5.002192473592141 5.953532424920499
Ag 11.083921 6.565206815449078 5.527872177262947
Ag 2.0464926308981535 6.565206815449078 5.527872177262947
Ag 6.565206815449078 6.565206815449078 9.831315840731843
