13
Energy = -23.15157198 eV
Ag 5.138693805502152 5.138693805502152 8.633620901141969
Ag 6.559269725647916 9.310656 6.559269725647916
Ag 5.138693805502152 7.979845645793681 8.633620901141969
Ag 7.979845645793681 7.979845645793681 4.484918550153864
Ag 7.979845645793681 7.979845645793681 8.633620901141969
Ag 6.559269725647916 6.559269725647916 6.559269725647916
Ag 9.310656 6.559269725647916 6.559269725647916
Ag 7.979845645793681 5.138693805502152 8.633620901141969
Ag 5.138693805502152 7.979845645793681 4.484918550153864
Ag 3.807883451295832 6.559269725647916 6.559269725647916
Ag 5.138693805502152 5.138693805502152 4.484918550153864
Ag 6.559269725647916 3.807883451295832 6.559269725647916
Ag 7.979845645793681 5.138693805502152 4.484918550153864
