15
Energy = -28.42832355 eV
Ag 5.8588211796351155 3.877755147987459 8.432377174350234
Ag 7.811431407176109 4.9135115035601125 6.6347857444595855
Ag 7.6173700470500645 5.848626283758599 9.330744709931121
Ag 5.321944686288125 6.612154029909089 7.902947408212989
Ag 5.0764800673197845 4.750761453535166 5.775172572225467
Ag 6.864584797123541 8.54351566704496 9.455328876014162
Ag 7.942644028448173 10.350062922355 7.511860681979481
Ag 7.138827373115391 3.963276650794041 4.006292469750739
Ag 5.286434764291565 9.300847053897359 7.301223746025405
Ag 7.92133213288337 7.6582149405998186 7.029750165249239
Ag 6.93701129060718 9.412607962125435 5.031166435683008
Ag 6.679052979634842 2.415745416321349 6.234061615823372
Ag 7.299439792260293 6.675934300678422 4.515810381495757
Ag 4.754878761388301 7.514294007301735 5.285326926340127
Ag 5.063005778315357 5.735951745669103 3.126410177997251
