14
Energy = -26.8661612 eV
Ag 8.631370708267337 9.31148591626655 11.107372153516867
Ag 11.556974948476588 9.621020701540774 11.659128709936121
Ag 7.544695602056263 6.902975821751977 11.604301480208827
Ag 10.170348633190919 7.348480640194024 11.475234231936403
Ag 6.278632960231806 8.514070266476581 9.670754142037651
Ag 8.686411746266428 7.372857628555058 9.215256250570881
Ag 10.845442594839637 8.921219790311953 9.291285662132921
Ag 8.151244737406579 10.252263636954853 8.68405722027792
Ag 12.622445511725449 10.913351234933874 9.291285662132923
Ag 10.000067994769102 11.353775797990222 10.076710469421108
Ag 10.53024760839035 11.018956013238212 7.476860453378004
Ag 8.277150001994537 10.701510686845445 5.9377335622695275
Ag 6.775135291238548 8.64830098154429 7.073150046251617
Ag 9.434698661146314 8.624598883395919 6.94173295592923
