17
Energy = -32.89321668 eV
Ag 9.638720824476254 7.107919458149156 6.563201974353418
Ag 9.060222125745886 4.785595505832344 5.129605197907909
Ag 9.060222125745886 4.785595505832344 7.996798750798927
Ag 6.712680222954308 4.113678060384744 6.563201974353418
Ag 7.655308389849297 7.15606575639275 4.572084405800494
Ag 7.655308389849297 7.15606575639275 8.554319542906345
Ag 7.994511234066032 9.223936699407234 6.563201974353418
Ag 6.703661710574781 4.540995043938788 3.796977428825244
Ag 6.703661710574781 4.540995043938788 9.32942651988159
Ag 4.546278726400232 6.7665580367275835 6.563201974353418
Ag 5.594361399747334 9.02384503792553 8.02211707989024
Ag 5.594361399747334 9.02384503792553 5.104286868816598
Ag 4.966183138089095 6.7134275159313965 9.307376276614287
Ag 4.966183138089095 6.7134275159313965 3.819027672092547
Ag 4.2784945059276405 4.32417473880978 7.9604271492814025
Ag 4.2784945059276405 4.32417473880978 5.165976799425434
Ag 6.165780016243511 11.274134111677911 6.563201974353418
