14
Energy = -25.80461074 eV
Ag 9.606628109692101 6.179407233633374 4.9690155093713235
Ag 8.560189559930206 4.589366606456915 6.89373352467429
Ag 7.332195606569445 3.2018623033772555 8.866966603438096
Ag 7.427534936576623 5.975604467170587 9.052477050387886
Ag 7.492166809276005 8.081238201684663 3.942692608604095
Ag 7.754014154949176 7.3169774637823455 6.6895041302615805
Ag 6.894910160770763 5.483117706587554 4.660990048856933
Ag 5.771873506881545 8.149874721309757 8.384514531263724
Ag 5.944615555877071 3.6430220243642277 6.500050255643748
Ag 4.865654181734699 7.533648812450148 4.059744392844897
Ag 4.8747481026691 6.302457262713503 6.608952465993372
Ag 4.184508555580247 4.743372752680056 4.4708913798291245
Ag 3.7753792887867594 8.798610480473839 6.540479108226373
Ag 2.4344363744547484 6.83347166350944 5.044984457982038
