15
Energy = -28.58458238 eV
Ag 7.49104434616586 8.465850750464476 4.704940044683231
Ag 5.678215417844852 8.033053615368928 6.850772308171465
Ag 4.921880708405986 9.708518578955461 4.74471242174119
Ag 8.357123792933441 7.613510038862205 7.3393420038392145
Ag 9.724745129899869 6.7738032439345846 5.032615965157011
Ag 11.004111787705801 6.827736577497286 7.492168761589505
Ag 5.105460952623076 6.9975093757978 4.179070859393591
Ag 3.1039663169896996 7.7793239097652815 5.945224080260625
Ag 7.206850050447221 5.648066401324357 5.361466868295738
Ag 4.539539462731676 5.171629498886778 6.1729754828693855
Ag 9.05965080413205 4.8717813713289315 7.285022909602696
Ag 3.7362096680165893 6.591280207099289 8.404081651694684
Ag 6.47359957908526 5.812913955366955 8.330717968624128
Ag 6.7099761295114675 3.4002008527620218 7.061226558497217
Ag 4.435663820427338 3.852859589505678 8.643700082500493
