15
Energy = -28.42588424 eV
Ag 9.669057501016947 6.449244333863323 8.136367853162024
Ag 7.394197293054338 8.133054414264615 7.973673559934938
Ag 7.101528842184099 5.328685177453355 8.206861028377615
Ag 9.128591983449294 4.081931198445422 6.698488606998725
Ag 8.192034109940863 6.5722795028273575 5.739870337423649
Ag 6.9823421841524755 2.6087439619239903 7.678647643024091
Ag 7.3778515663065685 10.780161315691071 7.310796244976147
Ag 6.557080728880841 4.295034530670351 5.40865690084827
Ag 4.9052898538849625 9.474964697290895 7.2558127257176785
Ag 5.217649390416789 6.750081472399385 6.753471014070535
Ag 6.737642194619598 8.953406289848697 5.280376297410518
Ag 4.640977810757799 4.095044145468274 7.3757970961667745
Ag 6.029708526632649 6.64513700552312 3.9799382387935642
Ag 3.8654560404074534 8.211845555798746 4.8992635736179535
Ag 3.7917211505388524 5.211515574775046 4.8931080557208775
