17
Energy = -32.90978161 eV
Ag 4.4621855986476495 8.78724148691589 8.366617380433455
Ag 6.476736972538473 9.550955685465802 10.32792504243793
Ag 7.601453130336784 6.968035826759669 11.012056371691475
Ag 6.704089163093886 4.841379809179099 9.270602247778335
Ag 6.951777713031905 10.16589907131173 7.602386544760274
Ag 5.753656111821463 8.084244988882771 5.9228552101515035
Ag 6.856289360777012 7.55210462551691 8.519569041773037
Ag 4.650668957665189 6.074833127923695 7.55903229862511
Ag 9.220445465838326 6.192200011513516 8.659656213277234
Ag 7.7524763784412425 9.79202800666175 4.903354717160574
Ag 7.550529752417514 5.28033340613441 6.619941770021672
Ag 5.507707760567816 3.5030018586550002 7.047993600764791
Ag 5.472879018268764 5.445727493264165 4.873331093560531
Ag 7.769123244578109 6.963806702218217 4.336205225436407
Ag 10.080098128702861 6.051854582222154 5.837336854332452
Ag 9.012145536008433 8.35817638018613 6.857208256857313
Ag 10.138420229904872 8.38872546573614 4.286875126540413
