10
Energy = -17.70970342 eV
Ag 8.210117666870076 6.677008289138987 5.7168872054330775
Ag 9.84831241961314 6.133213290051071 7.937018588724134
Ag 5.855702892951087 6.878298530319188 4.217206897691691
Ag 6.365013527128127 8.671175492098236 6.2509001483697855
Ag 8.300535082248894 8.293753906381864 8.22941514343585
Ag 7.085166789197443 5.655453565846835 8.035563712383308
Ag 6.3348240170328785 4.5059485889170645 5.64347341639652
Ag 5.583077901468649 7.848572250486222 8.832783957103402
Ag 4.649275888918001 6.339793556400153 6.743684169008857
Ag 3.7633211739396164 5.104956318035021 4.427394331214215
