19
Energy = -37.37101456 eV
Ag 7.138496479125035 4.5875927472420965 9.685799558477166
Ag 4.713307238608528 4.490623769143055 8.250583612562593
Ag 8.886239293790283 6.731104133559574 9.112469974059838
Ag 6.850073931325229 3.037198942598583 7.202096551474223
Ag 7.031957677869622 5.796730160009866 7.041625938125906
Ag 5.868437333153919 7.0751891863394425 9.227239936795693
Ag 9.289928844710374 4.334428193709592 7.740974004857818
Ag 8.356255296117867 4.206227600864401 5.032901234510836
Ag 5.404381897557027 4.452169408330176 5.19688377495684
Ag 9.522846512962522 6.693984525661187 6.13018770255205
Ag 4.387349634906588 6.701400895319084 6.711897874984232
Ag 7.684031321093761 8.505045854900807 7.450198929842202
Ag 7.25880826370499 6.536451321994882 4.134651698597871
Ag 4.429930893458832 6.681470842791409 3.900856717589433
Ag 8.597909009209172 8.940669285868866 4.829732819122826
Ag 4.9796212188816815 9.287217160022465 7.685792006742648
Ag 3.0813919087234822 8.719388635488398 5.511004782904624
Ag 5.8567553297998005 8.722434976489213 5.109663241544139
Ag 7.080767783200862 10.895391235253438 6.3961254805180685
