13
Energy = -23.56785129 eV
Ag 6.697315630932251 4.243582866356799 5.168115710568219
Ag 4.598707856351206 5.744882404500526 4.1595817980858
Ag 9.206250208083288 5.208425565397062 5.948473391601096
Ag 4.939126665983029 6.720324294860267 6.752362589147999
Ag 4.617929222613887 8.489671926850386 4.688645960469535
Ag 4.949672654368553 5.616504759140591 9.262458812348111
Ag 7.231665851439769 5.386810117114946 7.750226125139262
Ag 9.873179070701047 5.67310315832755 8.629401263231575
Ag 7.1021564895575064 6.982089201310994 5.061130471344622
Ag 6.463881396604535 9.303548275251558 6.567005048272592
Ag 8.760077911717671 7.782410647623623 7.2712308888526005
Ag 6.521849527302107 7.829659479525542 8.953899035201168
Ag 8.033430559384696 10.053260512302822 8.777553341243793
