10
Energy = -17.39574698 eV
Ag 8.828501273592192 6.442838361456663 8.381839739033339
Ag 6.3564615079058475 5.100112063453067 8.735227349281267
Ag 6.463728868595402 7.3681119670620525 7.144267781610483
Ag 8.860331341342935 7.443073035556711 5.7252704544271475
Ag 4.286977119785471 7.419246812287891 5.383236815894178
Ag 3.96333695091873 6.460631744970514 8.03412484705449
Ag 6.610179370514279 8.96822260754572 4.865766894372708
Ag 5.1501729740256526 4.814426988305164 6.153194316579273
Ag 6.668603497360611 6.256090235547445 4.3291016958881805
Ag 7.917292519154602 4.816038247278654 6.349643527709991
