10
Energy = -16.95840335 eV
Ag 4.695328041063114 3.3891326678188873 3.68703664155977
Ag 4.807024701388079 6.0781352535857 3.167706148704182
Ag 7.1090199953449895 4.636743679865157 3.91274423636603
Ag 5.1706356154615145 4.861805958059729 5.959795816022846
Ag 9.04958517567454 6.4872458921877225 3.9166333778456655
Ag 6.760755907605071 7.058726549690136 5.213842017884761
Ag 5.517072889881306 4.490690269057257 8.647070164331204
Ag 4.10083206441585 7.565639786774338 5.35828746681735
Ag 5.451500461862308 7.008887301946456 7.750373235320081
Ag 5.446701179674367 6.521880036113464 10.445916005127092
