17
Energy = -33.31544524
Ag 9.340312438641947 9.145761673663605 6.749949666371121
Ag 9.615595655647706 9.781333603786708 9.455176568621013
Ag 11.321201472737988 7.362431054771371 10.926821356383833
Ag 9.744946224489617 9.139060210970062 12.323360454301879
Ag 11.944607884022112 10.048990945971235 10.636361594033325
Ag 7.502380349759532 10.062732859697002 11.252497821829538
Ag 8.728549356069601 7.332871074954825 10.585091588649865
Ag 6.132072698358435 8.174502541083806 10.008323133664392
Ag 11.558586017962758 10.113836995569201 7.828955716620274
Ag 9.713182651980954 11.639226326117956 11.696576642724217
Ag 10.872508921636497 12.354533519677682 9.455176568621013
Ag 10.401600075224257 7.363951082754413 8.482495790475712
Ag 12.980811315218054 8.25498929797301 9.063963344684408
Ag 7.809167730180766 7.32695645550963 8.14126037922357
Ag 8.140375886176427 12.32449632635364 9.633340765172482
Ag 9.314719078997376 11.64267336027002 7.388753055646018
Ag 7.116697691575149 10.001449222197024 8.441690104297855
