18
Energy = -35.90634858 eV
Ag 6.544630216832569 9.86924167342184 7.08921064735614
Ag 4.194595001577031 8.894665432088114 5.999997764238256
Ag 3.220018760243302 6.544630216832569 7.08921064735614
Ag 4.194595001577031 4.194595001577031 5.999997764238256
Ag 6.544630216832569 3.220018760243302 7.08921064735614
Ag 8.894665432088114 4.194595001577031 5.999997764238256
Ag 8.580600692420685 6.544630216832569 4.5612044940597585
Ag 6.544630216832569 4.508659741244456 4.5612044940597585
Ag 4.508659741244456 6.544630216832569 4.5612044940597585
Ag 9.86924167342184 6.544630216832569 7.08921064735614
Ag 6.544630216832569 8.580600692420685 4.5612044940597585
Ag 8.894665432088114 8.894665432088114 5.999997764238256
Ag 7.985343567270488 7.985343567270488 8.52848069055881
Ag 7.985343567270488 5.103916866394655 8.52848069055881
Ag 5.103916866394655 5.103916866394655 8.52848069055881
Ag 5.103916866394655 7.985343567270488 8.52848069055881
Ag 6.544630216832569 6.544630216832569 2.7116249758996256
Ag 6.544630216832569 6.544630216832569 10.376144542234481
