19
Energy = -37.25351867 eV
Ag 10.926053278484737 8.048776398958827 7.558450767195991
Ag 10.272780347673807 5.5799192579636525 6.468792193735613
Ag 8.512656434138272 7.837918705992076 6.031535227578567
Ag 8.653823458034886 9.282967259826044 8.506181621281947
Ag 8.067791349360892 7.263136259963932 3.338597672250771
Ag 8.094891833369322 4.991751882841945 4.92440665459722
Ag 6.087651934264288 8.528384992477152 4.799024307367162
Ag 8.721344325723354 6.503256357507775 8.621653564468218
Ag 8.123270532435624 4.058849172234694 7.523788019387999
Ag 6.804669630136881 7.842174926923363 10.119901880275979
Ag 5.722196862785812 5.822503058616685 3.889980510436024
Ag 6.131038113039769 5.371678721723325 8.919554526770128
Ag 3.659870812701091 7.592465470865151 3.6937017905037495
Ag 5.692678533201763 4.304323227185004 6.2698187863068116
Ag 6.149995947679154 8.776256454714662 7.546703400422127
Ag 4.242293786520816 7.472322533457109 9.157685934621881
Ag 4.116798223441845 7.3249611974529305 6.386944734172864
Ag 3.260393521740357 5.052347530489604 5.05363500311616
Ag 3.554629095505101 5.032292496416717 7.890443441720238
