16
Energy = -30.87487717 eV
Ag 3.153006113156632 6.003285857300513 6.55595475945474
Ag 7.958434841707322 7.772056808908512 8.713273142308909
Ag 5.375437805569664 6.931870199802711 8.09997122877827
Ag 7.4274402391214425 5.098350830911313 8.059552260584024
Ag 4.802175335481608 4.202906332912061 7.984134943393932
Ag 6.212276520863421 9.693592002226321 7.9304054454568
Ag 5.375437805569664 6.931870199802711 5.0119382901312095
Ag 7.958434841707322 7.772056808908512 4.398636376600567
Ag 7.4274402391214425 5.098350830911313 5.052357258325456
Ag 6.212276520863421 9.693592002226321 5.18150407345268
Ag 3.90493836281334 8.738151386774753 6.55595475945474
Ag 8.681384176047338 9.396016398891932 6.55595475945474
Ag 9.423439584461892 3.8657812269214857 6.55595475945474
Ag 6.782315962950319 2.8243535211357957 6.55595475945474
Ag 9.398662466359255 6.670135410728948 6.55595475945474
Ag 4.802175335481608 4.202906332912061 5.127774575515549
