12
Energy = -21.1378645 eV
Ag 6.548059961348995 6.548059961348995 8.048522243827339
Ag 4.311133524482977 10.419117 6.548059961348995
Ag 8.784986398215015 2.6770029226979895 6.548059961348995
Ag 6.548059961348995 6.548059961348995 5.047597678870651
Ag 6.5563479306697445 3.659895870447422 5.1870140635164
Ag 4.606841171592839 5.0240210209073695 6.548059961348995
Ag 8.624679850631315 5.34206179216408 6.548059961348995
Ag 6.5563479306697445 3.659895870447422 7.9091058591815875
Ag 6.539771992028244 9.436224052250568 5.1870140635164
Ag 4.4714400720666765 7.754058130533909 6.548059961348995
Ag 8.489278751105156 8.072098901790623 6.548059961348995
Ag 6.539771992028244 9.436224052250568 7.9091058591815875
