18
Energy = -35.18317404 eV
Ag 7.81322987627971 3.9271797598372316 6.90287541123094
Ag 8.691905598711113 7.005613199965303 10.393407471681021
Ag 8.88644305293142 6.218363733085539 7.734066822327246
Ag 6.302055078289081 6.1376204099691805 9.36668802904525
Ag 5.1326070392851895 3.6406757782820756 7.307236520525985
Ag 10.385098983195023 8.353151317409587 8.525635619932524
Ag 8.419700837549648 6.093359486030403 4.87864575863017
Ag 6.321862782402534 4.235390656257041 4.528780031243227
Ag 3.861395761372229 5.201385891209829 5.327208172747495
Ag 9.155265712584871 8.546988933698879 6.06591718685563
Ag 6.133143741091324 6.236157036575881 6.6234298825438245
Ag 3.8716001933927178 7.957943630748219 5.71669165054596
Ag 7.6339859533773495 8.762765797724906 8.44973497934776
Ag 3.711458650601696 5.971471785699584 8.076595913230685
Ag 5.814343333427354 6.967214720122671 3.9249764854511286
Ag 7.965710128942888 8.641239403488038 3.5960786506930744
Ag 6.397618484253841 9.157501895781628 5.851245821816903
Ag 4.9913037342488025 8.416860576091311 8.237023187651172
