11
Energy = -19.83275566 eV
Ag 8.738474424993353 4.173448930475052 7.347383780999284
Ag 8.200668766157838 6.969265272152813 7.622562584056522
Ag 7.131566143278429 5.423177118213658 5.436949360497695
Ag 6.2788702141691175 5.052910517207157 8.294836273591484
Ag 6.444144645507855 2.8815177875045923 6.481599631879832
Ag 4.4829193548050545 4.922410927143872 6.193125146843894
Ag 7.474347783549223 8.158768162140538 5.20538598498466
Ag 7.09193364470204 9.603235824399114 7.551476115326132
Ag 5.375756349116058 7.432798805436931 7.230179980559423
Ag 5.032949582933181 7.101450752307364 4.465468028996624
Ag 5.141375182828046 9.720935476131523 5.583587530360817
