19
Energy = -37.43014007 eV
Ag 6.563115141644602 6.562656806837204 10.505599
Ag 8.063968849617773 8.631650161257932 4.225375036981253
Ag 6.563115141644602 6.562656806837204 2.620631283289204
Ag 5.062261433671431 8.631650161257932 8.900855246307952
Ag 5.062261433671431 8.631650161257932 4.225375036981253
Ag 6.563115141644602 9.186950138619656 6.563115141644602
Ag 5.027530897460914 4.439295642826621 6.563115141644602
Ag 8.063968849617773 8.631650161257932 8.900855246307952
Ag 9.053263530052156 7.3700393414360805 6.563115141644602
Ag 6.563115141644602 6.562365021683373 5.2487999501868146
Ag 8.098699385828287 4.439295642826621 6.563115141644602
Ag 6.563115141644602 4.007079503075454 4.224019231159643
Ag 4.072966753237041 7.3700393414360805 6.563115141644602
Ag 6.563115141644602 4.007079503075454 8.902211052129562
Ag 4.128294044882241 5.775691068969755 8.900493487474877
Ag 4.128294044882241 5.775691068969755 4.225736795814322
Ag 8.997936238406961 5.775691068969755 8.900493487474877
Ag 8.997936238406961 5.775691068969755 4.225736795814322
Ag 6.563115141644602 6.562365021683373 7.877430333102388
