19
Energy = -36.84971463 eV
Ag 3.4192952462364476 4.71852084623294 6.224590549874932
Ag 4.157108256324372 7.1946376349197525 7.382075739145087
Ag 4.587620090543625 6.665720800517337 4.6095485850539895
Ag 5.754525949244093 9.374809245991154 8.143624754011578
Ag 6.160419775183081 8.511004308915325 3.2651916926162414
Ag 4.679411524179857 4.546183568218551 8.726514449228791
Ag 4.600824659918443 9.380959477248528 5.484400862692032
Ag 7.724550780198322 6.997078218324194 1.6362251623593245
Ag 6.178735601859499 6.806743873725874 9.233433245469287
Ag 7.5062559570438205 8.965392990891003 10.30228173730387
Ag 7.373233039227492 5.979776483324046 4.102670601698675
Ag 6.12556337474746 5.166952278416423 6.463507300802103
Ag 7.5275135769777375 4.370428903079647 8.760783638686483
Ag 6.856583020504021 8.000873280914114 5.940353024401743
Ag 8.961628277240678 6.69651475517927 9.560981364892694
Ag 8.67916478687199 8.891497791414876 7.7932715390849205
Ag 8.720180739195916 6.101594430147615 6.64521201988722
Ag 10.291324951876572 4.563649169674785 8.301216610429533
Ag 10.953370318022305 7.287803860973724 7.6920655125821185
