17
Energy = -32.68818329 eV
Ag 8.262632881877328 5.879130423251111 10.54346050639256
Ag 8.959403882039314 5.679948498250979 7.865267030637627
Ag 7.701757515551248 3.5132436217933156 9.035380834206844
Ag 9.085544114180609 8.101223991416573 6.384817493698834
Ag 7.770708629680155 8.078332516757081 8.905375075295197
Ag 6.136221170921527 5.736189864118009 8.700313455215388
Ag 11.079670614418552 6.166408796747894 6.220899976568877
Ag 6.188209874129938 10.314286429629398 9.303785906861469
Ag 4.366745902395239 10.728291011135369 7.277063660351862
Ag 8.726043375939613 5.7143974636567005 4.92605919362084
Ag 4.902326672008777 8.114138553709683 8.142554052277182
Ag 6.873009419070768 9.64903542935335 6.652794225655428
Ag 6.908346921359917 4.100427632200671 6.437994790132351
Ag 6.960918369314776 7.838486275166478 4.5403383915170155
Ag 6.275655895869007 5.2132222223949105 3.8432605995853333
Ag 5.130671095731004 6.209109548003399 6.161154011865135
Ag 4.447176842925206 8.75551373133681 5.351890615140801
