17
Energy = -31.94678159 eV
Ag 7.138003535323121 2.950642138441298 6.20100413304259
Ag 8.241543922991953 7.150444121597483 4.571103259211313
Ag 6.176936948001503 5.205785829005424 4.793005046122
Ag 8.668508030735971 5.168640177999938 6.734395249488724
Ag 5.4705680524498845 2.6473145886969065 3.9788699470965057
Ag 5.423197860844497 7.921707059770624 4.5548690651532056
Ag 9.382858521176173 7.982985768586084 7.084944016033518
Ag 7.347923286118398 9.680894187891184 5.775524572345834
Ag 4.345456011346549 3.6636110023122823 6.252467544974496
Ag 9.181169773872044 10.720821202039472 7.59626011534651
Ag 6.6989220257913455 7.119288179914806 6.8552682352802385
Ag 4.796832911083762 9.177616308771903 7.0462077032060195
Ag 8.084189878663746 6.540604632245481 9.215571511749657
Ag 4.041945205241884 6.352502205187729 6.681056078313658
Ag 6.136729348764123 4.674256054666237 8.16681647919665
Ag 7.197864202649484 9.20248620060004 8.698654827118258
Ag 5.2363797290702125 7.237732049818271 9.185406947980079
