14
Energy = -25.70809933 eV
Ag 6.555032801885523 6.555762762169582 6.191183334354912
Ag 5.059398067656579 5.688395961992816 8.546875799897089
Ag 8.050667536114469 5.688395961992816 8.546875799897089
Ag 6.555032801885523 8.285467459344483 8.546441312339814
Ag 6.555032801885523 6.555487680177305 10.694097435790926
Ag 7.969574919874778 9.00251485990999 6.249012445394407
Ag 5.140490683896269 9.00251485990999 6.249012445394407
Ag 5.089580403638421 7.40057819264918 3.9176370395619773
Ag 6.555032801885523 4.8624865286809715 3.918138237562002
Ag 8.020485200132626 7.40057819264918 3.9176370395619773
Ag 9.383822170494016 6.553942192192865 6.248891741850924
Ag 3.7262434332770322 6.553942192192865 6.248891741850924
Ag 7.972858679842981 4.110196191267784 6.247882426469877
Ag 5.137206923928069 4.110196191267784 6.247882426469877
