17
Energy = -31.86862698 eV
Ag 9.34840893358402 6.110883419156709 6.212890874715478
Ag 8.36440751491474 8.83754053827215 6.277191076362499
Ag 7.520994226780481 7.134489406141501 4.078834461222059
Ag 10.224468854085933 5.218074432367107 8.689241646411135
Ag 5.194687363147128 8.017260506375166 2.8480296939785816
Ag 8.535708004335001 7.459699391707603 8.760322130733872
Ag 7.1950976752993885 4.443756772890771 5.159816533715008
Ag 5.6786692052509125 9.085491167426262 5.413649914340453
Ag 4.820882549996101 5.894671085596465 4.613915339714158
Ag 6.676013357837765 6.68721194391808 6.683366982662705
Ag 6.177480299489172 8.934331663258357 8.200526848049511
Ag 7.687412697771271 4.278451119608961 7.936771052671754
Ag 3.1502073657835528 8.154924735078184 4.684415431972748
Ag 8.163668655503491 5.2725389873579465 10.503312207232959
Ag 4.011331976537178 7.273384381047622 7.1727338072766385
Ag 5.856905073793653 6.237583211582933 9.291779693971167
Ag 4.992286898109932 4.531829910030852 7.084706085918722
