18
Energy = -35.70754644 eV
Ag 11.001458866313403 4.682512711358062 8.18732691319741
Ag 10.059581071297824 4.852992082601681 5.57524989507691
Ag 7.0822691351478975 10.766593270516772 8.7270527770608
Ag 5.67089827813146 6.000352697059438 3.794612255020982
Ag 6.186323615726052 10.965910047463806 6.102513138208608
Ag 5.926464392908174 8.485488936552038 4.945649422965267
Ag 5.8565674342948615 6.039863374167815 6.5597160419307095
Ag 8.399699059411404 8.419045828734506 9.382959165814341
Ag 9.806068846429952 7.044333151972352 7.379424431615312
Ag 6.454283157591209 6.317481078469495 9.232134118201103
Ag 7.464602297396828 6.953212481190241 11.736767992277253
Ag 8.17729303824764 6.827705708463762 5.063322956756338
Ag 9.228395858956034 5.803600387666968 9.965451307891662
Ag 7.337333792168733 4.145468010944235 5.024376158581598
Ag 8.134450414112282 4.722826277299388 7.622550821203663
Ag 8.21874290716999 9.166270481972997 6.640191551167441
Ag 5.8480407281611555 8.830570795344897 10.474530629568235
Ag 5.633421576892368 8.586137953187452 7.724835940478798
