18
Energy = -34.49875528 eV
Ag 6.863497790731429 10.324244642004938 4.370464901821148
Ag 7.873543078135586 3.9454787086605165 7.8919030716177545
Ag 8.22815578157346 3.707417813516033 5.16999957698944
Ag 7.383055830284854 8.209127729699759 6.121030431187898
Ag 4.7409933206453685 7.56883504044225 7.240668573663025
Ag 7.935807134130803 10.753302098287794 6.906934581557026
Ag 5.029194193546952 9.781729008413249 2.471343234455574
Ag 9.16803063256386 6.0006879144530485 6.521813441169534
Ag 6.490835915951807 9.221022806602518 8.89181799260861
Ag 6.95228518844234 6.4664217056132145 8.483818361050359
Ag 9.685657417081401 5.954727629703475 11.989748801007181
Ag 5.12519416710481 10.192738029234059 6.615705829623155
Ag 9.211476557123408 8.360604325272964 8.168334186564811
Ag 5.1323434826050445 8.053779440483012 4.544447419579175
Ag 6.381396439039472 5.641822369157264 5.755508668328213
Ag 8.07204577195823 7.7475008343003395 10.706734795190954
Ag 9.786985590777675 5.831148470259136 9.202225005149556
Ag 7.589594113583901 4.795468899466491 10.561743254375187
