16
Energy = -30.62822515 eV
Ag 6.634683980756181 8.054845233689688 3.461449316072397
Ag 8.227959886090439 5.273496763615988 7.744706149124772
Ag 8.17838530116245 6.634683980756181 5.345644415220708
Ag 8.227959886090439 7.995871197896374 7.744706149124772
Ag 8.038853229626136 9.47197021247243 5.472210468352988
Ag 8.038853229626136 3.7973977490397868 5.472210468352988
Ag 5.090982660349913 6.634683980756181 5.345644415220708
Ag 5.0414080754219235 5.273496763615988 7.744706149124772
Ag 5.0414080754219235 7.995871197896374 7.744706149124772
Ag 5.230514731886227 3.7973977490397868 5.472210468352988
Ag 6.634683980756181 5.214522727822671 3.461449316072397
Ag 6.634683980756181 3.039854961512364 7.863850304540616
Ag 6.634683980756181 8.046354801834076 9.972694575259915
Ag 6.634683980756181 10.229513 7.863850304540616
Ag 6.634683980756181 5.223013159678287 9.972694575259915
Ag 5.230514731886227 9.47197021247243 5.472210468352988
