14
Energy = -25.01601323 eV
Ag 4.999724992283091 7.434700094644084 8.764217542464223
Ag 4.4027224714037745 7.758192202087731 5.952672356333853
Ag 6.5243991979136515 9.034481595099866 7.0897345675078975
Ag 6.5243991979136515 4.014316800727435 5.959063828319409
Ag 6.5243991979136515 4.748285271844247 8.786385227005088
Ag 8.64607592442353 5.290606193739573 7.096126039493454
Ag 8.049073403544208 5.614098301183215 4.2845808533630745
Ag 6.5243991979136515 8.300513123983054 4.262413168822218
Ag 8.049073403544208 7.434700094644084 8.764217542464223
Ag 8.64607592442353 7.758192202087731 5.952672356333853
Ag 4.4027224714037745 5.290606193739573 7.096126039493454
Ag 4.999724992283091 5.614098301183215 4.2845808533630745
Ag 6.5243991979136515 6.5354568448895405 10.824080000000002
Ag 6.5243991979136515 6.513341550937766 2.2247183958273036
