19
Energy = -37.78282781 eV
Ag 8.20145024273233 10.006194788228113 7.389461942319296
Ag 8.540574120539521 7.314017741529974 7.617467829412968
Ag 10.271275040040223 6.280355441404484 5.781743742541943
Ag 8.648688738930913 8.54655033002038 4.985034735226557
Ag 6.356731878483353 8.503734579459056 8.946012586580373
Ag 6.120552729601736 8.511522251556311 6.1412963187377825
Ag 8.609057798592769 4.515155610586243 7.248067634802833
Ag 6.553198256547182 5.695391006266771 8.75863578958796
Ag 4.552192309280035 6.873259052580128 10.325143203093353
Ag 6.344030922194098 3.04610024133666 7.8900192463135825
Ag 4.036175103328707 4.516439397557686 8.796624613982493
Ag 4.177879053430534 7.106615814217198 7.604736398255659
Ag 7.526867610145272 6.026515977199591 5.147864333701627
Ag 7.052566428026939 3.2935633949208896 5.111518421211148
Ag 5.001799633711791 4.821273586158428 6.204016827360554
Ag 4.064248019088886 7.0709442455134806 4.858694487447815
Ag 6.354451914356482 7.878598545348713 3.408331730188643
Ag 5.548726542599594 5.028828412180818 3.4585710423656786
Ag 4.0664441709682775 6.903513206637796 2.120967643635843
