18
Energy = -35.52989534 eV
Ag 7.04463559374942 9.799223309948113 6.123304067187772
Ag 10.030921090153988 6.123101533829743 5.108761192126399
Ag 9.10366673052737 10.92238495747722 7.778212817672288
Ag 7.487877502705885 7.117848831237403 5.554081493686468
Ag 9.662619926543467 8.72103665222586 6.1027637645922
Ag 8.8481365035463 3.958407990437308 9.045752767695639
Ag 7.1385064966734975 6.073687266486017 8.95162693163319
Ag 4.91334703911869 8.095120224607967 5.257014854629292
Ag 9.727161056873278 6.426067397578386 7.845932219017056
Ag 10.951203274367694 8.880451488033025 8.57991049680952
Ag 8.181135580016909 8.58566208912316 8.778506124854287
Ag 4.41371574290098 5.6875199585943745 9.163508463133136
Ag 5.372966510108156 5.601830307793701 6.512160627765462
Ag 6.131248104802899 3.595390050025621 8.376153368079866
Ag 8.028012721067459 4.55181243653124 6.417619147263097
Ag 5.507173561105992 8.09518310742043 8.0047693930087
Ag 6.38679658606112 10.744259182763502 8.691343102137122
Ag 4.3118640563547 10.30224686791205 6.839730475228629
