19
Energy = -37.03984257 eV
Ag 8.696533906472686 4.971713245836944 9.287856677770737
Ag 9.913028579758329 4.760760654120104 6.155578815465121
Ag 8.549746813038276 8.007783316794855 9.374579876922148
Ag 5.937465786212077 4.13836778661277 8.47405619933776
Ag 7.642137673952658 3.2207847090444637 6.4766598921162535
Ag 10.345081445329699 7.09213296739127 7.485215719593742
Ag 7.631820257018459 6.160454664514721 7.193422334208006
Ag 7.784671146825253 5.276651171281134 4.480008807119922
Ag 6.27965482535794 6.500966655596615 9.904836748031165
Ag 5.355724645395276 4.60189569698118 5.747764981828652
Ag 4.510220410875346 6.432443554033284 7.774416514104228
Ag 8.44006258446621 8.877022694439082 6.623250881187777
Ag 6.125519599373747 8.753156957144814 8.2131824762572
Ag 6.2241366107385385 7.5392324808540225 5.360416031865934
Ag 5.409346739255961 6.0504477742479255 3.2040312653946135
Ag 3.4482485439124773 6.540716528835794 5.170590629968229
Ag 3.8892200609287513 8.896287460890223 6.563087426508955
Ag 6.186252990558673 10.260858214990318 5.690478804565769
Ag 4.558483742539922 8.830613130904748 3.6984749966943635
