11
Energy = -19.29755377 eV
Ag 9.209540279185235 7.209331149629341 4.837189597860064
Ag 8.266396241331964 6.4968405835303855 7.330920134657581
Ag 7.295764669913947 8.718986378866191 6.040515770386742
Ag 4.6880340524250625 9.58202858573295 5.94092610961045
Ag 8.284590310613785 3.7106772785383493 7.652610740314428
Ag 7.249942140583482 5.753210544787926 3.553083479519429
Ag 6.3646380967631915 4.936895122660047 6.014976411404733
Ag 6.273028158713323 5.119564887856706 8.827448761349379
Ag 5.272431677373527 7.149728276832352 4.798485123647091
Ag 4.187198056174778 6.438258622860102 9.860331145489045
Ag 5.365651866332162 7.396919714164884 7.591593019061567
