16
Energy = -30.36889496 eV
Ag 5.562994854243435 3.638843908895568 4.904616656871038
Ag 9.380305406104524 6.938823277822899 9.76149634885033
Ag 7.528982986882206 5.514322126431198 4.8435373724063435
Ag 8.678728274397471 5.845990704432719 7.340072922108669
Ag 7.214353142611366 4.700543159908844 9.430502407894567
Ag 10.855470110822129 9.766089360196938 6.197004335158871
Ag 3.5299883767518137 9.91981244650128 8.85881606752233
Ag 4.233260778881509 7.805999219433335 7.308761292667926
Ag 4.626802482624454 6.29168180734567 5.006465890478108
Ag 6.128492756132797 9.907014774301512 8.154386377434134
Ag 8.730836914973926 8.997925443070768 7.833718688291875
Ag 6.717485460169492 7.933763362039456 6.074563406526382
Ag 5.7972074425001106 5.251722759223783 7.19485927764772
Ag 9.409591987079992 7.590427179892153 5.3188516428825725
Ag 11.051674139111823 7.4178798874835365 7.642726006636314
Ag 6.678540917392771 7.344292684402467 8.888573350160609
