12
Energy = -21.98208595 eV
Ag 6.5637127193441005 10.294654 4.687837239118831
Ag 7.985204269788701 5.194908133541996 5.1641026073808645
Ag 7.985204269788701 7.932517305146206 5.1641026073808645
Ag 7.948916961004809 6.5637127193441005 7.57308894355981
Ag 6.5637127193441005 9.218913728118244 7.206489468774707
Ag 5.142221168899501 7.932517305146206 5.1641026073808645
Ag 5.142221168899501 5.194908133541996 5.1641026073808645
Ag 5.178508477683391 6.5637127193441005 7.57308894355981
Ag 6.5637127193441005 2.8327714386881997 4.687837239118831
Ag 6.5637127193441005 5.106964354278453 9.58665544984967
Ag 6.5637127193441005 3.9085117105699565 7.206489468774707
Ag 6.5637127193441005 8.02046108440974 9.58665544984967
