14
Energy = -26.01637205 eV
Ag 8.986117761291222 9.527043588721112 7.870494926431798
Ag 6.0508073023619025 6.44615197743713 10.047892112455415
Ag 6.881063934675799 9.020083278274518 9.512224050192986
Ag 8.01988243351385 6.899311174212184 8.053549605945891
Ag 7.670993243265734 8.387982352516445 5.760776269013296
Ag 5.346619946988049 7.702614965070583 7.541653673068021
Ag 6.090323228343694 4.909450078463445 7.757121318323129
Ag 5.101114173650262 8.963013995239022 5.008604588645287
Ag 7.891738887147877 5.601473543740706 5.560435050344172
Ag 5.236795087512814 6.2440899387373845 5.2046410791791455
Ag 6.924668782565345 7.645638059463653 3.2394399503382427
Ag 5.439715431421239 2.296594349647528 7.872939363989073
Ag 5.736745431445661 3.48846281389561 5.441201904920408
Ag 6.563296730924311 4.888577519148054 3.1873304326213483
