11
Energy = -19.59549908 eV
Ag 9.396523220183107 8.00018085302981 7.153073755916337
Ag 8.785616598711705 6.308259666584008 5.03716275068366
Ag 8.341233718084462 5.483036479292863 7.677674822198198
Ag 6.906587059524162 7.703536337860112 8.538247142554493
Ag 6.458812323272699 6.58768918882684 3.508570114674959
Ag 6.850747750699478 8.109453043102038 5.825171817562367
Ag 5.735839427116936 5.092901987114249 8.542929017153439
Ag 6.185391311218203 5.1779773099885436 5.836851063082265
Ag 4.542817848018293 7.2304454673433955 7.140991306286727
Ag 3.9153496020220175 6.243031011529602 4.564714021732168
Ag 3.497179228896332 4.680394119751577 6.778944962614599
