25
Energy = -50.92475845 eV
Ag 8.282598743907897 10.194055037098718 8.273511300046149
Ag 9.574440747717953 4.873612350317598 6.463564012160049
Ag 9.45229028504618 7.578154054551171 7.324932443117894
Ag 4.464148464497379 7.4938673623701595 10.222298173372508
Ag 7.135151367315024 6.044333760373546 7.0824868288240355
Ag 5.531526862217746 6.651568782757438 4.854486501547719
Ag 3.241246468400354 5.154182457622119 8.998393266606154
Ag 9.088449099313532 9.728882146614254 5.179392635518482
Ag 8.843009626738652 5.588443998895021 9.2395844215414
Ag 7.119039229485054 7.8527392502371764 9.294246580714642
Ag 9.453498466191055 12.055076672570886 6.63152760929021
Ag 6.783835768928064 8.751346404582371 6.456251983698188
Ag 4.835351690781383 4.459224128618214 6.696375639136393
Ag 11.227568686493717 7.963068227337285 5.275817450696317
Ag 9.842576539744606 8.407280545968007 9.88354517229316
Ag 5.988812350610728 5.242835142563857 9.570240433995838
Ag 7.167761824377418 4.315388738734111 4.963598819042223
Ag 7.359440579458517 3.3996205675021653 7.8245783776144835
Ag 6.733779335706457 8.971217941974063 3.7177015239651183
Ag 5.215513206283766 9.71729091724832 8.500875651277537
Ag 8.478988092815921 6.94944971076523 4.71116923527262
Ag 4.833430173278671 2.8156587091505387 8.944870720137821
Ag 4.473334267378975 7.1730711706007115 7.472239727898217
Ag 4.294574580308536 9.142739270195946 5.461321302018644
Ag 10.982077369717693 9.879336478066199 7.359434016929311
