23
Energy = -46.61936192 eV
Ag 9.955624632254343 4.121917724309493 9.7527235338191
Ag 10.211618813849975 6.70050850623927 8.729514019643872
Ag 7.996053166797684 8.306467728685984 8.053546799824687
Ag 9.741141355939433 7.124418948265327 6.006524682082415
Ag 7.5996327991034605 2.9156099746378916 8.88718124228864
Ag 9.084049835592662 4.608155835083061 7.163128626247994
Ag 7.0122797223876905 6.5057940988888205 6.152888558366231
Ag 7.651890526403822 5.749956476357624 9.35250109905832
Ag 8.088151012521864 9.251197592198842 5.34850807101505
Ag 8.354734770967339 4.401777177506744 4.464600510081247
Ag 8.21207089120976 6.981943748937 3.585495378731705
Ag 5.745851386669614 5.288036655195592 3.989629808568288
Ag 5.41764454787905 7.186920471667152 8.465877860446959
Ag 5.768898116468889 8.188099610632566 4.04893638261498
Ag 6.468505643231521 3.667980283220677 6.384427861374335
Ag 5.9799277964302515 10.947716367738142 4.468193281632642
Ag 5.6660169132706795 9.349354838043961 6.723286654536986
Ag 5.259330999443158 4.392247844277944 8.85351485721452
Ag 3.205411441552135 7.9438543473316825 6.8274057656203215
Ag 3.3399361345823877 6.8886695354139125 4.217912985760092
Ag 2.9559344906657965 5.945987531289748 8.767867642293998
Ag 3.5174233211710253 9.656676160145674 4.647421682641618
Ag 4.258031056628163 5.374702783483871 6.376077689593092
