27
Energy = -54.45307551 eV
Ag 11.245098737565186 8.815282170398351 6.294998440040423
Ag 9.268234385819836 6.9113062591004795 6.283458249273371
Ag 8.722714187530904 4.886307410315705 8.224685971922932
Ag 9.832479158071354 7.456782626781993 8.953817772035956
Ag 7.315920392701248 7.107866590979274 4.247101179560888
Ag 8.617807249338812 9.433095733120053 5.283168314332437
Ag 7.941486459668504 4.524884088965948 5.580046005766558
Ag 9.396658029557374 9.998849298622837 7.8712373791505685
Ag 6.682089051542333 2.2096371797977103 4.746727481715727
Ag 7.595213143890618 2.3916588453569356 7.419095929519607
Ag 7.604986968373291 4.050592103645177 2.7780724684363696
Ag 6.178833735917953 6.284134806981674 1.8411305006565652
Ag 7.696234132983521 6.294192770885241 10.373839058216948
Ag 6.871415643045262 10.905948640302514 7.312009360023368
Ag 7.248255574483671 8.66527263957035 9.043758530966853
Ag 6.201423921313064 4.240693828766806 9.245354020947145
Ag 6.53748648815861 6.5210222078155375 7.070171165312158
Ag 5.408153256613105 4.866129498184522 4.163377548090345
Ag 5.274641951700957 3.7142420390014492 6.691373740750909
Ag 5.874436007758716 9.234806188422267 5.39972166864996
Ag 5.068244619581252 6.825277393422821 9.507044636771045
Ag 4.551546674666301 7.49434911914985 3.735414412037067
Ag 4.760102867392921 9.140676512003894 7.978646636216718
Ag 3.8162617763053333 6.074161911794607 6.1540180568816245
Ag 3.420712759298189 4.690840469352374 8.545315523436184
Ag 3.138132512591487 8.76747918047306 5.811963445649232
Ag 2.562336689754675 7.325416862413074 8.275358879262637
