24
Energy = -48.59271497 eV
Ag 9.221988889781246 4.444039981413586 9.896135392848533
Ag 8.888008499155507 6.096121455833673 7.495832951302204
Ag 8.88668269547273 7.085568385645867 4.8145200053127075
Ag 7.349957999682931 6.47403010181659 10.112798120913066
Ag 9.23789961822363 3.2064277256316456 7.390034677569758
Ag 8.277417305233406 4.4260728443070825 5.036915638816074
Ag 8.635415509617298 8.579746288452489 8.866931001559038
Ag 6.910061180478836 4.2797563306537025 8.433036130662407
Ag 6.459268203735066 6.441537424222946 6.059008985430868
Ag 7.061468452401386 5.960199858463314 2.9347635964714156
Ag 7.754643030765836 9.091834286552142 6.3128183482059175
Ag 6.728081087613778 2.5084772276218925 6.2410453501079415
Ag 6.7737085546253875 8.680027069229098 3.6819722340190886
Ag 4.724784180174596 5.867630630266422 9.21365707775446
Ag 5.963006754693735 8.210900797860047 8.264757653032015
Ag 5.473155146514542 4.2536972993080004 4.429512094024974
Ag 4.556901881124036 4.098398874118057 7.063959969585602
Ag 5.342870608504304 7.600182461834768 1.4835355159352326
Ag 5.0098024213677474 9.302723570930791 5.761379432450691
Ag 3.8176308927738147 7.06171958454969 6.857426036699831
Ag 4.471985832891435 6.965077490812599 4.01228216024756
Ag 2.1775793493939424 5.207289279520923 8.025275710695363
Ag 4.15965985444197 9.610154555875601 3.156379112351636
Ag 2.79441125162199 5.0597948583607115 5.217917392127955
