28
Energy = -57.88151011 eV
Ag 9.610855806894104 3.507101466711735 5.562817595669186
Ag 11.50916790170925 5.642504823011777 5.705316738822148
Ag 4.8744663888109 2.2617242552868255 8.168086778639623
Ag 7.3254793256419175 3.5556907623746725 7.413885984979198
Ag 9.571070496622257 5.306875848066693 7.669355814175625
Ag 9.65900692221867 5.720460684092724 3.677196745819061
Ag 11.380132171358461 7.548607355211927 7.7296580241860084
Ag 7.619125854658365 5.35324985534215 9.653821739885233
Ag 7.323478705388148 4.902204627582044 4.8823296257459035
Ag 5.008156404419605 4.899031248324526 9.03673460544637
Ag 2.5810970837831495 3.973782839054501 7.988149732211516
Ag 9.388782413705572 7.573071479686889 5.811580955493877
Ag 8.787458636412792 7.755141846445867 8.878021931390862
Ag 4.820881987522066 4.268051300339833 6.274998658015536
Ag 9.855112844378997 9.904627899578239 7.391029683068741
Ag 6.746964642841061 6.462389373572789 7.123587427524013
Ag 5.842801079826116 7.5855477760694505 9.49311532476281
Ag 7.518490380807805 7.542908859473031 3.7485682655149035
Ag 5.048359343727144 6.54253135847639 4.77030803169992
Ag 2.993048891054084 6.802792475479773 9.069534729886131
Ag 2.6980524541796433 6.130897921123885 6.301561981933104
Ag 7.0752879354298 9.339018208114219 7.4033244909746125
Ag 8.438631329202208 10.055962005341659 4.998223697851866
Ag 4.425061794126946 8.359376679551932 7.235744761142388
Ag 5.743075653628169 9.349289169328955 4.969172772770265
Ag 4.98222182481869 8.194672681184828 2.581280387503989
Ag 3.0039867568868632 8.433213512592049 4.729865645539193
Ag 1.6845965573864499 8.544125276019864 7.247579456787944
