27
Energy = -55.45343935 eV
Ag 8.322336062030454 9.079088955925759 7.540594580005497
Ag 9.40896123042389 4.205538245885643 9.196485101887584
Ag 9.95737983913156 7.2062105933354275 9.578998776141157
Ag 7.9139068474214325 5.794444135955541 10.937394583275807
Ag 7.3712413409830555 8.395165879234785 10.058688128030312
Ag 9.187676521453627 7.362573581417134 5.596819072205185
Ag 9.931479108618802 4.873452771504763 6.5015061659136535
Ag 9.043821484528852 10.016575858780676 4.868125298069598
Ag 5.4781908116876625 8.808413103213992 7.9672584230942745
Ag 7.960056448859313 6.282750992020328 8.0290806651562
Ag 5.495204809762638 6.410469682459432 9.547627401931384
Ag 6.573514651811219 3.7425179213187563 9.592457840848896
Ag 6.4746294667035125 9.228556889885988 5.378642944053742
Ag 5.522541007296597 1.9051853039371216 7.6414587055304795
Ag 7.54460463928775 3.6379204155857314 7.003314195911875
Ag 5.828872285303197 6.517383566896822 6.312190546924734
Ag 7.124249214039188 10.489980748696224 2.930008181340685
Ag 7.790381938516261 5.2095149636211415 4.635236838087985
Ag 4.999898309246161 8.758321069676354 2.922724747100065
Ag 3.3269385422055726 7.0154263963362835 7.874854255286397
Ag 3.809294963533441 8.409292754265467 5.489753081902586
Ag 4.538667008495486 4.458148577504823 7.783547236531092
Ag 7.631120973749932 7.7048239069942746 3.2895938249308165
Ag 5.423265728233195 3.7224320893401632 5.225390298198031
Ag 5.331222379637245 6.044211043518855 3.5207650046385646
Ag 3.26983591666112 5.581082557449099 5.414834158583817
Ag 2.7534549840753475 7.153264508935647 3.175396458116127
