25
Energy = -50.85756082 eV
Ag 10.194808547869771 3.931403838629212 9.64049864627107
Ag 10.544978008778239 6.210155209079506 7.4790302123556325
Ag 5.953909949728015 11.3206796367226 5.562792497349574
Ag 9.775122814550947 8.313310959110138 5.453746734687866
Ag 5.262516659777561 9.01936366708154 3.9627142488025866
Ag 7.899344469975888 6.30758681824028 6.397399313351807
Ag 8.031994370331489 10.247631012081582 3.906120227485209
Ag 6.491510886654237 10.342960095471764 8.362414666870013
Ag 6.064000448325546 7.559575490314962 8.296448619765764
Ag 5.906000632924008 5.8942509215697685 10.465153713644824
Ag 8.820776516811293 3.9227425398156153 7.29325637206019
Ag 8.839400087388412 10.920362079529438 6.6170424528159275
Ag 7.394153062363753 3.49227917586334 9.896412263027443
Ag 6.060998728004276 4.6939122723406355 7.674795846694191
Ag 4.537076315513955 3.623781138991951 9.690853477346144
Ag 8.93096551043512 10.848214710693025 9.547631136311482
Ag 7.67425346061359 7.344230304358192 3.7660730301605554
Ag 3.7318623748599853 6.103328617535325 8.216939601355001
Ag 8.430889615360451 6.047363618330826 9.334037888131405
Ag 9.898943177668835 5.540303132971374 4.764951638067285
Ag 9.025072995764985 8.51336222971219 8.13998209821228
Ag 4.351084702355872 9.177282591503433 6.7536432218540545
Ag 7.438119528160466 8.511068129784245 10.465288463694993
Ag 7.037057280126739 8.8802539393418 6.026253252422666
Ag 5.144380600261244 6.673818615531374 5.725741121866307
