20
Energy = -40.11679564 eV
Ag 8.890992121870198 7.794036133927139 8.329101934013512
Ag 7.094677724718203 5.979874899852184 9.783130771785448
Ag 7.198424028121053 8.699514132943465 10.394242454026282
Ag 8.760883456633575 4.995248117736339 7.7145375498406255
Ag 6.0142377950229005 3.965404222850561 8.14274904910422
Ag 8.28108328284748 8.406126346041377 5.583385421713626
Ag 4.918682541640248 7.618344124976086 9.191825600746276
Ag 6.6756503836102805 9.457819567806917 7.725914054973531
Ag 6.523094100883062 6.62251701082095 7.098873986024115
Ag 10.41777501871771 6.756769834136171 6.172133738260724
Ag 4.336126505271481 8.32258544421001 6.510013698769782
Ag 3.853182576356863 5.582527855395063 7.551075185656849
Ag 6.115028607609681 9.998401354182663 4.9883913476955
Ag 10.26328288854215 4.056745395440943 5.482161244443371
Ag 8.131195146815198 5.637343213312379 4.870150717203282
Ag 7.679447422815055 3.0427077675463403 6.033205616091871
Ag 5.461239140731528 4.5777332030888065 5.400905301502743
Ag 6.010086156990377 7.223568037437273 4.285919121148004
Ag 3.8924669018898777 8.846751648978918 3.7525758060784
Ag 3.347760178665637 6.289808782551658 4.861921265491727
