26
Energy = -52.52871544 eV
Ag 5.65914954053409 10.456884786590704 6.423450776365443
Ag 7.758783994010947 11.98356354912064 7.600513379195009
Ag 8.220599339513297 9.379394306180227 6.528414922908983
Ag 10.605069254180096 7.971437031253962 7.292868277297902
Ag 6.662261035090336 9.905568434843602 9.009140642718979
Ag 5.658840235129207 7.703940161891013 7.484400236509496
Ag 6.373313283164457 8.146580433393927 4.721872219232391
Ag 3.7634363836378633 8.79240091778339 5.419509444459036
Ag 9.57938887438728 10.17785530160713 8.84460089631831
Ag 10.815234885420235 7.960124036919083 10.029119702266216
Ag 8.916553308615423 7.011745070995338 5.247722555669686
Ag 5.9547002326951315 7.593472825338357 10.362771998937223
Ag 8.273066056510073 7.618498951247297 8.795279114011507
Ag 5.380278865311449 5.179989364065075 11.530732022126845
Ag 2.386164287558925 6.907055480226331 4.0193263517283935
Ag 10.996428871016972 5.429854865895054 6.352605445754761
Ag 9.995742455020016 5.479547064191243 8.950106486115688
Ag 7.32496011655553 6.027906881507762 3.22172536380919
Ag 4.263440471145879 5.752217926832169 9.091537610517328
Ag 7.097953919527283 5.128815152055527 9.296338789142869
Ag 4.763202460698846 5.5529451385614506 4.243079644708063
Ag 9.369138570994009 4.420921057195726 4.2789510126923425
Ag 8.339079935451268 4.47809732168993 6.879019358186032
Ag 3.3024264544329873 6.312301195313818 6.570595655456133
Ag 6.712280751622541 3.625620991020998 4.6814317231426115
Ag 5.57173914398889 4.746494480493585 6.868119096942287
