29
Energy = -57.75547933 eV
Ag 8.320299975687757 6.040682710797164 6.275024552040272
Ag 5.55941394764737 1.9966670472524062 3.5502356774989354
Ag 7.171537644126066 9.588951255343792 9.80961834177137
Ag 8.193590958304412 1.7508319896698812 4.089000487625146
Ag 8.017840754012722 6.92752472411685 9.032402180679366
Ag 7.544810028971226 9.212928436068006 2.7255340075106904
Ag 6.5262161418687 7.411482408873821 11.376518233858434
Ag 4.018654872767903 4.000751682708458 4.785103226163995
Ag 3.70791270813127 8.48287241727923 6.753492045430406
Ag 7.161317195895871 6.651824642985921 3.804791655424498
Ag 6.970300321347678 4.322258878866146 7.942827916414883
Ag 6.4298488748112925 8.702667472723162 7.291970167918653
Ag 2.5833554231013944 6.080153145167637 5.881380735122111
Ag 11.096175920252652 9.574786849397277 5.86021533863501
Ag 9.778491694074699 4.841869684813405 8.350174479286668
Ag 2.74186612653716 6.6038063220480705 8.671901442521209
Ag 5.432030256266514 6.225215853141002 6.029304646829094
Ag 5.33523143420147 5.890457555523937 9.459114809000097
Ag 10.618872621198973 7.217163774629838 7.261052195616693
Ag 6.893237738953636 4.059292012054652 4.864370865707598
Ag 4.599074426247309 8.5582588518629 9.50107582944439
Ag 9.074229696471233 9.403659577998965 7.860039029781014
Ag 10.099991109203353 10.058833427088677 3.355099415215642
Ag 5.553504786269889 8.750730044937661 4.672040115007349
Ag 8.549540943455638 8.689083633364179 5.220181571418634
Ag 9.018669314468045 3.1321962804814927 6.352206962556099
Ag 0.9728927188818841 7.984649717274142 7.023619370348622
Ag 2.8933402286943335 1.9616688625170495 3.398095484943731
Ag 4.060282711112501 4.328873986591823 7.583474662028117
