27
Energy = -55.06779271 eV
Ag 7.729523781752944 9.89560500439545 7.303181796461027
Ag 8.093360513077906 9.708729542913085 4.417544515498526
Ag 8.339992398685474 7.485678800640809 8.569516062497257
Ag 9.984597575112048 8.005612052251955 6.332405199838212
Ag 5.3972727974235575 9.697200987685104 5.597041237148411
Ag 3.4020876800540893 7.474739941922397 2.947547780631835
Ag 6.100847848801084 7.790143116540595 3.295168935862061
Ag 5.539622856145045 8.134858423338816 8.155044090380311
Ag 7.271185226477095 7.603631123806533 5.852334506400556
Ag 8.830228701211704 6.962936741017289 3.686008027803818
Ag 2.768867606329388 9.182052866228018 5.027838641565034
Ag 2.7425785518250643 7.960130613360171 7.490128802406765
Ag 10.707347268384577 5.985090213797012 8.214842780995776
Ag 4.5210397824309965 6.881952410301271 5.605145693344616
Ag 9.259340932706117 6.183188001933658 10.764007057337269
Ag 9.132036428469211 5.339940276973902 5.954735187913473
Ag 10.329562640580145 3.2497194626008956 7.214345273692743
Ag 6.435546766934569 5.529559981616397 7.283257878526191
Ag 1.881998699518813 6.4182225877435215 5.189956130135431
Ag 3.884323019838027 4.88898677117331 3.737256480606237
Ag 3.986139664908315 5.7340023931049915 8.524244011354499
Ag 6.419352196613067 6.0183078946181325 10.066297896174731
Ag 6.673253498959806 5.104644913996137 4.437152788414682
Ag 7.5179083357521055 3.0506154945323662 6.475600667742295
Ag 8.461817693497675 4.377234526587092 8.864488624175014
Ag 4.73697468700916 3.7250829649063104 6.0753913036565725
Ag 5.664449784189271 3.417285134971442 8.769708067192477
