22
Energy = -43.77198723 eV
Ag 8.40671404040848 4.342140251227952 8.8398556249284
Ag 8.704729301555146 2.52550334559452 6.573470791402151
Ag 9.524743546637302 6.8572754542091054 8.354496926950288
Ag 5.773008215841568 4.703374874610841 9.672591078693248
Ag 6.335712808855863 3.8802708044619347 7.012994073135214
Ag 8.73233167161092 5.196177049750623 6.177931879387436
Ag 6.7097611129561 6.77430139432798 8.004013446706816
Ag 8.345772098512304 9.384390645636483 8.147025465678057
Ag 4.179794807488 6.963806167034916 9.660841827106779
Ag 7.194676406337492 3.704868798766044 4.353553177003616
Ag 4.0245089695201814 5.27041632628633 7.42955308788349
Ag 5.981834560893415 6.36887381696629 5.242596477310418
Ag 8.615336859040225 10.516514700648882 5.476984860454462
Ag 8.72462365720604 7.839402574301202 5.811169854754136
Ag 5.708590262537599 9.19403829753459 9.051334317837089
Ag 4.472976781819333 4.007062429784319 4.86766882890723
Ag 8.24977998359487 6.167320651658503 3.5446025208405803
Ag 3.9950895645410798 7.980546453572608 7.057239280036019
Ag 2.95686782136018 6.313025419829714 5.055637169926375
Ag 6.279113769328367 9.257111236290704 6.271721477149511
Ag 4.431148229721918 8.51035451002795 4.25098572999271
Ag 7.147095903088942 8.733928123333804 3.6655973187194744
