27
Energy = -55.92144541 eV
Ag 3.650423612617539 2.595719115593968 6.942661031697422
Ag 2.0446763435264033 3.6750794385601897 4.9156125472918175
Ag 1.862131606759422 4.6234210446898425 7.67060821290268
Ag 4.610801222615664 4.839022737610454 8.28211606355135
Ag 2.8957880652374124 7.140577012196972 8.26516269437639
Ag 3.234151971030644 5.327590311458692 2.9940258186531117
Ag 6.367996217662223 3.1247813537430096 6.9416558365429495
Ag 4.865183715138925 3.690120684072712 4.639635456598508
Ag 4.055699970951963 9.626834057798762 8.760128463256155
Ag 3.3670239677803173 5.971130916981871 5.741600473197902
Ag 5.736556886056185 7.392073259025662 8.722872617800371
Ag 7.4463782180603735 5.1426569605543735 8.656826734828137
Ag 6.371546565896644 6.058650214959762 6.181277530585225
Ag 9.0755743699818 3.5641200876311263 7.010971239537358
Ag 7.662345648000848 4.0784983964554415 4.574183468358925
Ag 5.990286148885975 4.973217640766938 2.408089638484965
Ag 5.15881388573908 7.188659731987281 3.852304210318961
Ag 4.610905339340449 8.419012485163927 6.314543011959129
Ag 6.616938877863684 9.949545839109689 7.682047605696686
Ag 10.206653269511975 5.732298394658097 8.392812417852113
Ag 8.35562655888645 7.72628888283312 7.7572044421569615
Ag 9.514137925788685 5.951028477866193 5.6269817097795105
Ag 7.918325877999307 6.668376858896726 3.4366326906217974
Ag 7.162821765107153 8.734613046230795 5.152759323906734
Ag 9.148037341598348 10.141934469557896 6.540152276304556
Ag 9.824676240546914 8.45982285909787 4.390006406756279
Ag 11.000492653677506 7.958919988760955 6.9011223432460485
