21
Energy = -41.9495916 eV
Ag 5.390772098472899 7.500700562493428 3.991986914175494
Ag 5.41334909687953 4.691849368000958 4.560944102750042
Ag 8.118250418352934 7.681860659876667 3.4276891183058584
Ag 4.445778815966836 8.651320098903412 6.636272727683432
Ag 5.976638084553848 10.643091874524645 7.714694804041762
Ag 6.909158879084661 5.470108117947401 2.387497837024046
Ag 3.38881757607081 6.348483547904046 5.589529072344775
Ag 9.369058712100962 7.594858723557183 5.823486313378146
Ag 6.993175013479852 9.280454296888406 5.467129050544994
Ag 8.204189056717857 5.174373060567284 4.857630751919405
Ag 10.821010845402705 7.4771811114580355 8.14026394583184
Ag 6.504882761495978 6.678566914226784 6.563364363441171
Ag 4.173903277424288 6.135382170001188 8.257672951271052
Ag 6.037625855390489 8.147829088511617 8.981603003296865
Ag 6.666620696750519 3.872367918388842 6.984156636465052
Ag 8.436298913345668 9.169798663763048 7.899940373476524
Ag 3.756558454362996 3.8387500053524977 6.633664028967352
Ag 6.670983544187259 5.428120013244363 9.329434775065144
Ag 8.647978519558519 7.184628078534819 9.823910422251144
Ag 4.871293407231866 3.3895164038916756 9.105277974993227
Ag 8.978503262655996 5.422185512666786 7.598622629689959
