28
Energy = -57.7229817 eV
Ag 12.018225755624147 7.667980605087463 7.007838966372196
Ag 8.4220739963124 6.558981896481522 3.8143270671276115
Ag 3.154551383106741 7.587083787126818 6.802345862721712
Ag 6.1471894153087145 7.314307689391861 10.827209924311079
Ag 10.964314776043276 5.935577203090348 8.877571932020738
Ag 5.420605511426454 6.272713354891957 6.013815740474736
Ag 6.011922291969277 8.043934451491479 3.536083780334633
Ag 3.258467103663798 5.569863329083244 4.2305190576221685
Ag 8.858143850672112 6.709669478694017 10.435214429326045
Ag 8.806381594339191 4.215632162277035 8.282142459141593
Ag 7.845702760363493 9.335025335772235 10.008133867821844
Ag 6.866818625739606 4.67655593078147 10.30732143344573
Ag 4.96642050009996 3.523583771868012 5.128963088975003
Ag 7.228449844424344 6.488589208677674 8.170766042408005
Ag 5.407975036046716 8.665401570030035 8.442954715936146
Ag 5.8652761518104635 3.8799027339788315 7.774317556509065
Ag 9.725632011796293 6.070041157358661 6.347495331324723
Ag 9.523059152362228 8.361477449584696 8.04734128995599
Ag 7.543553861948457 8.135233070091683 5.928268377906883
Ag 5.108355330885572 9.516578969366794 5.830478555493369
Ag 3.2830288583877087 8.375225464194088 4.094990094474219
Ag 7.310278082542026 10.39865744374543 7.489059826216046
Ag 7.5871406148665965 4.499816239571193 5.648683067756522
Ag 3.1367121193569494 4.748960990653193 6.941668574607691
Ag 4.471371174332991 6.052968632767419 8.932198982642229
Ag 10.16650012965783 8.465553954019772 5.089466417991489
Ag 4.10133841899935 6.825851982000763 1.8987342518157448
Ag 5.968447373867661 5.272767863876613 3.2600250312218972
