26
Energy = -53.24694839 eV
Ag 8.791760051008628 4.229254215462156 10.567943088948102
Ag 8.919134324193692 6.9262300591926 10.18780222074417
Ag 6.6647279189605975 8.342622579816087 9.112387822022576
Ag 9.274617294247173 9.620384560436893 9.658118783535114
Ag 6.50343776548278 5.602305653615932 9.484443066377127
Ag 8.806227221866706 4.977864709139618 7.863984223425157
Ag 7.027067809840605 2.8840875596546893 8.963144863195673
Ag 4.292717336517873 6.993397549762077 8.142445992896668
Ag 8.978061363146086 7.840073761519062 7.549300267186519
Ag 5.446617543414168 9.162217085819314 6.680670816863814
Ag 4.682618970782171 4.16618512707058 7.868002325674018
Ag 7.786315568685437 10.368544429734023 7.409243733311896
Ag 6.876524574657337 3.545684884820815 6.287835063158983
Ag 2.467291984570765 5.297819371238506 6.624172541481591
Ag 9.065574517912777 6.258746893958493 5.330879448508557
Ag 6.526336254570823 6.464524856935134 6.613616430783904
Ag 3.569305996644609 7.587571010504803 5.478672967831786
Ag 9.419274847695599 3.546007817644889 5.240473306207469
Ag 7.256785080334474 4.735218049335106 3.8387725156651764
Ag 5.315452534176077 9.835849774293518 3.99717879697049
Ag 4.6890067488626554 4.7988878552805545 5.058607987984874
Ag 7.726732358568601 8.804561552500568 5.062472760630212
Ag 2.4490797688707024 5.7276814076388565 3.7313616393583775
Ag 8.388626531254202 7.111016820733607 2.8184290849263345
Ag 5.781838143964101 7.091878714069368 3.8079514665877827
Ag 3.4474547203674955 8.127902309823778 2.745657721827381
