24
Energy = -48.54539856 eV
Ag 6.346004053369061 8.15087115393591 3.590775633399473
Ag 6.749354685937114 3.8475935855715355 1.996465589501182
Ag 6.151745322809465 9.771889894022744 5.8487904743307135
Ag 8.335306349658827 7.86888949462352 5.494065682549678
Ag 4.393081290846234 7.531732512678057 5.459003597535129
Ag 3.9187982903701766 9.308671398695433 7.5688915597275725
Ag 8.450449717954433 9.82709427170427 7.564368051262582
Ag 5.100164254963573 5.641159656827609 3.387484849713833
Ag 7.979070018397236 5.836371298876511 3.5002185566688357
Ag 6.086428663255795 10.590973402923897 8.755445004526935
Ag 5.868718195065587 3.2050644982656302 4.561392841274781
Ag 6.519294899201577 5.635822921571897 6.003209153236382
Ag 3.853329483146869 4.770129644197186 5.8453823363240485
Ag 6.440281440439946 7.788039496763503 7.81393025075687
Ag 9.409193544996874 7.268572238699293 8.009100107050347
Ag 9.330896044657576 5.247400188605874 5.982399220634747
Ag 8.614699904449862 3.1553983524137603 4.046253425073242
Ag 4.791599558705652 8.555151248662334 10.12263680036141
Ag 3.931052492583295 6.4816422262351185 8.084035183238198
Ag 7.686368416762822 2.998110106333653 6.6519313439771945
Ag 5.429338506759849 4.068793797819911 8.105546091070982
Ag 7.694161878555402 8.454527329080081 10.123701649918143
Ag 8.024967114060015 5.009690083958696 8.541644563828903
Ag 5.971478002392166 6.062903939265515 10.045779501751422
