28
Energy = -57.53646959 eV
Ag 9.522040856834401 4.362027264435698 3.9781892362557363
Ag 10.361851185998859 3.7805080235111888 6.604441167403733
Ag 7.587776147715923 3.799710042931861 5.889439114354853
Ag 4.244174561804857 5.218713429750363 10.140860875369043
Ag 8.413281667162726 3.6004858221358815 8.643778492842896
Ag 11.027215079299426 6.281475337104998 5.467393921626896
Ag 5.623470550231974 3.675124591133316 8.00916455275992
Ag 4.8127380875560615 4.084759975288773 5.371636777760466
Ag 6.92000244806928 5.228719231182856 3.5271088224839646
Ag 9.226320126349055 7.0457326904586415 3.5465978270923246
Ag 4.120951118745382 5.206918957203868 2.9759048652789883
Ag 8.917876644287286 6.046053380427583 7.286312400468254
Ag 6.192390951776454 6.276851766110526 6.313372888532119
Ag 6.512284626499234 3.56390361288197 10.65528576379976
Ag 7.2489815694733695 7.465410049746024 1.7599822415690698
Ag 3.199862871749073 4.937509389651364 7.567687377834202
Ag 5.27016929344962 7.564247869002656 3.665312101147307
Ag 6.805377361568904 5.90415949159648 9.216423722898863
Ag 3.4186074663262676 6.7323874619475665 5.515949934075337
Ag 2.764563813037129 9.442722203526545 9.132517710711273
Ag 1.7735709618964826 7.280210883694747 7.728454950347761
Ag 7.321372183346621 8.289880567572052 7.955036002976531
Ag 7.415714235862992 9.13988381619037 4.138667410572841
Ag 4.471788393893481 7.436320224479035 8.385870468353563
Ag 9.395219404805106 8.51070095634195 6.016388355298194
Ag 5.216874495129254 8.967228311283396 6.028248970690655
Ag 7.484510393400244 10.597628352869654 6.564251119700987
Ag 5.346765990508629 10.176478784319015 8.531475414572546
