29
Energy = -59.87591974 eV
Ag 8.189115653483489 10.066170545305217 7.612118604246877
Ag 6.770339711119077 11.131435682887016 3.55208312423669
Ag 8.950595098278548 10.050978185478927 4.908039889427337
Ag 6.3124554922344425 9.349748658837262 5.654754925132178
Ag 8.349166848359069 7.933608400461377 9.475152945201804
Ag 7.27144625982816 8.404404090660767 3.1582848931415577
Ag 9.642335074845933 5.790318374929002 8.128632850502955
Ag 5.983348548521647 8.37969576131891 8.204416785895239
Ag 9.915375089387833 7.647531973902778 3.814069580931591
Ag 8.60636663176498 7.594436088070885 6.337786715000953
Ag 4.592106547639057 9.33637142110926 3.5206459941704997
Ag 10.141436602762308 5.339129922448309 5.338156597420286
Ag 5.593348794058577 7.022860914781075 10.670839798914498
Ag 6.917941677559142 5.582321090864841 8.835325507061837
Ag 6.020410718010131 6.388089399459335 6.198918040719442
Ag 7.876893038266048 4.213167609938365 6.666797523708462
Ag 4.036568656402184 6.398027357457921 8.359958315783969
Ag 3.7280896061125626 8.035541904936379 5.919066104977098
Ag 5.015190020838045 6.571832365369045 3.660472187743421
Ag 7.7745255080401146 5.816211975000588 3.917150794344866
Ag 7.015910937215856 2.7894266641869927 8.980121288793784
Ag 1.5485825936052935 6.671175460524064 7.184580628562561
Ag 4.743635898789681 4.282683108819864 10.085444303883765
Ag 4.9366260393522055 3.561232676164919 7.362271926587477
Ag 6.6840373575727545 1.7448351206113601 6.177969542101643
Ag 8.41667988269557 3.129964096491098 4.251722183755743
Ag 3.404679260764173 5.218083665013365 5.7049163139758265
Ag 5.7050044484843685 3.9679953876085396 4.678626089491261
Ag 2.4038138383532677 4.2042464826809125 8.314637560947839
