28
Energy = -57.41857295 eV
Ag 5.838402771940605 5.803115835793033 1.9220598072309059
Ag 8.075586243909916 5.867672984930022 3.5226989653310596
Ag 6.673568895795639 8.434522703124133 3.1770959146096045
Ag 8.98095009387913 8.259564292818109 4.85325814979234
Ag 10.330364336661937 5.674676743145587 5.208271206681241
Ag 5.937841658672117 3.8083211017998444 3.9708139409189758
Ag 3.9273545272162487 7.708772097694202 2.5032957330804706
Ag 8.47922800431296 3.543530894274557 5.029479871356568
Ag 3.4322692081589414 5.037938149099683 3.229611430377332
Ag 10.696243614195376 6.418848894541382 7.857023161793467
Ag 5.476374432211431 6.503784060924258 4.711279994891901
Ag 4.376615907460418 9.451949422991582 4.565402202524724
Ag 6.5570754009358625 8.74033685038565 6.204630923007311
Ag 7.91362395773642 6.179347104668757 6.43907969465628
Ag 8.933509827500815 8.557631494791005 7.751782898169793
Ag 9.205939708660972 4.0100282183720175 7.728791768633287
Ag 2.737152268824549 7.12005393666142 5.059676560867135
Ag 3.8554313824686814 8.702979020639614 7.191881604674945
Ag 8.460450294494395 6.2446937919511605 9.421210988105468
Ag 6.4476533859438785 3.6901720554603443 6.912152557103362
Ag 5.359644643578176 6.342886335761236 7.533561522763619
Ag 6.509737611544086 8.31365757105324 9.089610995212606
Ag 3.904802814315916 4.448641737949413 5.942599569309022
Ag 7.215147419615415 3.6813805369034185 9.609364678297736
Ag 2.51798010741869 6.177188863624722 7.672744969833286
Ag 6.008220084216149 5.941448864679707 10.606518514722618
Ag 3.9019546200646356 7.465693233463589 9.712524032595027
Ag 4.438892453661338 4.17257133236601 8.894669842596084
