25
Energy = -49.956214 eV
Ag 6.990614940688676 7.6347523162771775 3.747032877423834
Ag 7.131640242664304 10.569060755960308 3.8896381473993564
Ag 9.447024217202301 6.47843199691927 4.237313972800934
Ag 7.1056462070063775 4.788889275302546 4.346184102970947
Ag 8.97891539759343 9.064084715708058 5.242524697581042
Ag 4.633467791415776 3.7227876397621547 5.2322241227278505
Ag 5.1740161788756875 6.388329349213107 5.605697043938502
Ag 5.934319000499054 9.063355073911946 5.849841568171332
Ag 7.830426001060668 6.421053049704383 6.57597271580202
Ag 7.66151774143361 11.097131035502036 6.658639982886943
Ag 9.479835893646184 4.19981504379236 5.774550315798453
Ag 10.596326009728926 7.310238659408764 6.607975263712477
Ag 4.810383189566114 4.704455326992634 7.7561159812905265
Ag 4.993525062976541 10.652957798893755 7.944288196402859
Ag 9.874872509206677 5.2464435972806625 8.363655000972823
Ag 9.85724515196328 9.823374734787215 7.841843625079636
Ag 5.7981291764425755 7.6247336644087085 8.148476302322115
Ag 11.469988224225727 7.801691033153795 9.153263707516242
Ag 5.286574780632321 3.4744116289124256 10.14640449207887
Ag 8.751375519566679 7.619845323449196 9.085063729717266
Ag 7.299291661024122 9.948819983703798 9.214561340000078
Ag 7.173180601829987 5.301233359329288 9.255463627078335
Ag 4.339860701442141 8.962918702091018 10.053480926490156
Ag 4.496672862848791 6.146939213047424 10.18359032397511
Ag 6.687347581422937 7.7564433674507 10.888394580824318
