24
Energy = -48.4840987 eV
Ag 9.280330866459414 4.113143240392874 5.509945839831418
Ag 8.017058772883216 8.470871925694313 2.4514660498420233
Ag 8.603880923096098 6.224851859099907 3.979681259384911
Ag 6.747199499728398 4.008511175985062 4.148478550907766
Ag 9.252140406507067 6.616640833018406 6.877887358366426
Ag 7.135422585717815 2.595270537631836 6.583560323738023
Ag 8.636415786465278 4.2672701851500365 8.279694651450551
Ag 6.268266224356797 6.126883521158829 2.337060200673121
Ag 8.853809009919713 8.8008383776082 5.127534108867944
Ag 6.663084443157574 5.529339255330225 6.511968238874085
Ag 9.51819181766782 9.23853870730004 7.7996978851252186
Ag 6.238081030498381 7.880317331885944 4.5069197522733875
Ag 6.942304108835385 6.280393550591071 9.233378273398435
Ag 3.526870792977876 8.105847623577864 3.874745869309237
Ag 7.511557300938827 8.937159283784123 9.864899468667826
Ag 5.944197742434865 3.631709581270941 8.93843997890506
Ag 6.963294471043351 8.345421795896469 7.21702681098575
Ag 4.4535403192426815 5.572020253341164 4.397864925184634
Ag 4.5176742620970005 3.6978744876713696 6.450657245881392
Ag 4.324286997541481 7.605614316165817 6.493652078112763
Ag 4.902428877118962 8.233810943829653 9.195031957448903
Ag 4.115618854276377 5.5821278588598915 8.608857189431744
Ag 2.412465110464306 5.580955342284737 6.317314151830339
Ag 2.268636393226616 7.650908869840575 8.370788614818881
