22
Energy = -44.11936364 eV
Ag 2.2976582248347213 8.966453330828937 6.513882112417359
Ag 5.078549496368446 5.686823675016082 8.909152806549278
Ag 3.7294196059589235 8.11777591918455 8.809937426044288
Ag 9.298344618875797 8.11777591918455 8.809937426044288
Ag 5.1169341403711455 9.02844113866484 6.513882112417359
Ag 9.298344618875797 8.11777591918455 4.217826798790431
Ag 7.9108300844635755 9.02844113866484 6.513882112417359
Ag 6.513882112417359 8.164249704864766 4.117578302888841
Ag 6.513882112417359 6.50330791568548 6.513882112417359
Ag 6.513882112417359 8.164249704864766 8.910185921945878
Ag 7.949214728466273 5.686823675016082 8.909152806549278
Ag 3.637587219057114 6.4715674923099025 6.513882112417359
Ag 6.513882112417359 3.305247493830406 4.220349030433428
Ag 8.001232015819193 4.0369249953921855 6.513882112417359
Ag 5.078549496368446 5.686823675016082 4.11861141828544
Ag 5.026532209015523 4.0369249953921855 6.513882112417359
Ag 7.949214728466273 5.686823675016082 4.11861141828544
Ag 3.7294196059589235 8.11777591918455 4.217826798790431
Ag 6.513882112417359 3.305247493830406 8.80741519440129
Ag 10.730106000000001 8.966453330828937 6.513882112417359
Ag 9.390177005777607 6.4715674923099025 6.513882112417359
Ag 6.513882112417359 1.637931868910771 6.513882112417359
