25
Energy = -50.82017251 eV
Ag 8.376035481221496 8.949382929075604 4.609477295314077
Ag 6.392940345425359 5.5967002419660945 8.603683366444349
Ag 5.749889313649702 7.797357344572356 4.1757817584932235
Ag 8.025278139362122 9.397957293246604 9.926878888069371
Ag 7.999259930207149 6.163633377550303 4.066155842962259
Ag 4.562985657904311 5.343908546603377 10.651997273369942
Ag 3.2000901511470983 6.73487056893455 4.155701144001267
Ag 11.200648624824707 6.074978264841956 9.639992778795591
Ag 7.098729012032045 4.484921519931531 6.104962734433267
Ag 9.983570634536907 8.115086294647588 8.232387779598291
Ag 8.505795435216994 6.587172950977541 10.280454938078895
Ag 5.466193983213383 4.995191951780041 3.769392261898626
Ag 4.002417539668077 7.185385449723249 8.63795473857059
Ag 5.7562656978491304 9.383501474088417 8.245666008449806
Ag 10.484351233129928 8.46220314885186 10.977512428524951
Ag 6.114754904769615 10.220098764002236 5.5940981203896705
Ag 7.364371091535217 7.498167041156762 6.766251992984448
Ag 9.740922826075007 4.272195992885196 5.276649826060425
Ag 10.071540547418316 7.027389946522441 5.706977454701521
Ag 5.982973843401652 7.6841214048398525 10.525419367733585
Ag 10.370672565649075 10.68135819168808 9.233182782454056
Ag 3.9329378221875264 8.545343524434049 6.183016248098077
Ag 9.15172101985819 5.373849878997141 7.806875330889194
Ag 4.735939584631692 5.873578973091185 6.2910412783203125
Ag 8.38876933020319 10.210699640710876 7.1975430764828126
