29
Energy = -58.81677077 eV
Ag 9.448421905855064 1.8022526292092227 5.492540911984904
Ag 3.059359000819119 6.777368249867405 7.186738569892516
Ag 5.795892591986487 5.293812006451099 2.8448075044982923
Ag 8.261204991547181 7.62402497158924 9.245268187801802
Ag 10.450387605697934 10.811115399766734 9.628034068956234
Ag 5.601225003355788 7.809740003715221 5.3331862523163736
Ag 9.78240175129584 9.17675474857692 7.53867438859846
Ag 4.992422584540261 3.155873492994034 4.712203442056311
Ag 9.649927235397758 3.0556092219491844 8.016191177258742
Ag 8.333204247481445 7.180776150808563 6.290034826834115
Ag 4.748948531157947 10.3018415950771 4.542210527679946
Ag 7.699828401987724 3.283055578750712 3.821003078075372
Ag 5.805533849898193 11.81507410322883 6.698337922392357
Ag 4.492361243369702 7.869756613707704 2.874614795999939
Ag 7.083487778654402 2.7211857028637083 6.626739594417927
Ag 4.166559330461262 9.4352995992407 7.178702740286627
Ag 3.7586856407701825 5.5700859382349694 9.582221299055213
Ag 4.724069935429527 4.3661997179419485 7.305900300001239
Ag 11.035396402116623 8.115058740703303 9.782145355932409
Ag 3.7355221069880815 5.715498002852455 4.702632707170397
Ag 6.589919191132312 5.277063594824669 5.457280942174467
Ag 7.6320801226618515 4.984317153175889 8.214951005799342
Ag 2.6868845312611476 8.379297028672024 4.966376046560393
Ag 5.704523428765172 7.071068319443666 8.03618272409571
Ag 9.298449456707418 4.597797501847633 5.752241450399615
Ag 6.362317871594035 6.034403165541496 10.477260797921158
Ag 10.27694845992539 6.05918092545829 8.00590637537811
Ag 7.012092823440314 9.440802141119544 7.116363965491411
Ag 8.389710326291553 11.634327217574121 7.955423919020287
