27
Energy = -55.74377604 eV
Ag 6.239301195823882 10.533753789404338 9.485677686399221
Ag 7.128274033046313 10.576531340348307 6.796332178949915
Ag 4.926681041615294 8.89002031704206 7.695033447506974
Ag 7.281332292396361 7.905936580774748 2.986119845047015
Ag 7.804668074579313 10.509896849113337 4.01611467889156
Ag 5.663701520795743 9.0367750120678 4.966025474412266
Ag 4.448956043922757 7.569529548892876 2.968582875647365
Ag 5.553423745450113 7.943753724441555 10.319702514716774
Ag 3.66737362144221 7.2609759300337435 5.781750459456958
Ag 4.095911470816863 6.27677343108276 8.45605749907
Ag 7.693088411530547 8.351789489584178 8.426896471111249
Ag 2.9416710290407413 5.38079011095504 3.9117036067960234
Ag 8.409894046272342 8.330921648515853 5.607497613337172
Ag 6.294618173599726 6.579729630479812 6.584206562699566
Ag 7.31839416596066 5.87556738393898 9.56190862899654
Ag 4.957287047336292 5.258354040688317 10.955448090719363
Ag 4.235506474629958 4.5360580821917695 6.1990426901059426
Ag 5.826960915874391 5.351988858606064 3.895710635658298
Ag 7.715557409887153 5.483009782326822 1.7471593980920759
Ag 8.583861388786994 5.850283610405884 4.422186994610007
Ag 8.959254063778 6.070817556431478 7.220325430551082
Ag 5.565699183846669 3.8536351143780787 8.559025772947262
Ag 7.052363481286583 3.4101922942766008 10.869140403930638
Ag 6.938574166509117 3.847334484285416 6.080113159626113
Ag 8.492288207227435 3.576799830091225 8.45772176137281
Ag 7.845977062355323 3.335100406168433 3.496670019945635
Ag 9.671221132459712 3.6990810626079105 5.842808613309899
