20
Energy = -39.22701149 eV
Ag 7.179299899505935 5.131200067126272 10.701146031156611
Ag 6.338442724058369 3.6872989428410756 8.482841730076336
Ag 3.6375676741032725 4.444305942865554 8.43974588185232
Ag 8.427392489254572 5.633131225830068 8.314463778658833
Ag 5.643553848918214 6.418022335430533 8.724613755906297
Ag 7.908923187519087 3.663539739790731 6.217042924801063
Ag 5.128291212488287 4.360704530458412 6.063704098806949
Ag 10.42667483578214 4.796976639689762 6.621175978646766
Ag 4.728704103661767 8.941134276243337 7.888600029791692
Ag 7.628152527628701 8.262734732402317 7.906880473188607
Ag 3.437990909195107 6.626471099212818 6.856944781579173
Ag 8.534903507584888 6.51223365867957 5.646864523216368
Ag 5.989949094225183 7.466841442237297 5.886948612349001
Ag 6.940685153059371 4.93558855109494 3.957284862251078
Ag 4.609524295095528 3.717039129372703 3.260341773394892
Ag 4.149890669288333 6.256995227073775 4.131226390855318
Ag 3.681373170281579 8.815771739563331 5.170596480257819
Ag 7.1469215539629225 7.553448455431493 3.347279748241461
Ag 5.5102791899423975 5.930969066617604 1.6926100428423445
Ag 4.6278244583891155 8.467035108435645 2.4991911467194705
