27
Energy = -55.11890603 eV
Ag 10.990070038485241 4.2817710037967505 6.719903855533272
Ag 10.401254462428476 6.650214649468604 5.490013527187416
Ag 8.532328010794739 7.231373705858452 3.4833031455080885
Ag 8.645125300832952 4.558542414310062 4.764540338933732
Ag 5.785578035910368 4.342693314999744 4.027541019572816
Ag 6.73872126901174 6.530006222022113 5.479293512824063
Ag 9.302989295422805 9.169528152591687 5.419382982559932
Ag 8.663997712139567 5.5352227581529405 7.397025608520846
Ag 5.8445166127958466 6.9046638851822975 2.7885435593592076
Ag 3.4100647102204533 5.492121694231654 3.2305140700569765
Ag 6.510173554558886 3.806342525805548 6.640145126562222
Ag 10.177134126830298 7.904988540378728 8.065991504938822
Ag 10.497125740943318 5.319909914115318 9.36713905359538
Ag 6.016262744765256 6.204480701246671 8.175285609645877
Ag 6.546407935178533 9.11286174154933 4.581895553444561
Ag 7.327399399592424 4.096850057301504 9.381397066243954
Ag 8.164550618348512 6.85842947175465 9.857786435942334
Ag 3.818918648034814 8.016766566806586 4.264875887684689
Ag 7.535513284350248 8.52105068730846 7.390431051781169
Ag 4.43226222715717 4.027844650990039 8.488316410167627
Ag 3.96169991525398 5.611383086046043 6.011993564899739
Ag 4.8334210651862195 8.474439970008401 6.811061200049023
Ag 8.486902595277856 9.567260415555449 9.774225973002226
Ag 2.1210826804127683 7.980029047693053 6.435166458380061
Ag 5.744835383110486 8.68352259202841 9.537010689942127
Ag 3.097842488924477 9.400022752929784 8.772240095270856
Ag 3.365986927166203 6.669844261001359 8.597141481526494
