23
Energy = -45.95177586 eV
Ag 9.680870035697811 8.656819321129126 9.01786288922975
Ag 7.370312318951785 7.063101316972157 10.522184086185968
Ag 7.01549416823724 9.224381823526738 8.408343218910135
Ag 10.579437726289681 6.285135787134737 7.177741946653191
Ag 9.026607960970715 8.7096089770414 6.312443689761513
Ag 7.979330739745445 6.677206433155943 7.8919011406470885
Ag 4.330833408221178 9.35344421142432 7.671715232019035
Ag 5.221740774468293 6.963091625429375 8.74739410097402
Ag 6.604353714341963 4.593730881172865 9.125633336757229
Ag 6.214607709694241 8.117330477326309 5.8283435410160624
Ag 8.573887510701361 4.090626958878043 7.062726425310488
Ag 3.5305182425273673 8.863398015964169 5.028732372035022
Ag 8.691226607576446 6.070553591707027 5.132757993465124
Ag 5.956469754068547 5.367443914340097 6.2728263433811025
Ag 8.170692452602372 8.376260154755528 3.6993527564828486
Ag 3.979681210799877 4.403650526745326 7.9803184413982144
Ag 6.059103679348374 2.681631369997863 7.031379564240671
Ag 5.436108723743277 8.370555656138729 3.0425068543696687
Ag 3.2574671527319303 6.826360063321295 6.858045096612015
Ag 7.2325206420743084 3.5745955571445913 4.570785785807423
Ag 6.711585119471638 5.951664317601489 3.2587522109643436
Ag 4.099299011733341 6.178013575912652 4.266429432072112
Ag 4.21571560965642 3.496206552650719 5.0346262678652005
