22
Energy = -43.49670831 eV
Ag 6.72441292629471 6.72441292629471 4.258369517791576
Ag 8.26455376161639 6.72441292629471 6.734009191483169
Ag 6.72441292629471 9.070288974573288 5.960469251894654
Ag 4.337241470653385 8.247291906083543 4.628562275142075
Ag 9.111584381936039 8.247291906083543 4.628562275142075
Ag 4.342923187748259 9.20264675166858 7.5229000800746215
Ag 9.10590266484116 9.20264675166858 7.5229000800746215
Ag 9.099687433377722 6.72441292629471 9.328260562312268
Ag 9.10590266484116 4.246179100920838 7.5229000800746215
Ag 9.111584381936039 5.201533946505875 4.628562275142075
Ag 6.72441292629471 5.262371636926929 8.722252547362787
Ag 6.72441292629471 4.378536878016132 5.960469251894654
Ag 5.184272090973019 6.72441292629471 6.734009191483169
Ag 4.337241470653385 5.201533946505875 4.628562275142075
Ag 6.72441292629471 8.186454215662488 8.722252547362787
Ag 4.342923187748259 4.246179100920838 7.5229000800746215
Ag 4.3491384192116955 6.72441292629471 9.328260562312268
Ag 6.72441292629471 9.293916173251246 3.2060151190132906
Ag 6.72441292629471 4.154909679338172 3.2060151190132906
Ag 6.72441292629471 2.5603908525894226 8.043743525058392
Ag 6.72441292629471 6.72441292629471 11.083365045577068
Ag 6.72441292629471 10.888435000000001 8.043743525058392
