26
Energy = -53.59808947 eV
Ag 3.885322428207465 10.808699572143137 5.919768770241923
Ag 4.349914297603052 8.002755236774284 9.57499994223559
Ag 3.8729043736036974 8.17455697376965 6.873981337149978
Ag 6.155715658596982 9.215048725531469 5.438841698558155
Ag 5.948696568551415 5.896185643602721 10.45078109348189
Ag 4.421419592690955 5.5957866330750035 8.040191874933077
Ag 3.7811947524529956 8.643722379222151 4.078478566607418
Ag 5.525776489929543 10.14435195485073 8.067469562278633
Ag 8.747917846313708 5.848576944944158 9.834294622687311
Ag 8.179852238027355 9.859085226330077 7.166730114058077
Ag 9.744636925969756 7.727194102010954 7.979325970876586
Ag 6.515016325424054 6.512182550227347 6.599616940493691
Ag 10.596657070778255 9.372512246965856 5.905832491179099
Ag 9.43768634121624 3.238987420488181 9.112155359167692
Ag 7.131691468577937 8.036045691490125 9.049483532270417
Ag 4.0169754094940835 5.980301668183767 5.178548803351503
Ag 3.864922257138604 6.464542015069548 2.39469912927957
Ag 6.8684026758738534 4.156764950284585 8.544470760491835
Ag 8.639149816676223 7.564448307812639 5.29907854311604
Ag 9.154908430355354 5.1997268080628585 7.099077874276959
Ag 5.417410406903423 4.327219289365828 3.2811949544359527
Ag 5.622331032362569 3.779084041367459 6.09754677131649
Ag 7.876876270591501 4.818269524126349 4.678179548623581
Ag 8.225907753815191 2.6081324334201827 6.610514499482545
Ag 6.252793025102533 7.029220194223375 3.7433291260770916
Ag 6.971547083782299 2.202226006695717 4.1870346533678005
