20
Energy = -40.45096367 eV
Ag 8.68657610680241 4.080368147817905 5.519472710158237
Ag 5.931435872960662 8.563458891432772 5.490550271053285
Ag 6.619861231523711 4.635471435101055 3.7024079700861066
Ag 6.315012752157535 2.602256326883417 5.627871181850285
Ag 7.675284262319627 3.2811350009827387 7.945909255348542
Ag 4.073556091756167 4.050348567220211 4.826746871684935
Ag 3.6582587224017993 8.157057479064614 7.001228739431082
Ag 6.194032837288236 7.886472345308134 8.231467825168528
Ag 8.442479588578061 8.75074599638554 6.729401322057149
Ag 2.666904079454388 5.557805762917072 6.7017968084504576
Ag 8.476706928087008 6.035603587128344 7.557168324366709
Ag 8.0942657747979 9.32344609299964 3.967899769041636
Ag 4.666741870957608 3.7564141159224396 7.654004777551555
Ag 8.22058056761203 6.707914390742901 4.815816000371255
Ag 5.908155579140259 5.779916133128534 6.302468825051313
Ag 3.881942962104956 6.354982524486895 9.062613462838705
Ag 6.182130674234375 7.318807988406402 2.993495369294105
Ag 6.392170033506291 5.288393588857473 9.292670409689126
Ag 4.289737171108828 5.237646001095564 2.3000017408415907
Ag 3.8625302047333236 6.8701189356429815 4.515371677190443
