21
Energy = -40.90932384 eV
Ag 8.722442987628668 5.624558197126592 9.685137311375591
Ag 9.170993340370023 6.875563971983112 7.232807016883454
Ag 7.334574807266805 4.438048943662876 7.670435247622098
Ag 10.576741520088698 9.30219973807308 6.7422775557478385
Ag 7.536822643181694 2.9491842002141873 5.307591028173005
Ag 7.943535425386743 9.357146053597084 7.510806943555716
Ag 8.714941259694971 8.348391303574635 4.894958618155309
Ag 3.102603283666863 3.961729693628841 4.292208045109743
Ag 6.616258658288254 7.258843840759401 3.276719448941407
Ag 6.129113693056061 8.011022351536962 5.947357623968262
Ag 6.676597524944098 7.143826968086687 8.63127145786474
Ag 4.833246407888385 5.014528031214589 8.673916844726714
Ag 8.086813954797414 5.6168121580996235 4.847711296963431
Ag 4.107057376560115 7.595093230154495 7.847901018238866
Ag 3.496539000357248 8.827502907850608 5.430828339350439
Ag 4.31156731836355 6.3998469303286605 4.526154613790366
Ag 5.0832563079762405 3.8655133862006013 6.159982022622088
Ag 9.842058281190896 4.314745303327121 6.506184461046968
Ag 1.4764799374076631 7.821580045619734 7.112297600097156
Ag 2.7942815590047645 5.412987911178135 6.704995478338109
Ag 5.9593566707714265 4.419834728166914 3.454049821927201
