24
Energy = -48.67571194 eV
Ag 8.6976408908377 9.675075972891976 4.175051480478089
Ag 9.448476416808688 7.44364464020133 2.7810272941718845
Ag 6.745425091766998 7.67219709341702 3.523662978843607
Ag 4.209050715199565 7.876456687812994 4.620706178444856
Ag 10.746630035272762 5.834771198826423 4.559230262943243
Ag 8.068429055766607 5.2344014595904955 3.9787734198304197
Ag 5.260214181841419 5.2734215575788115 3.834117279881848
Ag 6.463084795068485 9.293674384724065 5.815488149455989
Ag 8.692687633814844 7.418700020358537 5.7803260337324325
Ag 5.9213305475488545 6.417416054944562 6.264096666355517
Ag 2.965794294538521 6.504946421430682 6.665912297932107
Ag 6.231441193251453 10.648480321880042 8.232312073004477
Ag 9.218613771519243 4.743688674739383 6.575537507430622
Ag 6.684337662840001 3.718401919178353 5.874464119928932
Ag 4.373019410524627 8.685937082265104 7.598756864767044
Ag 7.114206944536628 8.049470254053238 8.302976582218625
Ag 3.9299067254071907 4.027241702440463 6.011009065430838
Ag 9.672961451851538 6.878190349642818 8.404220955931153
Ag 2.284713990761353 7.288965331233851 9.18820557311273
Ag 8.02453524973868 2.7180012033531864 8.13006298977049
Ag 4.833805086031405 6.265584937074576 8.961073332337767
Ag 7.4157710464463635 5.3345295414344465 8.619050385262184
Ag 5.299093466876886 3.531155118920904 8.43142943098497
Ag 2.7182228536327093 4.485040583888523 8.691901589632401
