20
Energy = -39.44070666 eV
Ag 11.521470386907788 7.879000334399167 7.644226753768672
Ag 9.79958507628357 5.803265282385067 8.16666833153645
Ag 7.822606689636945 5.156278423353693 6.284248400242161
Ag 9.992453056433353 6.813213890904691 5.485624268700851
Ag 7.862987863879063 3.8747459738879364 8.762481494899019
Ag 8.093741988713168 5.707428663019274 3.615787473754654
Ag 5.5989834974266905 4.735814268501605 4.622142222122273
Ag 8.780070170279242 8.32274874868962 7.569156952427535
Ag 5.460559784275277 4.089146208227241 7.303172448224892
Ag 7.034656867259036 6.505549070849988 8.849372562105188
Ag 3.0548313281350223 4.828982327608928 6.18436224596147
Ag 5.6410025930119545 7.077979767367245 3.0997502638936494
Ag 7.456490472699166 7.90219423351768 5.129035323578689
Ag 5.341495954504626 4.60866816641732 10.00540563438199
Ag 6.024759067502686 8.61274149563004 7.4178430796074535
Ag 4.230016822512889 6.517333314038341 8.332117795994604
Ag 5.313592414563877 9.597570771092105 4.83770890063863
Ag 3.1567669442565642 5.752622971247906 3.548288508746975
Ag 4.29712480395697 7.185149003413988 5.568120992730294
Ag 3.3053230704189533 8.964545847296124 7.3640506847671015
