29
Energy = -60.55061508
Ag 10.655602000000037 12.84001754062633 13.364441266480927
Ag 12.083157370181816 14.537440290510276 11.367337010821226
Ag 10.655621000000165 14.283497502627704 8.902572368683858
Ag 8.18292533756689 13.023072004053123 9.233394730371055
Ag 8.342363345922097 10.499633580648494 10.40242208366498
Ag 6.40675847246218 8.691077984498058 9.60641005822944
Ag 7.695665551722613 12.472756009854615 12.277341561728619
Ag 5.879233609853497 11.522588291625661 9.926061784605551
Ag 7.777286359049359 10.592988404971592 7.75054662186806
Ag 9.162596620233234 8.253855351441736 8.705774822854277
Ag 6.4378890270397005 9.95558696536833 12.346887055183645
Ag 10.655597999999983 10.71291552075814 8.341599261415599
Ag 10.655644000000043 12.140838804830327 10.749788131797763
Ag 9.22805462981821 14.537425290510198 11.367362010821203
Ag 13.615527448277277 12.472738009854766 12.277332561728544
Ag 10.655602000000036 9.267400230674873 10.96337120164453
Ag 12.968814654078178 10.499624580648565 10.402414083665034
Ag 13.04116469355903 7.875263878573071 11.59893949844693
Ag 9.16773459884475 10.269731740931627 13.217039116749493
Ag 8.270097306441098 7.875343878573028 11.598930498447002
Ag 12.143491401155224 10.26979874093161 13.217076116749473
Ag 10.65558299999991 7.800573230177132 13.279981943114166
Ag 10.655589999999885 6.579160165351265 10.546411137816516
Ag 14.873321972960197 9.955628965368339 12.346920055183723
Ag 12.14865037976682 8.253820351441709 8.705785822854303
Ag 14.904387527537985 8.691076984498235 9.606353058229356
Ag 13.533925640950661 10.592996404971545 7.750579621867988
Ag 15.432004390146329 11.522588291625661 9.926051784605498
Ag 13.128212662433025 13.02307400405307 9.233379730371126
