22
Energy = -44.2470379 eV
Ag 4.2081080876170835 5.335480416303342 6.579199037218141
Ag 6.579222336127951 6.238293513690112 7.975956960569088
Ag 6.579006551974666 6.366037427562274 2.440962074436282
Ag 6.579063515895685 3.7626370169277483 6.579199037218141
Ag 5.1045555090091455 4.264347789166079 4.045713309743604
Ag 5.1045555090091455 4.264347789166079 9.11268476469267
Ag 8.05349021102769 4.26393587158133 4.045892228204673
Ag 8.05349021102769 4.26393587158133 9.112505846231603
Ag 9.067697990901983 7.010248362444403 8.917269234259114
Ag 6.579463096511058 8.787046987363773 9.005611301458131
Ag 4.090753686409595 7.010607179221182 8.91720303153168
Ag 8.031479433470423 8.31982372114341 6.579199037218141
Ag 5.1272488184397575 8.31984798905015 6.579199037218141
Ag 6.579222336127951 6.238293513690112 5.182441113867192
Ag 4.090753686409595 7.010607179221182 4.241195042904603
Ag 8.950216691839355 5.335320237306412 6.579199037218141
Ag 6.579463096511058 8.787046987363773 4.152786772978147
Ag 9.067697990901983 7.010248362444403 4.241128840177167
Ag 6.57928284311596 10.62802281226842 6.579199037218141
Ag 10.629980956918683 7.579896624803237 6.579199037218141
Ag 2.5286197075781245 7.580315738938229 6.579199037218141
Ag 6.579006551974666 6.366037427562274 10.717436
