26
Energy = -53.23349205 eV
Ag 7.631555561245915 8.687245430840244 4.571534450994134
Ag 6.125545625198304 4.629806401707539 2.4016101761522504
Ag 8.052542839497532 6.032912914247898 3.8508204412708094
Ag 10.367143733520306 7.492732234141855 4.022117372360148
Ag 6.380998038881363 6.595061262919303 6.289682699219559
Ag 5.3586860242378656 6.992467974600747 3.745732329961902
Ag 8.679221126569413 3.3883270389367124 3.3870938015058862
Ag 5.034449931240257 9.056341998647149 5.647103331907077
Ag 3.8140470600428094 4.673609764928446 4.077222276265571
Ag 4.891614242710591 10.66641882943489 7.893450183071685
Ag 7.337306635149877 9.195931595799903 7.336489686944503
Ag 10.297270258541277 4.944071393656142 5.175989946064492
Ag 3.1119792687993035 6.966646156699846 5.526326265965879
Ag 9.16694083966369 7.195394353419508 6.478425028439946
Ag 2.7024744790119133 9.044588921486508 7.394925321442064
Ag 6.376807343070053 3.9524773672545686 5.04909826049809
Ag 8.830268510778058 2.8272151305986726 6.107972281769988
Ag 0.7408201309230819 7.205030712478243 6.88968283423866
Ag 9.620355105187352 4.776745462159996 7.93752114947036
Ag 4.292272909858044 4.753623756030662 6.863823566088029
Ag 5.036983638702679 7.957109606886554 8.48169160239511
Ag 7.6532598242990035 6.718767875231319 8.791616436895795
Ag 2.7375318677441833 6.40126299134182 8.60935292751444
Ag 6.911350718146342 4.103914056608991 7.712714034246628
Ag 5.168097981633819 5.394858519656037 9.523594864928684
Ag 7.7271136374529 4.394075582393141 10.281046062494049
