24
Energy = -48.2274634 eV
Ag 6.43304557376513 6.287603588017073 3.5983897883090634
Ag 6.395759101593025 6.284332233239613 9.188501459124339
Ag 7.917093819041927 4.296289395713556 4.888213041803466
Ag 7.8653862096474185 4.3007006903243195 7.907973392120034
Ag 8.8041812213153 7.024723099326674 4.877578971088373
Ag 8.784897505079512 7.090941305429895 7.952218253661037
Ag 6.377480605649786 8.799401154890544 4.863632524106448
Ag 6.370034068651893 8.794593754039497 7.961086415783474
Ag 4.018227736141763 7.04079527959838 4.867122319488804
Ag 4.036910383632897 7.041850139819756 7.919020594592822
Ag 4.981534868234225 4.305929197568011 4.876615076873626
Ag 4.96065832916371 4.260066429285125 7.858013994092426
Ag 6.415186920400617 6.348587175720376 6.39202770481283
Ag 9.222078335348591 2.40902304332436 6.4536409959355225
Ag 10.174256134091003 5.0767477133185075 6.460817336901331
Ag 10.98561337220888 7.778552291169823 6.4336998813122666
Ag 8.754716706878009 9.447244684054098 6.264752492381227
Ag 6.341612452956602 11.11264751673265 6.4299069407868705
Ag 4.076552266858119 9.440898516167925 6.412720701698664
Ag 1.817406950278078 7.741515840855157 6.432981417578424
Ag 2.662275754920634 5.053566931511675 6.434319983752305
Ag 3.5919852040307227 2.4058178321964294 6.2529255878667
Ag 6.423917711930843 2.3237465771328503 6.3283065411375805
Ag 8.15460567899638 10.844029738457483 8.502221936867976
