28
Energy = -58.15814914 eV
Ag 7.953116802323888 10.53050481139946 9.022800773140665
Ag 9.35263868161157 8.31712818475058 10.050868364206522
Ag 10.29673321835629 9.578636661345744 7.67880382073057
Ag 5.4455453916240835 10.305041259737333 7.812826393928691
Ag 6.7251100961481365 8.043224030567016 9.034903933583196
Ag 7.75472912003251 9.345409190230598 6.4726823660828545
Ag 2.991097500476476 9.938837705889883 6.658485580568182
Ag 8.195524321452513 5.80199825338015 9.910408000140317
Ag 4.230465670213605 7.683293920197304 7.735118366575087
Ag 9.312623492996503 6.971636240505824 7.578347799306484
Ag 10.021381372561395 8.298472818330824 5.178043126278268
Ag 5.188024784868351 8.90259083932394 5.297934410371343
Ag 5.610347431086747 5.414278179969423 8.751707626410777
Ag 6.597763090383434 6.626349443626115 6.3987546553094825
Ag 2.747651758793265 7.420001908010838 5.27556771896198
Ag 7.042803980044489 3.2558247622757177 9.74262544401523
Ag 5.042400246801761 6.367126963134913 3.9312456803346727
Ag 8.121754288019249 4.397113296639585 7.419509922041208
Ag 6.6994429020202535 4.0643960186206165 5.034973756917263
Ag 8.997672980272716 5.7026192224515 5.018015065377042
Ag 7.509865005705867 7.878792884354953 4.001846181146943
Ag 4.015286473398952 5.138874614318994 6.463631108536572
Ag 2.6823019202652953 4.905336048045339 4.029874379886869
Ag 5.643415534420784 2.9242890089538713 7.330165851416212
Ag 7.394364562613908 5.416816622973039 2.7007805042726436
Ag 5.124909827271351 3.715047876802808 2.818045027673459
Ag 3.9824166536888796 2.6969867929455753 5.161147779741617
Ag 6.35084660031547 1.4345817200734816 4.514625958356961
