25
Energy = -50.90377883 eV
Ag 6.087464627031796 8.732964428348588 8.823505016045848
Ag 8.413445312954346 4.8309903367454865 9.253086113704706
Ag 4.185395013005517 9.771582028252242 7.158939535083163
Ag 4.6315738327513305 6.832831487147482 7.300615148678693
Ag 6.400677527537064 8.725711004492206 5.737414970450479
Ag 6.706057226265739 3.1675642443145064 4.9190554632348915
Ag 3.966920924606908 7.816008619810144 4.868374394654129
Ag 8.74471304511623 4.424010659138182 6.40618582416658
Ag 8.597270038583929 4.793316140254168 3.6896552339173687
Ag 8.725043819027842 7.335990894824993 4.973046587888837
Ag 8.617462128946988 7.666548314448095 9.9351700184603
Ag 11.04857710616227 8.533910247200826 5.86589202273061
Ag 6.204585453175311 5.936252891342489 4.947928622990124
Ag 6.890742260193486 11.038418770808166 7.376182205365815
Ag 6.423554867918081 8.591376668869003 11.521522194498846
Ag 7.901577515411455 10.52858881802933 9.983236202895734
Ag 7.609625361041535 5.919176012578863 11.779102631908277
Ag 9.017004494079103 9.188276319305874 7.719419851393942
Ag 5.097290157779683 11.082301720316234 9.659406970610068
Ag 5.839774118762458 6.06987922158469 9.7022041163943
Ag 8.711614934995767 10.205419252610461 5.243465552506809
Ag 10.916980132980317 5.636889504256908 5.013433030967746
Ag 6.059216967721995 4.302166670310656 7.432015064904789
Ag 7.443750999332916 6.729653046666566 7.455424546988191
Ag 10.189442575717038 6.569933139442952 7.665479120658719
