24
Energy = -48.64197436 eV
Ag 7.528388694495275 3.457006893454845 2.5539466366309727
Ag 5.07853257248315 3.5358235327492302 3.6131191333046107
Ag 3.396530231661171 5.726326575308673 3.8723152428039214
Ag 6.468082023582361 6.03770310421528 4.002800259371657
Ag 7.390865591310899 3.7585458680723134 5.438636779742618
Ag 9.191786338565816 5.237315940503253 3.6407847412692163
Ag 2.2812388349888897 6.034668645929854 6.496131052642438
Ag 4.797528203544409 4.8258439895395036 6.059449017186951
Ag 4.33202904479002 7.6139287052853195 5.674545594449441
Ag 6.548884197263064 4.525645391295373 8.104198913534747
Ag 3.871778342601749 5.196227822452852 8.678055837548465
Ag 8.987898942343945 3.3784336141957487 8.060851475304311
Ag 8.927812099375146 7.771860435844646 4.706563947254584
Ag 3.436937575609127 7.9550260980578225 8.36976596974487
Ag 7.0042778772621626 7.075288966706242 6.712456485143875
Ag 6.421352000023838 8.915173543579433 4.478149026909476
Ag 9.385622428040321 5.494946524918059 6.3957581169737905
Ag 8.572672950858495 6.120483976575435 9.071546478721814
Ag 5.541824663792574 9.492029820820678 7.31903572509375
Ag 5.868553120361679 6.926138339181756 9.48159831484551
Ag 9.75274568954407 8.024853475681567 7.401156453043988
Ag 7.684456095037395 8.984689834774889 9.058301594117546
Ag 8.118037305435486 10.007873968911714 6.373932473946646
Ag 5.074761303435948 9.499885977084165 10.053709466488504
