22
Energy = -43.89348165 eV
Ag 10.168992501063993 8.069068414583784 9.25839607371927
Ag 8.222127825958948 5.292599357382112 4.746368522441043
Ag 2.038815586523206 3.776558429585381 6.560870777288711
Ag 5.964893959077627 3.6900037310809717 4.775477311567956
Ag 5.891650282958713 5.284440692880519 9.08663080288894
Ag 5.412183137975823 6.420981121730888 4.021140510605911
Ag 11.368527462512748 8.23250737814232 6.741766281895824
Ag 7.4503716915627445 4.145571109652757 7.09092257752021
Ag 7.019828523556304 8.779920278537018 4.752788084670974
Ag 9.635959034273641 7.75475189750674 4.664177649964705
Ag 7.735853365766703 7.018355480462562 2.667878259654255
Ag 4.459026305552258 7.6317495696589965 8.553854412707345
Ag 6.146517464103843 9.647951065804543 7.552040983814161
Ag 6.537664671159703 6.81924626948575 6.743360968518252
Ag 8.767350340543478 9.025347333321754 7.0039622988849715
Ag 7.412088193637363 7.650176220255962 9.230833434929943
Ag 3.0697197789935093 5.073453493396874 8.805447660696558
Ag 3.3681474554107202 4.346242321227197 4.08611322369928
Ag 3.825981779110667 5.889168554679122 6.302845436643818
Ag 4.75000901701443 3.3744562533857456 7.315121166132661
Ag 4.428681888703257 8.48597007113883 5.717542220705684
Ag 9.312899906561645 6.266139928619785 7.2430756578783795
