22
Energy = -43.61537496 eV
Ag 9.84171815103722 7.622221636804356 6.78631577279832
Ag 6.534777808505408 7.259031524194132 2.4845525989794206
Ag 8.699508822563358 7.230206647658091 4.251390752248259
Ag 9.112076179885674 5.009107736552364 5.902349892665501
Ag 9.045551305303844 9.807524162357927 5.271790980379588
Ag 9.875282855672658 2.463124542809681 6.475841195343412
Ag 9.270271634205773 5.737832717431911 8.761510000375033
Ag 6.35859514954631 8.775890856298561 4.7585220815149025
Ag 8.859047415268734 9.76327895975605 8.21562502079437
Ag 6.860954134752472 10.805469118701577 6.549480045435479
Ag 6.45100878776429 5.632734699776004 4.684267730820257
Ag 7.597765295537306 7.799458483015956 9.684106363951635
Ag 7.750729491690962 3.46224029493401 7.780039308320858
Ag 7.191367376288502 6.746545164032497 7.102869129271368
Ag 6.088157225413149 10.005186175747959 9.062640548006
Ag 4.4365022039919255 9.6340637755254 6.791723153935738
Ag 4.381307575826507 7.005909930990685 5.855113187927787
Ag 6.485267316111473 5.2745466481641285 9.560638860887263
Ag 5.449795215094955 2.7451799399899524 9.069963490711913
Ag 2.4321515705935344 7.930040513946672 7.5452908548960265
Ag 5.2376883969608246 4.703419476651443 7.108399773258889
Ag 4.909218776960375 7.437560852855574 8.68214520912952
