28
Energy = -57.52326546 eV
Ag 7.951854408246407 6.03776630383155 3.430442723929076
Ag 9.566527787243295 4.85553093294543 5.6839091516321005
Ag 7.425134305248013 3.4166223699215537 4.769648753158218
Ag 5.296790321534873 7.4479935087381595 3.0359311748725535
Ag 5.32342079133494 4.676997124857804 3.5605391445482653
Ag 7.3319348976783925 8.909421220491602 4.163088330173944
Ag 9.346412587683202 7.660177318512213 5.521539448679511
Ag 7.609470692664563 3.5394542834890985 7.556405525966132
Ag 11.182627933845884 6.560714853655467 7.323262339384521
Ag 10.197637604387038 4.171851964907355 8.423574501532782
Ag 6.641368711531061 6.378149200914519 5.759749759609283
Ag 8.3933022294051 6.2763533022177835 7.846524478158308
Ag 2.9081933125091792 5.865397535252152 2.780972518847837
Ag 7.19043346593454 8.903218568452226 7.054664144579094
Ag 4.88827877275705 9.167230609689446 5.473025085129052
Ag 3.952304923521825 6.4552840116380015 5.334688214659673
Ag 7.981025337360803 4.728918853718758 10.164652714199852
Ag 9.931769461475998 6.725567179944976 10.05791092860998
Ag 5.1284006155140744 3.971236312621155 6.374534961463098
Ag 9.698288567640288 8.80603987739293 8.197693769547904
Ag 5.6047114033721295 5.203766726382951 8.830181398454078
Ag 4.84797069400629 7.685521227591145 7.935628377923262
Ag 2.6981463788934086 8.47590266029978 3.851411735603991
Ag 2.796198048498264 3.9174464612633697 4.866843972065575
Ag 7.005069402124563 7.612066753048945 9.75308728158484
Ag 1.243721218043925 6.2355531912132385 5.272237375817345
Ag 2.4185378066861154 8.330486609270698 6.731512915973887
Ag 3.0010694339995685 5.476413405668316 7.701168336955031
