24
Energy = -48.46403419 eV
Ag 3.0152217807764865 3.50962412678629 4.485006917086054
Ag 3.4705149907342565 6.423345855078235 4.677821135810804
Ag 4.8558747176512265 9.007777049701673 5.129463517480785
Ag 3.471140174227742 7.686872445376623 7.240023765771963
Ag 5.621032762629501 4.435184234554522 4.395027972392721
Ag 3.8658160085139555 4.666658486493421 6.893161475100856
Ag 4.2909645048426635 8.525444516397071 9.912885447579917
Ag 5.2502161092796715 6.109422345185271 8.945071254914541
Ag 6.262319214511458 7.06636694993993 3.4932043651625926
Ag 5.782735121001975 6.633126698380677 6.214165287870013
Ag 5.080342614545805 2.1606572110874986 5.80537896566677
Ag 5.991834467616142 9.003653898292699 7.812164826448472
Ag 8.72264429050225 9.452907572939164 8.397868298998711
Ag 6.674540189100494 4.229950390704235 7.4202740381034324
Ag 6.946304152827987 9.746886998127774 3.2527255019479053
Ag 7.130802929895616 7.920820555581064 10.159671466885472
Ag 7.770792679533651 8.680048652536218 5.707122714226533
Ag 7.778139726784477 2.722881117232542 5.435478697592684
Ag 8.126687184354529 5.550319727021078 5.0670166268241195
Ag 7.714376178158799 5.161590478713268 9.984469466766898
Ag 8.164638736340327 6.775903081994886 7.804440197160613
Ag 9.03815721352071 7.756703593594059 3.4502937197805235
Ag 9.47422336842328 4.372987888895355 7.1850741292093945
Ag 10.214930822425735 7.123388384950847 5.907923385267744
