23
Energy = -46.07650357 eV
Ag 4.108256510970942 6.135300292381817 0.38636984811305974
Ag 6.368650286075433 5.322264131024265 1.7405980068400866
Ag 3.7407791472136704 4.856698706531468 2.8114235886424446
Ag 5.101284622795164 3.5705422299455445 7.905938719477072
Ag 3.239662160254839 6.576366762780015 5.047510197613292
Ag 8.314104178873137 4.45054173686521 4.248436390353524
Ag 4.6645497506577795 7.535694978155414 2.7097441521961323
Ag 7.457873456720955 7.4408291666545185 3.1813409748867136
Ag 3.9452357740564277 3.6023993936263032 5.367541632245964
Ag 2.7561992311680665 5.1480061213721715 7.359261809042305
Ag 3.852818895643091 7.829693277351251 7.505229781771329
Ag 5.5804649411922504 8.231917206289832 5.278519771195848
Ag 4.332453906461411 5.786057593760591 9.58059586741082
Ag 5.903294924861274 3.0763446382690605 3.269262803888352
Ag 5.8691766538912145 5.545064861813162 4.640224756087576
Ag 6.6657630744119025 2.5899366879342995 5.855917567628877
Ag 6.0565336825422404 6.199582476093341 7.450363281240493
Ag 6.41444678541712 7.539562666611427 10.137060234635598
Ag 6.825173483059282 8.84174707818185 7.688360682140162
Ag 8.174230611619278 6.955092535807506 5.804668404249749
Ag 8.269896801569919 4.443035938731931 7.08480265889903
Ag 7.039227551150641 4.784916860484733 9.640943312926192
Ag 8.67689063744931 6.859095967188497 8.61196059660011
