27
Energy = -55.15607963 eV
Ag 8.175977517107665 7.286840982873851 3.3011875438304332
Ag 8.29536083592698 4.5428964692593325 3.819588930620915
Ag 5.6906930696752624 5.739577381715564 3.5980721902234714
Ag 9.997786250705623 6.342434936718291 5.297351692752116
Ag 3.222491042489956 7.092778161145922 3.6793436544152556
Ag 5.707462553839498 8.533909448584549 4.008388733716712
Ag 6.165179413260698 3.6453022309041847 5.547044902661367
Ag 7.220608720765387 6.283380716123748 5.835688051042958
Ag 8.829592474394994 3.9865350946378606 6.552693066707231
Ag 8.146488084692002 8.985727673951974 5.4961769278312795
Ag 3.579866340912887 4.621867509457788 5.130818030648368
Ag 4.189778465035846 7.05905482630783 6.26897123270712
Ag 10.90629687338423 5.3172259110641 7.764356218738144
Ag 3.307432196207388 9.502202895830502 5.053955612182554
Ag 4.735035049937567 4.671204549161161 7.69270511594202
Ag 6.779377375901398 2.8081978300708057 8.169825590789344
Ag 9.191707240131922 7.562190409818121 7.744769345311793
Ag 5.770634395354842 10.46228927487926 6.037165814368666
Ag 8.028006100286106 10.262049025537781 8.03833350132103
Ag 9.238781952125562 3.48964342323102 9.273354610957176
Ag 6.369661746167744 8.211001832697017 7.590446272493985
Ag 4.702411127638783 6.9715717200122755 9.279908785874094
Ag 3.6839205959807435 9.33399835146708 7.789067851953898
Ag 7.282794995039463 5.520940662367362 8.670134553792842
Ag 9.649842365338989 6.099844721280735 10.153033809124986
Ag 7.568035909594775 7.932682778924971 10.128509583866371
Ag 5.479281721376235 9.69487386203103 9.866762501358872
