21
Energy = -42.35327324 eV
Ag 4.38859137230596 10.080806170811378 4.53114545798112
Ag 4.2665022466978035 7.152771634985799 4.386193535509561
Ag 4.4848523585011115 8.556785001815497 6.834627861636381
Ag 6.3327440630502325 10.703038663221507 6.602873095847378
Ag 6.655691976895696 8.588494283856171 4.861077038902651
Ag 4.498355275840384 4.213590261117883 4.516381446268797
Ag 4.672337243701362 5.747418569121349 6.770681165167653
Ag 6.751738839457083 5.8263666503871585 4.146070788434559
Ag 4.412665136598232 7.067170708568048 9.19215524125385
Ag 6.615840844650244 8.748315711604711 8.618908542603101
Ag 7.536362209947893 6.617107377375834 6.707088248337271
Ag 8.748276179372912 9.12486845307831 6.799473909100995
Ag 6.7146735235110775 3.902900288751237 6.277402822097926
Ag 8.876151382274989 7.200756228314383 9.131162240534726
Ag 6.360799109027328 5.070796805596348 8.88411535787023
Ag 9.160936627678032 7.528585065811609 4.448854221707574
Ag 6.654177366094927 7.055734713480043 10.865904191699252
Ag 9.205836925002796 4.803599870638431 5.174589349932286
Ag 10.460751357508366 6.824926108889138 6.802103952906773
Ag 9.007786246719245 4.568938734903082 7.982862697688562
Ag 8.424974301268586 4.859595241523981 10.712345227008447
