29
Energy = -59.67533567 eV
Ag 9.341791318468642 11.718095109106809 8.96838406728327
Ag 11.283303000385029 7.8990435713774385 8.107300573132399
Ag 9.623124805464503 9.16723838604122 10.070294080773605
Ag 9.055275309842717 9.497357834450339 7.287608901327311
Ag 10.822194227147257 5.116653261415256 7.421919439852101
Ag 9.607050351582776 7.107377727858409 5.93335865018574
Ag 7.1003493971615645 10.212222527934147 9.153380147481538
Ag 5.972474081662753 9.838064529387674 6.603145482739633
Ag 8.01210511532953 9.057827973459785 4.741332428910864
Ag 7.255913856673328 7.894691650585732 10.84804422867122
Ag 9.432648848258637 4.525056467178821 4.936208104422304
Ag 5.432145079615414 8.444157117162092 4.153897400506391
Ag 7.3995556420245725 6.332446059271686 4.027030333845358
Ag 6.879696629899536 7.256681453121391 6.735442708698345
Ag 5.400650288663433 6.843650131821661 1.9470657975669128
Ag 3.9612450000428585 7.717845538589114 6.375800867006188
Ag 8.935471424770466 6.757967829316604 8.862049930561094
Ag 4.667673933860481 6.748106036832793 11.133997624618123
Ag 5.120224752943229 8.334582581882282 8.871932125147046
Ag 8.013013693313537 4.619037932367322 7.2785111174553165
Ag 4.748097341264736 5.208144642566888 3.9947331370831862
Ag 6.33727849580324 5.763173249066016 9.207057027813727
Ag 8.704882246985376 2.1447205187847564 6.1653093112753234
Ag 6.774945599525132 3.5368658972939895 4.849877808056704
Ag 2.9183699580452256 7.18592884337302 3.7398066094236335
Ag 5.238327051144613 4.898648991038678 6.8008333016189555
Ag 3.486250645466905 6.021425725907935 8.628197381353486
Ag 2.6010415790233763 5.345740935187666 5.912923950845392
Ag 3.995205419206166 2.927552571195834 5.364862555920817
