24
Energy = -48.71730363 eV
Ag 9.418435425530138 6.378720116189838 10.092693551422323
Ag 10.948326906135911 5.682102502979136 7.7408974790401395
Ag 8.337734876045127 4.645578102258233 8.169827370905349
Ag 10.458073733450064 7.1536428977954145 5.395356014203939
Ag 9.230919427009677 4.633031373079562 5.498713968748776
Ag 8.912491564892605 7.545263376576116 7.673455696664611
Ag 6.360038500847066 6.4469995249364755 8.825263730522307
Ag 6.888147635321789 3.206759568754126 6.186996238336672
Ag 5.564405901537866 3.8146541099885156 8.574804187899725
Ag 6.255895706114748 4.617949742756178 3.869844947784591
Ag 8.424544343879678 6.420828641020741 3.4938172593968955
Ag 6.940532929926481 6.163600844621987 6.067875222833098
Ag 4.624571302522228 8.46605064617037 9.310845900752646
Ag 4.395161790820769 4.524301006589009 6.129432273210714
Ag 5.792431030606678 7.439688971640788 3.7062795502442523
Ag 6.582878985714978 9.027857030728903 7.441722764363438
Ag 8.019090339287514 8.642141663068584 5.123351810455093
Ag 3.579774042649382 5.900773816897275 8.41728736540949
Ag 7.586554600689301 8.578044975632226 10.02784364905906
Ag 3.680969375969754 5.677334583209864 3.7210628998695765
Ag 4.435383193855639 7.610159536517318 6.433282718921686
Ag 2.0852348672573195 6.2864070345300345 6.018641606248557
Ag 5.425446174997261 9.853733311919811 5.0126242185116325
Ag 3.0779556572988453 8.309374934500617 4.093077887556236
