26
Energy = -52.92471438 eV
Ag 8.463499772545074 10.36714542644052 5.522694533580998
Ag 5.355566110753687 3.704266387593321 5.178250413256025
Ag 6.205573542088858 6.323147277381804 11.879449174936749
Ag 8.931977066487395 9.009210581825496 3.1151997567666347
Ag 5.525827132079518 5.992742389654804 3.6088685901357724
Ag 7.932473498702775 4.897844108131397 5.146398488016941
Ag 5.966993354182535 8.779016601097087 7.4333810902682975
Ag 8.858294609836234 5.6810010851959865 7.65924788785648
Ag 5.907695665973402 10.472657484151728 4.436257745925664
Ag 4.368652992891869 8.20409638476295 4.928098762140383
Ag 3.339825994692491 7.448819476632146 7.386524344620425
Ag 9.776341977908874 7.00859868401945 5.215383274522955
Ag 6.133192623650243 8.525255988157848 2.479571765552046
Ag 4.0766905349618865 4.442291397916045 7.98598684344431
Ag 5.805484665075297 6.133326176016634 6.604821271830141
Ag 8.163052626637507 6.391560554098871 2.7283438360175247
Ag 7.06525159555169 3.796887507331586 2.7631838452071538
Ag 8.791457591944445 8.413584962850281 7.434128801254338
Ag 7.198185336035159 7.963209269153651 5.0043491409814616
Ag 7.2353080573942385 4.6150156377620934 9.995883914975355
Ag 4.328699634648743 4.546735300843705 10.779914432563293
Ag 7.780456494799965 7.331469666929929 9.693232375661411
Ag 5.0789593324728965 6.784122635975076 9.38306844089934
Ag 3.2628040498643984 5.603727253672966 5.339811890325479
Ag 6.979324169662396 3.5932434194149443 7.466405134376663
Ag 5.612808802151596 2.4440286610465427 9.556257371425328
