28
Energy = -57.60682579 eV
Ag 6.672721212467113 10.785499690047759 6.123451917421837
Ag 9.34081392835542 9.813241377968229 6.313408248948179
Ag 8.269440112207672 10.43569566470051 3.8238261182212554
Ag 7.515135252244213 9.043608274521912 8.266021186902027
Ag 5.532499284871444 10.546549902543212 3.5291753665337082
Ag 4.824386364391615 9.947343661002433 8.079408700220624
Ag 3.754059237679955 10.32341727989741 5.621963451855982
Ag 6.124664160118297 7.916628028393602 6.066352327409148
Ag 9.445017069127429 7.908069895878769 4.215543517058982
Ag 8.96744989561375 7.064969630566801 6.8488612327682565
Ag 6.841088447753843 8.109262304573381 3.236165784677621
Ag 5.30312037679233 7.387452425304572 8.879681973216833
Ag 4.094494480174947 8.112093994160688 4.009463787348039
Ag 3.3901489461551186 7.71671811565569 6.745636327134577
Ag 7.581564777614393 5.8385767964921325 4.594845855436538
Ag 4.710409868030982 5.620431641773199 5.118039466097964
Ag 7.970749774382987 6.544874800434631 9.590430121265575
Ag 3.9891908256139965 5.123064081043212 7.811161011725439
Ag 9.494826125204423 4.634581441413842 8.125731690306608
Ag 6.17807161549844 3.454835675990489 4.108128021773725
Ag 6.783777590225552 5.291257034295169 7.35609928545039
Ag 5.500601913311342 5.020832124656818 10.219040351320043
Ag 8.436858239973608 3.491221447142539 5.739990598509937
Ag 7.884447105281447 3.7392455248190823 10.179643882262727
Ag 4.158780356666592 2.993367327301214 6.026029428839507
Ag 8.34791795911361 2.005339177099929 8.09194370553952
Ag 6.5070957581840165 1.503232821925677 6.111942711475917
Ag 5.644904129653902 2.836166842820013 8.443672733222575
