21
Energy = -41.91840675 eV
Ag 10.97077997997676 5.534251411446542 5.261208186492088
Ag 8.143011555279584 8.624548182800195 7.415432616483055
Ag 9.024911946932397 7.4237979436481325 5.05502564019291
Ag 9.248631090392916 5.8734632690019195 7.413014279390522
Ag 8.105625003821705 7.012105620696954 9.71132349093683
Ag 9.272103324385935 4.508443041844662 9.81960186233066
Ag 7.048022761651837 9.567196547344633 9.806620258429236
Ag 6.698738504918968 8.941062966946754 4.962634260066357
Ag 8.367970668290502 4.611501238423665 4.934616832738596
Ag 6.86248640214617 6.4971609578345415 3.452115220143398
Ag 6.620515774052912 6.381412217079479 6.300425630938167
Ag 6.743955807090589 4.780678870196405 8.709112323749522
Ag 5.492899463654702 7.473304319873904 8.787931467024595
Ag 6.051553087318962 3.612003604533732 6.116779542616795
Ag 5.633283365795008 9.952967559154873 7.417097245058779
Ag 4.116841766996659 7.815869717473797 6.287242997233437
Ag 4.783371391163171 2.8361005659490486 8.46712376273841
Ag 4.22086241926484 5.332402794226352 7.535374200954484
Ag 4.484303596443132 7.986441409833094 3.4689270073225664
Ag 4.430943140012607 5.4551666690600555 4.695880359779478
Ag 4.256601273161867 10.294217122210352 5.0052129137931605
