28
Energy = -57.91278907 eV
Ag 2.828901083395207 5.524319934390918 10.299637590390878
Ag 2.1307098222828023 7.064558452268083 7.991701840657413
Ag 5.597412945409526 5.057129852737954 10.000650489243258
Ag 4.4063109775966165 7.61856586076365 9.530707847640015
Ag 3.878916421809468 4.8116290236169785 7.829379218276733
Ag 3.8004281047545976 9.64599671735688 7.678239843454617
Ag 8.401098022695876 4.909606041064507 9.484138229591094
Ag 6.917514951586607 7.092422059956668 8.426531711988831
Ag 6.148758387696947 9.759920665798868 9.254153823043936
Ag 2.4629962089896837 5.662800952784078 5.576154935026643
Ag 6.644428129616007 4.216691152745843 7.4863733289611645
Ag 5.055288423804644 4.5614485707841235 5.208893378128152
Ag 4.618641883882899 7.1999624988509705 6.49975715447517
Ag 8.719057808650192 9.264277186152606 8.151907752713731
Ag 10.488045770747217 3.0455773223799962 4.697814751643408
Ag 4.234073056116012 6.819950794602137 3.692675889380918
Ag 7.738859423429322 3.6640156569971225 4.874085468309127
Ag 9.461426524525283 3.852529627376228 7.117716111775118
Ag 7.246317434349858 6.398572607991989 5.683599269985802
Ag 6.472257329862162 9.298270838390778 6.501691325467778
Ag 9.579665564055759 6.6592799423086255 7.56207306505225
Ag 4.091827885253643 9.459280034756024 4.921673738785917
Ag 10.164733154063477 5.786570437002883 5.00342764893777
Ag 6.648741726972006 5.532878044450497 3.020202114196219
Ag 6.544127804197024 8.426251212535865 3.83232926354113
Ag 9.218192717537944 4.4533809738338785 2.629511801179957
Ag 9.09675011700368 8.44863447416117 5.461777710759758
Ag 8.886303197812714 7.238444041488616 2.9857034498048325
