21
Energy = -41.1917939 eV
Ag 3.404615308830117 5.172258395583458 6.4267715630078
Ag 3.626307114165597 7.627463552907811 7.7632870624549435
Ag 3.9768135656054002 5.136814029310459 9.139746605900868
Ag 5.417972356638668 9.529769677845302 8.965775394338296
Ag 5.492156614624324 6.929762443409824 5.7098705628123225
Ag 5.0396204656837 4.394299933430215 4.363275070973231
Ag 4.871905492091531 9.62526051495255 6.2483892274286434
Ag 4.086005242311806 7.592334755208883 10.556661187212208
Ag 6.393819434264472 6.531986828209526 3.1714696525047636
Ag 6.594163165986817 9.135881257191258 4.165755341140502
Ag 6.610542941635529 2.3645992207054385 5.63165094972885
Ag 6.041718630308498 4.505077094300671 7.2833193288708795
Ag 6.136154823386525 6.846545013142749 8.86089171598597
Ag 8.625329347896376 7.271916728152503 4.823142346843134
Ag 9.08152220153076 9.923023773320894 5.34782304146563
Ag 7.404635518857793 8.658518005471526 7.128364081447716
Ag 7.8030684232932295 4.722597425822769 4.899140077423441
Ag 8.436840349757974 6.03548663514547 7.74464307954709
Ag 8.723709679966834 3.3580270068668776 7.218168149970856
Ag 10.238306715121476 7.9865426867774625 7.0605704220177525
Ag 10.36609858950192 5.3396348566530945 5.940723388700748
