28
Energy = -57.63527437 eV
Ag 4.217601961237849 4.533218534317682 11.17137802041898
Ag 5.592664133798517 3.9145253610960413 8.842683042656201
Ag 4.449445657101845 6.659767646521699 9.436744152871023
Ag 2.859956472856636 4.456286943916471 8.664582414401794
Ag 6.7908797495567645 5.603116916988666 10.733980123789845
Ag 4.47336112789907 4.082605337545184 6.289404076031132
Ag 4.913115961703604 8.81956114382245 7.5983752219133
Ag 3.242013662414443 6.55020073515272 6.843961184833983
Ag 3.5150424935643994 5.60243339730894 4.112396319274609
Ag 8.288898101326446 3.537887506510661 9.392424513616573
Ag 6.77292418634886 8.183244553791033 9.65357427549059
Ag 6.130604045520611 6.377593389290467 7.071657202260853
Ag 4.754034408810966 7.92649102125587 4.958189547674007
Ag 6.7626605431367794 10.731335164459066 8.213432158959986
Ag 10.023193388482907 4.132490035210082 7.267073147255099
Ag 5.438739800751826 7.104845795068933 2.4421155252199918
Ag 7.3402976332044245 3.86860800268042 6.649161422755014
Ag 8.593751013834389 6.167828463223845 8.645687952186554
Ag 7.722707476699611 7.287784214966847 4.971021751784127
Ag 6.608821121418133 9.946578695514036 5.428669531995392
Ag 8.216212190787742 8.598500220859467 7.326346484401572
Ag 5.081054070476991 9.9015910860494 3.0409380485531523
Ag 10.152279909289714 6.788327072090465 6.350325257108404
Ag 6.236328670274254 4.999863747512426 4.283547118399488
Ag 8.02913127622945 6.136076663520937 2.385364907601908
Ag 9.135285963301063 4.824333622115684 4.6281290100257255
Ag 7.661902698346532 8.96462789189498 2.8234505917233155
Ag 10.130817919432939 7.496864878909255 3.6386497923466834
