22
Energy = -43.52775554 eV
Ag 6.00594212138552 6.06342616678873 9.893842749673887
Ag 6.332537452103211 8.616952362534187 8.785466565565466
Ag 8.01069934611959 6.573364791182072 7.988112106245353
Ag 6.522986030406327 11.061342058047627 7.557386029616557
Ag 8.366667861122938 9.203508755214107 6.815292923001719
Ag 8.863853331093802 4.5849016182252464 6.119281265689589
Ag 10.259877634960985 7.061117536491097 6.489757586775459
Ag 6.460342846736589 4.322943043871149 7.540468777026793
Ag 4.113071602400316 4.176680446748199 8.961425244765032
Ag 4.441714415420937 6.739636993913623 7.778448958816288
Ag 5.668885790734753 8.664161756754407 6.073850764535696
Ag 7.3012582247318205 2.2729274077059616 5.7429959375581365
Ag 9.950847121213224 8.897938380856095 4.499125481415627
Ag 7.889770731375169 7.071926383321256 5.052506999773389
Ag 6.538426881584211 4.7228509094781765 4.528289736571996
Ag 5.607251248726757 7.277017755315851 3.6244252599577096
Ag 3.813639627308835 4.520819225236085 6.183758900354256
Ag 3.3727958512946508 7.186534587406997 5.321640650070534
Ag 4.884201333411455 2.07109247508253 7.194619244788119
Ag 4.833779761616612 2.549569533970951 4.442483519876969
Ag 3.9578132365898426 5.016665638514454 3.419946293733258
Ag 3.05575363268038 7.492939147614306 2.6079219902286934
