22
Energy = -44.17936655 eV
Ag 7.642716439904647 3.6883910453144866 8.37486419420403
Ag 8.135242682205677 3.5161123262478537 3.591158544490054
Ag 6.705917483834512 2.688131827889575 5.862038743542582
Ag 8.627008999226945 4.760348684661891 5.983099738286187
Ag 5.765062645017952 6.3232012129439275 1.9564326221162063
Ag 3.9023912297535452 3.0106276873624744 5.413985602171685
Ag 7.994238886930508 6.339557471644464 3.602583903875359
Ag 6.208724040523351 5.798479633686575 9.514686716520096
Ag 5.693562615277925 4.792561512115289 4.253248555140142
Ag 8.759525067522121 6.352299845588005 8.28546112346634
Ag 9.534574525813792 7.369084723422428 5.690884559632038
Ag 8.174528698932457 7.202176097474402 10.82271541173269
Ag 6.820936091445077 6.916055706973855 6.3807385029606145
Ag 7.5801407306935085 8.950373503713239 4.398585980727196
Ag 5.200921583965404 4.536935216116293 7.292470476760779
Ag 5.076143938439957 7.655634216574113 4.242793679901585
Ag 6.628858927456513 8.484589816840833 8.85071224957406
Ag 3.405339565640216 5.821502912974205 5.5483349532327795
Ag 5.623409504960054 9.42004039277136 6.360910334993549
Ag 4.347398592006368 7.119653374261814 7.851169992393745
Ag 2.961805913135684 8.576605233923237 5.9898670936796705
Ag 4.01350674422861 9.758643958136352 8.54507282467398
