20
Energy = -40.20610421 eV
Ag 5.351092769121251 6.7928639352335125 3.4548565414557957
Ag 6.7304260610484805 8.704205600225524 4.9231967713768645
Ag 7.97304563483096 6.243580794023569 4.277831189597662
Ag 9.389250390938182 8.27560165326431 5.656094926307992
Ag 7.929422884493549 10.438034321444079 6.792501741081367
Ag 7.260772148851895 3.780819971828254 5.942241017713504
Ag 3.980016534847236 8.01097644166504 5.6442607432964875
Ag 5.925996752019044 6.1829519012827605 6.151744719103878
Ag 10.609037378094813 9.998273976592484 7.478717396048401
Ag 8.814589189957683 5.799930737937989 6.896119947614117
Ag 5.76654993351922 8.834478466641588 7.567649287405625
Ag 8.826179770179898 3.3634898845746863 8.30984862107818
Ag 6.518705973739006 4.879366277177137 8.548345317013126
Ag 4.28432467295422 6.633936101286798 8.36846011629751
Ag 10.986992250673941 7.194369084733119 7.858550105078539
Ag 8.577707197381322 8.312062141939712 8.44604044433528
Ag 8.937386266992469 5.822841951751902 9.667314375701334
Ag 6.916280804891941 10.141977278751728 9.6570094159177
Ag 6.5109760414400615 7.257670187628806 9.990006366460303
Ag 4.325236397266436 8.946558345258747 9.983200010357798
