29
Energy = -59.75655193 eV
Ag 11.666578784929923 7.0144604966441415 9.737014582626292
Ag 9.726917470286802 5.156408451285269 8.944250890410563
Ag 10.526057407465215 7.275532678977074 7.235815222977849
Ag 10.595052213860454 4.240146417173537 6.456213051389438
Ag 9.000869970538348 7.731453809176864 9.750150446264735
Ag 7.942547443243511 3.469910030653107 7.6601933546232575
Ag 7.798855650964185 8.428174655770666 7.3106749080861135
Ag 9.2737589991611 8.1131644467976 4.932455559798982
Ag 8.496756006243576 3.341994078669699 4.833934831139542
Ag 7.006516042446701 5.969948322856456 8.798715831091025
Ag 8.33646263003688 5.804921891679671 6.2371537115442965
Ag 6.121616208681617 2.17225605709766 6.016100051496576
Ag 8.18512742483261 5.829847951123723 3.4442737378937647
Ag 6.301147641603819 8.57547092264806 9.730337950578411
Ag 7.970381733916276 8.482298580432875 2.51510261007789
Ag 5.155079988979194 4.357549747374057 7.4723614140844985
Ag 3.629649687026444 9.450748570472742 9.575278957487827
Ag 5.070504795356741 9.376109521635307 7.215015705429778
Ag 6.57222165398073 9.154522953738008 4.854167404455448
Ag 4.305906443613486 6.862547340334399 8.718455092707682
Ag 5.634532523457192 6.796450728186693 6.141236275374274
Ag 5.653432733149072 7.070638170147704 3.173345418008561
Ag 5.950434820425059 4.508807528095837 4.493423450451553
Ag 3.5496918214163604 3.3229044715243248 5.372651650918409
Ag 2.3816154106319747 8.518351563083785 7.236014071530696
Ag 3.7741017071165417 8.448984424356365 4.742473829273103
Ag 2.8063940979954123 5.701661159362911 6.673916471937368
Ag 3.386577491097985 5.7512912677047305 3.9584264695237668
Ag 1.2641307484301922 7.2665005714341415 4.9884429560991626
