29
Energy = -60.08611212 eV
Ag 7.157851157360146 10.172761667920186 9.694005605210899
Ag 5.685293074507494 7.423145161738249 9.8864941861945
Ag 9.947336509860127 9.913832873767566 9.576390329173128
Ag 6.830871505117424 4.6245060570663945 9.77414406006746
Ag 11.118704271522022 7.350448865389413 9.55855016596476
Ag 9.61765026819717 4.961820563448982 9.719996641571965
Ag 8.634407286765747 10.772787566915188 7.249669162938807
Ag 6.378407174896165 8.833112527046682 7.409160941277782
Ag 10.586940295137401 8.744760504191882 7.135236342014325
Ag 6.2933904614617395 6.06267302514937 7.44854936610771
Ag 10.489741381704397 5.87832201768165 7.24915302889432
Ag 8.41885516453785 3.971051166795391 7.379908017995405
Ag 6.750630939919297 10.271821106808675 5.0544963942571695
Ag 9.494841366838598 9.727659203908546 4.78397014515769
Ag 5.409768722138637 7.5287115682368855 5.068021269584
Ag 10.839012767490793 7.237303337110419 4.774357499083636
Ag 6.717480731582228 4.64710542597409 5.116908665413857
Ag 9.508157651383504 4.751739132151449 4.9096311562595005
Ag 7.98016560642372 6.556648672669633 11.390373671264292
Ag 8.453390229801261 7.5051742749302734 8.800217932625017
Ag 8.272142285752446 7.261413165581491 5.820856696467915
Ag 7.5589470303724955 8.284303081799559 3.311153741786292
Ag 5.964758759031638 11.582214934205872 7.45537751660811
Ag 4.102777309465113 9.899451190538812 6.125688627559992
Ag 4.368752011556297 9.822595446668666 9.085999971956047
Ag 3.7191469754312925 7.532909870443591 7.57231977700406
Ag 4.109817790068098 5.156756034511809 8.99744386116898
Ag 4.048125728810749 5.2007030518657364 6.021721304913435
Ag 5.695373035360365 3.3477582438763647 7.494509310757219
