20
Energy = -40.09699601 eV
Ag 3.9947180007446974 7.141712308387533 5.928110160189658
Ag 4.507840253545372 5.600810839966269 8.194337666794972
Ag 5.697035697508791 5.400450553320826 4.395057306196791
Ag 5.374697998170808 6.715075845281408 10.652347118935078
Ag 7.079346056267502 5.044029536775092 9.08457573829293
Ag 5.273850907154917 9.577184243106467 6.008523066729409
Ag 6.16606611670762 3.9352406534919817 6.712228194200066
Ag 10.057154097330425 7.124658600046905 5.316850686752671
Ag 8.762199120453046 3.2655004462930157 7.622477792951942
Ag 4.968003984631195 8.338547799073403 8.44850845806038
Ag 7.871725467693128 6.92048532748079 3.668587271600039
Ag 5.406902241053795 8.12364224854775 3.6851576032931543
Ag 3.519366071606383 4.422640700946559 5.807094153675132
Ag 7.610320008149777 7.756809629149667 9.38325284832062
Ag 6.874324626750595 6.992855487949726 6.611627814660466
Ag 8.439688880879073 4.806244058371974 5.343465378519323
Ag 7.893595156485215 9.274511453770698 5.143205480616396
Ag 9.380963270987 5.958631633325754 7.803599062056417
Ag 7.0809913509613285 10.165516128972682 7.989480960843481
Ag 9.33228656104736 8.691814261355331 7.455570470438004
