20
Energy = -39.64916625 eV
Ag 9.04140091833268 3.787461294715859 7.643357763947512
Ag 6.061903674435371 3.4049741810147682 7.624611080957206
Ag 7.322418164734092 5.292890301274028 9.576907501430387
Ag 7.489185732425021 3.6662196617233227 4.943004124805434
Ag 9.753810732668844 5.656733820985429 5.390557718182513
Ag 8.696778253066514 7.427113696781024 10.744488415915873
Ag 9.597867391590281 6.675162094831185 8.20781069133359
Ag 7.4003392499006315 5.667181887331441 6.81273361911879
Ag 4.846400705682401 5.873046833278915 8.28392961566215
Ag 4.951184328583672 4.855676787820641 5.488424586447832
Ag 4.652751376572889 7.114913073387778 3.748400537624059
Ag 8.653408071714708 8.19647936284224 5.983668486048256
Ag 7.4093880802511 6.358464291065467 3.9989131953927837
Ag 5.778131657085782 7.625297202511465 6.1319490415177835
Ag 7.071070139334679 7.976424234246808 8.605392043174733
Ag 3.092575937773686 6.84600183874819 6.288198308360665
Ag 6.845499562670067 9.135701833533176 4.023386152994318
Ag 6.695043629011567 10.128337836021823 6.7672882560218195
Ag 4.151155940757503 9.570425296433763 5.376226050823499
Ag 4.3319556897580505 8.684060394346416 8.203022893185537
