29
Energy = -60.06949752 eV
Ag 3.080378195825091 4.496744151541209 5.648538406518448
Ag 3.331746521916018 6.436357474091204 7.813836971922436
Ag 2.8447245074804646 6.188360145369969 3.3534437986092454
Ag 3.658940635828414 8.7760163241163 3.9553295896958947
Ag 5.315028740023214 4.542170555890693 7.4405697260638455
Ag 3.8147137532648467 8.636973613573625 9.524436391427056
Ag 3.757058598765951 9.00709756733113 6.707906208975498
Ag 4.991428692743578 2.4714547935904414 5.517857986153561
Ag 4.848159804071352 4.317949742906276 3.367211344705886
Ag 4.8942826071035235 6.597818215629114 5.435964555654586
Ag 5.639888077410551 6.546132690465842 9.502787863484079
Ag 5.540197954785756 7.064437737837334 2.789135928255484
Ag 7.168929354980106 2.532705446475864 7.327560297471205
Ag 6.1458591576338435 9.098606872682257 5.17042550030149
Ag 6.184026360396332 9.13080853625276 8.042657459069986
Ag 9.24300319955831 4.298614543389253 6.779909322258555
Ag 7.023851913773301 4.433047855617552 5.092779503165112
Ag 7.715365845675143 4.684158044370783 9.10977148894834
Ag 7.288696844693791 6.60457560826192 7.023935467925081
Ag 8.288227775493203 7.412423895214355 9.712036636162654
Ag 6.293690536677631 9.01771207500064 10.825093767726237
Ag 8.556601525912642 9.205278531933866 6.544740229412941
Ag 7.907205402126898 7.12579644470913 4.331375497247451
Ag 7.428986132055396 5.049164283018715 2.3752153576252586
Ag 8.471878738511808 10.149704762227286 9.269082497244746
Ag 9.658380357622686 4.996059847146776 4.044828601341887
Ag 10.349126914593828 5.7950778416774575 8.840570122321301
Ag 10.548363338557287 8.534164191890646 8.388061428748339
Ag 10.106918797309493 6.895079552562684 6.137858673593699
