26
Energy = -53.73126417
Ag 12.621698050401676 10.084716273053163 10.131731481821575
Ag 14.630838358283818 10.645571451921008 11.991514620036199
Ag 13.289551796433756 9.783298090130103 7.534509966096892
Ag 14.72757773026121 11.641987432998754 9.275698948579397
Ag 10.415979239821866 8.625691408024807 11.152009034203969
Ag 14.945789434589566 8.779649297663484 9.797846523900985
Ag 11.853891071317172 10.641180007059733 12.908737577496314
Ag 11.899126115354044 12.27147526070246 8.362950320124831
Ag 12.902371464332816 12.796039900562276 11.135425137813293
Ag 10.41597923982187 11.559204699370017 10.636043618605088
Ag 10.416006587079195 13.181489921034302 12.800184930035634
Ag 8.932822579716676 12.271486981370689 8.362977401471284
Ag 10.415991899036811 14.189286286989645 10.033564796934709
Ag 7.929624076353584 12.796056812534784 11.135466469766113
Ag 10.415963679826005 9.892687331012443 8.030552699482609
Ag 8.978120572878844 10.641187775718494 12.908763159656736
Ag 11.834652177985737 7.652940808914377 8.937942599718571
Ag 8.997258269664748 7.6529544856038285 8.937965492893495
Ag 8.210270517181227 10.084749133107977 10.13176875253756
Ag 7.542361743697883 9.783329849518433 7.534562548702383
Ag 10.416007097275823 8.353094374189013 13.829787562389122
Ag 13.08999049577991 8.210072442916731 12.090112574879997
Ag 6.104379313883644 11.642019924410052 9.275776127773218
Ag 7.741980054268155 8.210085922198207 12.090157362647686
Ag 6.201151755974807 10.64560022405968 11.991588349419326
Ag 5.886152556871033 8.779685904935478 9.797915064921778
