26
Energy = -53.37152043 eV
Ag 7.06868476846949 3.0518730023561367 9.270320911474034
Ag 6.475033994971519 5.570572861979354 10.425191073640256
Ag 8.036044058405205 5.309082140727759 8.060002523057676
Ag 5.16126415111706 4.717758289674843 8.083240556509212
Ag 6.925118177081822 3.1755799382384238 6.44737864490922
Ag 5.641634360272832 8.028927934461631 11.356921767863186
Ag 7.351098797732708 7.886591941281606 9.071589054344036
Ag 4.597947472316883 7.367240630568326 8.87013523499994
Ag 4.182398646090466 3.5946959346546707 5.7408305437933445
Ag 8.942334136140444 7.620806517124794 6.7525111587264295
Ag 5.800668239011514 10.143929060317664 9.575938976080923
Ag 8.60468859404789 2.6939836599534175 4.195435841866584
Ag 8.529838819059885 5.226692390057175 5.313950451962878
Ag 5.315551993198236 9.393347017776712 6.995425202781371
Ag 9.965843515710116 9.838437941748612 5.554782984259155
Ag 3.432928790050188 6.389913867968341 6.513321921036378
Ag 6.253098980143297 4.077881582609125 3.8589930136918067
Ag 7.953775042598236 10.178194162512264 7.540975379527019
Ag 1.7505210739335335 4.663103121827884 5.128201245018909
Ag 9.264702249440454 7.557969428312963 3.910500649462845
Ag 8.592313756125236 5.079197843815427 2.562076530461436
Ag 6.224397793527186 6.7735108610883925 6.342239486466305
Ag 3.9887824628620323 5.732413524990318 3.843978021759766
Ag 6.581708592165271 6.807580020969778 3.4360989494440095
Ag 7.224695379478682 9.21343949345209 4.953211397622491
Ag 4.540666947105768 8.31301762258795 4.602489270297173
