29
Energy = -60.25071535 eV
Ag 8.753050119411418 5.5415218483708495 10.45492005550692
Ag 9.824481181028945 6.004663583739774 7.915403856357934
Ag 7.420351316301288 7.853146875257458 11.333827347550308
Ag 10.7552904631602 6.711486761118119 5.453118764066797
Ag 9.678311133530885 8.184953753957204 9.64817050735249
Ag 4.788432817885985 3.661950181405405 8.244771253241888
Ag 7.5360869431860955 4.311965788411395 8.172841084872136
Ag 8.540984595492581 8.271192647980849 6.419690117951747
Ag 7.274084214280032 7.090469795718377 8.630678687676662
Ag 5.810646318698254 5.454111178485307 10.300242725274716
Ag 8.837654595920245 4.6247177876796615 5.638352454841792
Ag 5.131132956071243 8.375736514760316 9.875054359186674
Ag 8.520743517826418 6.802963362612382 3.865503936886084
Ag 7.5409557300687755 9.86234449823969 8.875360262866266
Ag 6.39115584061358 3.2427948660663555 5.819695229753444
Ag 4.392319569615602 6.404299794100282 7.974894264044481
Ag 6.4872634551308686 6.156566136856288 5.994738436889553
Ag 5.536169866438493 8.816354790790847 7.15244599856809
Ag 7.127226317735847 10.807877925667494 6.230430397066853
Ag 4.0072245250807255 1.890810032617054 6.161173356714417
Ag 6.514767359443651 8.619564398106027 4.386528780517774
Ag 6.904320445156672 4.583188296684123 3.3872262265624564
Ag 3.863989655275399 4.667359490922221 5.741953962289422
Ag 6.48130839296106 6.98633952600487 1.9990588532756852
Ag 4.6141837412901605 2.9431076278107215 3.6267450775676724
Ag 3.8944950138564463 7.413043820931105 5.340122988031201
Ag 4.3898048827034275 10.228630545584771 5.058658584325501
Ag 4.282974542744568 5.682888927350877 3.1446820422895767
Ag 4.192520805206992 8.46624769215068 2.7706565261885046
