25
Energy = -50.47948252 eV
Ag 8.320790236866918 4.645926043859699 9.720679013706762
Ag 9.953634822803407 5.720568933582713 5.551491015924447
Ag 3.028217302988249 9.813957705654563 9.312688115165322
Ag 8.035314857812825 7.435409637004869 9.424364459958982
Ag 9.112966864266479 8.085274710137455 4.076214272210633
Ag 7.512250843271577 9.88599761895669 8.040940603918003
Ag 6.784594409022824 9.123768213587226 5.250525275535755
Ag 6.225800219037503 7.290997373514895 7.178573009965579
Ag 3.5660920521545325 7.178606700008993 8.182096796360867
Ag 5.719870578723754 5.595279581138833 9.27851920091918
Ag 7.298920924607471 4.613078566448376 7.124551392272376
Ag 9.048571057591046 5.508746383809768 2.928044760685256
Ag 8.440432500710086 3.5311831078858993 4.838588218864454
Ag 4.636440785807374 5.184801653209858 6.520291954258579
Ag 7.070822675769722 6.202412782903588 4.772583116456487
Ag 4.685571055839215 9.682645300543214 7.094017491144202
Ag 9.039754057537476 10.590230245543562 5.675768602118615
Ag 7.414695547680067 10.119403233799837 10.755675324113104
Ag 10.96772769136977 3.8492259618744 9.774204096987994
Ag 6.431464790489058 11.812355666683462 6.495454873560778
Ag 9.13477502325253 8.029594219534946 6.827409920946461
Ag 5.440903146177855 8.530024524970749 9.72598921985793
Ag 5.406712097445589 11.400964856824611 9.196353332520557
Ag 10.29281382280097 6.080765222754894 8.321413660213963
Ag 9.801990644939059 3.459909764731683 7.304690281298506
