24
Energy = -48.75957989 eV
Ag 7.640089390694157 8.726551552534026 3.860779023437502
Ag 5.162517298313204 8.756508607495755 5.305247459223976
Ag 10.107661280590209 8.579516955786785 5.164431291484216
Ag 8.68289021120152 6.233108977206944 4.7877453821771105
Ag 5.182156872367523 8.706242946282089 2.5470675607717497
Ag 7.765372369423195 9.111046858341748 6.662199453488164
Ag 5.21501397432118 8.949514799042417 8.027740201774316
Ag 6.00122129373769 6.3750206405849 3.898577567444866
Ag 11.342199331795475 6.019202140762639 5.487061138266382
Ag 9.526728911159843 6.987634717025638 7.498315239278453
Ag 7.551226783289392 7.855291729063029 9.255559357453393
Ag 3.2876143069767676 7.024575680485934 4.072529701671209
Ag 6.5167951919776375 6.6214280060022475 6.755019299431829
Ag 5.327289508432823 8.712175036533626 10.751696303392166
Ag 3.609611591122502 6.801736320406129 6.8968870467974375
Ag 9.468085549840165 4.29987555018586 6.711070331422286
Ag 6.925150133844775 4.108341375706577 5.360524088008178
Ag 2.839166864045209 8.017460049988367 9.30241716671599
Ag 4.128837565512161 4.620561956291728 5.132632569901332
Ag 7.682580581507322 5.071138523116147 8.75382110085899
Ag 5.090347329290503 6.362878991145595 9.326536236941914
Ag 5.187693436827148 4.16771302837732 7.728740064462944
Ag 7.489645662407417 2.517589144809867 7.603350377343171
Ag 5.054356418166476 2.10831502722639 5.906706201440345
