25
Energy = -50.67743469 eV
Ag 7.959451473367039 6.198632849929635 7.602372643683796
Ag 9.769311076617688 5.4752551942210745 5.691423169320877
Ag 6.469407084096604 6.6543240395016925 9.885350277750643
Ag 6.285659909135986 11.196354100436714 3.179382999956408
Ag 6.956602123511679 4.369884305553633 5.782045540850274
Ag 3.578964334576447 7.940418403379511 6.312334463965598
Ag 8.90850695415597 5.328299578118329 10.234118970984747
Ag 6.246359855645741 8.433654357299273 7.033000164594356
Ag 6.927478279798325 3.945772534521439 8.75884400625536
Ag 4.96780341375068 6.112179031644355 4.748961770065547
Ag 6.329538836181835 9.445531611771464 9.691416278030765
Ag 7.601456311396019 7.000904906070291 4.7976996514759955
Ag 8.00820378435291 9.782524038258282 4.830579127252786
Ag 10.774694499476755 6.401350607242094 8.226238371979742
Ag 8.099330765205437 10.400467334370157 7.708758585745019
Ag 11.537764957894783 4.386985820742109 9.990545839098882
Ag 5.078668779767347 5.701988610999952 7.493813957309887
Ag 9.496626015502315 8.273186254603525 6.547280383599606
Ag 4.190849918100782 10.254419005126897 7.878280404952901
Ag 5.356863624877623 8.819204887891635 4.270043063125093
Ag 9.709081424907124 3.7717030531536953 7.974045352775432
Ag 8.883185185840347 8.24683673255831 9.443896994305357
Ag 10.982851049568858 6.996357333034063 10.935173918701812
Ag 5.816055536502454 11.11015020762735 5.887979500520986
Ag 4.077437461331187 7.765767857507204 9.108567219259642
