24
Energy = -48.29045077 eV
Ag 5.71661469738363 9.202402875336709 7.226391677592559
Ag 5.681022453608458 5.04079851723314 3.53834684089979
Ag 5.6386542218156945 7.800775094617384 2.8459666762804186
Ag 9.635761902963557 7.646217045844294 9.016469459541785
Ag 7.893959536662271 6.709342066586788 4.166847586214969
Ag 5.7657659602688 3.8266526152799427 8.114559937459445
Ag 3.097579207287819 7.2388083882851815 6.640778401670916
Ag 7.3268648961313785 6.047334439453496 1.5135676902327668
Ag 8.03444744418983 7.5334054443769585 6.777334863848638
Ag 3.0745261233287167 9.878987308751285 7.344198549783518
Ag 4.178115246353463 7.909583526424401 9.150966028603843
Ag 8.33778006041641 2.7750197683556204 7.709043849608642
Ag 3.423150341035057 6.607957430779328 3.9784607007775508
Ag 6.989909026850846 9.272695088154137 4.807166257553983
Ag 8.916079735705267 4.953997752080868 6.032838024703217
Ag 6.676806861572797 3.326034369961151 5.502204633582825
Ag 8.335118734192056 4.072557269210813 3.3099226894946634
Ag 3.3873258714311394 5.22273998304547 8.491708200677854
Ag 6.955457015821567 7.975147404524283 9.387503593220504
Ag 4.289712529163649 4.764298084799267 5.925956863954915
Ag 9.27543893312331 2.268045695808946 5.167196949573482
Ag 8.001458065558575 5.405728789598124 8.697041925480548
Ag 5.5832665647861415 5.705551651943918 10.174527140624965
Ag 4.164147647306314 9.19488246650566 4.859964535575112
