23
Energy = -46.20179038 eV
Ag 7.785828625799166 6.114185525303172 8.845179042618692
Ag 8.85264387416225 4.006442568583908 7.245894055756963
Ag 9.448560077434713 8.363018484521124 8.84838212720897
Ag 3.7606345367770913 8.576366942990479 9.075230705825097
Ag 7.8590691301247935 9.683508199876613 7.0298183242472785
Ag 4.339748488323493 6.706413847007009 4.831519139041298
Ag 8.507526970107307 4.736790206999737 4.602866742821664
Ag 5.219200120707504 6.3253539781605985 9.712104956254768
Ag 4.102998342030875 3.8659813087425667 5.798249975875136
Ag 5.793722316604626 9.45801326181707 4.900211935299769
Ag 6.730708715898207 8.77914856823541 9.541505918649575
Ag 5.25903952616157 10.505582540643767 7.67502782343451
Ag 3.3724574191631045 8.85480163758889 6.315310082989471
Ag 10.50899613850813 5.832480088926039 8.448250132862544
Ag 8.592754173172931 9.266106173122413 4.43630783180827
Ag 6.344660293162596 5.1796155582591705 6.584975854826288
Ag 7.017315091469083 7.055434060465143 4.231188170816904
Ag 8.823662983837028 7.011138314180022 6.382892514272155
Ag 3.50320986503427 6.129275929186416 7.437276623979035
Ag 5.812789004015572 4.593976543223735 3.7145561460048784
Ag 9.45011090802133 2.198046474173657 5.251063288634415
Ag 6.739670828808636 2.6392057285922266 5.533990262517502
Ag 5.795565506816383 7.759517420885996 7.1790842851524035
