24
Energy = -48.38111298 eV
Ag 6.086843417982314 6.208007410397073 10.716920529111004
Ag 5.0024588156629735 8.254545143440769 9.181993147978934
Ag 6.6234928280052925 10.246987420120936 8.235626833921877
Ag 7.75828604011864 7.870987415551538 9.199485151385856
Ag 3.989410241749355 5.62729584682083 8.94847623498093
Ag 9.60719937297325 6.694180298566052 7.471368833052736
Ag 2.5293597083040162 7.862979824207793 8.026844674223407
Ag 7.985424517897865 5.041051272639754 9.074017997284972
Ag 5.713768485444025 3.584806177590396 9.696519940690004
Ag 4.479276446245642 9.406823645122182 6.615944937326828
Ag 8.917607019392731 9.279617910982164 7.0195994377546285
Ag 6.867081699536257 10.153560751276753 5.39832292182545
Ag 5.428469535398146 8.11774036495538 4.230201232098736
Ag 7.415732715759866 2.524237270673186 7.720045503443745
Ag 8.129758277774265 7.343442562313768 4.996858265954136
Ag 7.633197070007099 9.207822614901167 2.9254675462007937
Ag 4.348892676409203 6.652192393255567 6.364690202197103
Ag 8.078581676689858 4.804394584260841 6.277524968647458
Ag 6.852199353203367 2.7421718047149524 4.8370234056751675
Ag 5.318816184538558 4.089355088782123 6.9329780532312855
Ag 5.872335818088266 5.354170765678754 4.494652401156155
Ag 6.862696666505933 6.6552073998661605 2.2134164781666743
Ag 8.524003085121988 4.892654460307892 3.5920211367278045
Ag 6.385944327332533 3.7966035537137675 2.2408361471057283
