24
Energy = -48.64302313 eV
Ag 8.50884880024279 6.579282773513374 5.0183670437941
Ag 8.099695081505145 8.523619020799243 6.95809828991567
Ag 8.625817308901095 4.60703368997397 2.932900011962525
Ag 7.723998195767153 5.790913280878438 7.533124625691961
Ag 7.065821459255236 10.499948661694045 8.665706971779962
Ag 7.957432036410983 7.333086890773994 2.438752633312065
Ag 8.52247267489042 9.426003695845601 4.350001827581316
Ag 7.611845937450064 3.9201547987167076 5.505428702035284
Ag 7.116786328520245 4.932341938408355 10.067568284522903
Ag 7.224539854274174 7.7228221090464455 9.510076419122434
Ag 6.561522491946332 2.6788296117868393 3.250835602289462
Ag 5.937431161620173 3.5395366318007224 7.769032263653426
Ag 6.363495732834742 10.506403025727622 5.921259723902794
Ag 6.074013480178999 8.21661895655158 4.306507207653987
Ag 5.051534914603893 6.069602775656797 8.713607422357082
Ag 6.236703882644665 1.4622980038208695 5.810397683059326
Ag 6.088318638667108 5.50126638493824 3.5952035225635077
Ag 5.193237699169128 8.74476037852762 7.830247499022473
Ag 4.682580426517945 3.6446087093725072 5.159230512752254
Ag 3.751281131158793 1.8013177964619222 7.046705831333699
Ag 4.643221808576844 6.37662297646671 5.828421308474156
Ag 3.7814683543307077 9.1552769863144 5.528547507235746
Ag 3.1735629699484305 4.470254505531264 7.408732924311618
Ag 2.8274730898486116 7.320499856655518 7.674349640935612
