24
Energy = -48.39939965 eV
Ag 3.077362570788582 5.426556627679077 6.86993826260973
Ag 3.4996582543016355 8.1651088011116 7.026158345694281
Ag 4.19765305642228 6.757559551316309 4.692300400228863
Ag 2.6452997232398725 4.237638088957159 9.351115715228826
Ag 5.1387272367791805 4.066810709205189 5.514843089437062
Ag 4.040478520037333 6.595255227078798 9.37720639876747
Ag 6.331645484131354 8.010200881743716 3.1560170224158126
Ag 6.825117175701668 6.292035947944533 5.446812589541508
Ag 5.869117129515123 8.944850118530498 5.758833161036366
Ag 5.739778143699107 8.65199694046488 8.56452423782688
Ag 5.916099801088617 5.203093548272107 2.990504161290162
Ag 5.187038201245581 4.21682094215845 8.295365101214129
Ag 8.503072978030007 6.146276588236777 2.9528576436284384
Ag 7.908936071152189 9.933933489418603 7.37086669831979
Ag 8.872837038456518 8.738032709334057 2.2029205080406453
Ag 8.12006218752439 8.595105935638008 9.958518021603197
Ag 7.820825056152745 3.782398800858521 4.529275918400032
Ag 5.646239002950325 7.877864373098893 11.269193078267799
Ag 7.755305166955511 4.425011049306208 7.375828788985096
Ag 6.880197936374214 6.0710520526508756 9.514175398585866
Ag 8.622009862555672 8.391843967305665 4.931937375289283
Ag 8.42156857398311 7.247593856142563 7.5489199365005994
Ag 9.650603153919835 5.7198752845404695 5.580806408062678
Ag 9.845820195642872 3.018537029654489 6.236534259673359
