25
Energy = -51.00575418
Ag 11.48937857499418 10.49110445147446 7.452537001424751
Ag 10.528489533516884 13.096280256104993 7.732660433371831
Ag 9.82853490423614 11.489797012725528 9.902810478354693
Ag 8.607755264831715 10.980329020466662 7.452193429844086
Ag 8.263200052334163 12.429547145314542 11.892539167551513
Ag 8.579707507485914 9.04465905177491 9.903104617951485
Ag 7.964206732725639 13.39785072231637 9.043602866341793
Ag 6.678175041908823 11.052866943880716 9.742921876459562
Ag 5.992497060767252 8.253486320301162 10.39188346251349
Ag 9.632498458301509 8.241850764562562 7.452313033833469
Ag 7.145949578318881 9.899350735669131 12.293501056643182
Ag 6.831629795851794 8.861881491558298 7.732478242202087
Ag 7.859401463689559 6.475899167028608 9.04363714514998
Ag 11.320319720949978 9.193849145282368 9.903005046585573
Ag 13.905174448658677 9.855708516915513 9.043887849901818
Ag 10.5181140135407 6.5339741576827315 9.742508193975397
Ag 13.298303505627462 7.350004796938928 10.392112752771297
Ag 12.352923482084925 7.771944606349883 7.732517988014982
Ag 12.516915952375372 12.126085833524035 9.742399376327828
Ag 11.271063197484509 12.303956140902132 12.293421743569482
Ag 10.420675478349834 14.124875956053597 10.392326359138325
Ag 8.547576725424557 7.217833903247613 11.891623346158338
Ag 12.917762163321642 10.063481717028697 11.891792750719969
Ag 9.914766666142556 9.899350735669131 12.356831519268821
Ag 11.295368484727462 7.524419214876836 12.293271300176542
