27
Energy = -55.62353202 eV
Ag 9.540315920259685 3.4000216384903705 7.010145082069173
Ag 8.565467934903683 4.886535271976304 9.24400388797431
Ag 8.295847198386081 7.651390080785196 8.473924632478177
Ag 10.353260095080032 6.04472837430982 7.353692827069916
Ag 9.88881194765028 5.203960547342978 4.723328593113849
Ag 6.391104861687743 6.477615796439065 10.297568856202252
Ag 7.665891678870444 5.443685195244993 6.616838640965369
Ag 6.850957630062654 2.765007945753061 6.24814698760163
Ag 6.090797066941499 9.176019303982926 9.408821438548536
Ag 5.836976083178019 4.260341893786192 8.505176947480413
Ag 8.914285078960173 7.797388433260731 5.641636493776775
Ag 3.8218338396860676 7.610280551525439 9.792518414804013
Ag 8.99421500634344 2.5298100219915445 4.386494233393477
Ag 6.782944170359381 9.34366415371992 6.656284670473768
Ag 3.2357163352793044 5.4257888003036365 8.031710485321886
Ag 5.538509776906781 7.001274724264431 7.656913329622305
Ag 9.176136251302006 4.302055723180687 2.1750361319782616
Ag 4.020599880840965 9.502007505584091 7.5461337603870176
Ag 7.016542011552062 4.484713796129721 3.949419989687868
Ag 4.921510553200272 4.776152162158364 5.86453160491293
Ag 7.340308053060992 9.366282381221373 3.888639153872846
Ag 1.7426140716760206 7.859252393285048 7.9133150227839515
Ag 8.300323530506533 6.813920145294129 3.0273904891667702
Ag 4.622450950058531 9.490774758930927 4.7755898821923966
Ag 6.0625656229783536 7.067474720753682 4.734568127081898
Ag 1.9704937014571586 9.568645853299074 5.643583959759645
Ag 3.373516042253196 7.1543066726971185 5.7299565629913545
