20
Energy = -39.3122589 eV
Ag 7.364752616785284 8.061470695908472 8.579291537769612
Ag 5.991554314860622 9.765031690766893 6.925600597711823
Ag 5.263674470863536 9.584087447504835 9.713315697422845
Ag 9.02660944253805 6.131784840805869 7.171515093993923
Ag 8.133419096110327 5.548951365206029 9.92529042654329
Ag 8.533597871040877 8.671408710224577 6.121894805166863
Ag 5.690092159779217 6.8690245552407045 10.371825456433328
Ag 6.3429630719471515 7.234829160836701 5.4777639483492235
Ag 3.3378343031027287 10.0987193240844 7.806490092809338
Ag 8.55366384939299 3.570254308584514 7.972178344840602
Ag 3.7954843670742293 8.587952082602369 5.4893525760321
Ag 8.933758054334962 6.363716459353856 4.445372822318318
Ag 4.459116827834904 7.4900782601215 7.925340760172118
Ag 7.241050608343419 4.2658660041837715 5.588663948017035
Ag 6.21126178036409 5.275677773137297 8.013921133444624
Ag 10.097758235574773 3.995756735677309 5.644465088882223
Ag 4.482939628576629 5.3693459024351515 5.859200416778715
Ag 8.77041161116176 3.839145663565262 3.2257052549396765
Ag 4.097269404014456 6.729854686983986 3.505314032739846
Ag 6.4850669114341315 5.442546935245756 3.2221258147803704
