29
Energy = -59.49387459 eV
Ag 4.0096370840547015 7.111328545308231 6.689047365789266
Ag 10.650429728125376 5.606574048114617 5.543671844114369
Ag 7.852303423870512 7.893390429220488 2.372200359567552
Ag 5.811932834404837 9.355940413481013 7.035728731309091
Ag 3.7360855661140917 6.080289051221975 4.104786850441836
Ag 5.804591573243629 10.079395338332404 10.645722717883144
Ag 8.041172113872154 4.838969056548117 5.887983037193693
Ag 9.502126451362 7.230636585692031 7.627508037888412
Ag 6.981757065189514 3.9230762428282215 8.348944858683407
Ag 7.116629909181889 9.70073383567603 4.359611931766407
Ag 6.320547721290677 6.8300773455434864 4.646068307985856
Ag 7.675553873508993 8.710783747111407 9.19998625090574
Ag 4.506352205254233 5.189823712143442 8.75284485963269
Ag 4.433961210399774 8.875985386272246 4.501226847874942
Ag 8.982711947044638 7.748053990357395 4.93552139228591
Ag 5.695979787368356 6.115457193363184 2.0383576223658966
Ag 8.714786030226232 3.3690402807646658 10.443109282063038
Ag 5.235856026115516 4.597864515819665 6.101021225446649
Ag 6.70448373085477 6.6827092551773 7.495574604711788
Ag 8.098125928392324 5.201148591003045 3.1493411358478522
Ag 4.015971457049848 6.207854512856417 11.292260154270844
Ag 8.4807704904679 6.1170204543545825 9.987605237718364
Ag 6.3025838357731825 4.677437161039506 10.988782430757222
Ag 9.816150033451507 4.487058714260326 8.103005262733785
Ag 10.44909674141095 6.646654409877109 2.923349376162048
Ag 4.74649631548905 7.9693212326598495 9.25481693490467
Ag 6.500827074284015 7.498369760899358 11.445421426244108
Ag 8.560940402272156 9.799345130080415 6.77643515347934
Ag 5.223716312491231 11.427237932557475 5.321643632536243
