28
Energy = -57.54448322 eV
Ag 1.7067675387070222 5.963173652076253 5.851621893538399
Ag 2.4875675062420313 4.952912157999824 3.3133727331612617
Ag 2.377303444196572 3.2083342862210804 6.100340051572767
Ag 3.418869915317733 7.593238591379899 4.15134751759735
Ag 4.03690574240747 7.513619069663074 6.949804196781926
Ag 3.24502218530648 5.061183391009766 8.17687405940894
Ag 4.254898281721411 2.8371459325504658 3.989877517305676
Ag 4.249835086735724 5.126691153219746 5.439099351898459
Ag 5.32732175958547 5.272212505949655 2.7448174456563406
Ag 5.283004825280777 6.990921458704338 9.566283276134797
Ag 5.172844225821326 2.6814552639014053 6.751000727654422
Ag 5.268042504191425 9.745987398078377 8.525710148105626
Ag 5.481121289701498 9.624554724672018 5.55084775894997
Ag 5.960969575699917 5.1707898241454195 7.6520172617060505
Ag 6.8205148186924385 4.087273211621211 4.874506389959624
Ag 7.76624092845003 8.778924186990322 9.78742946527168
Ag 6.7829245075586835 7.916819877315463 7.3648931305632965
Ag 6.089186475820756 7.105842691567673 4.675121995330105
Ag 8.199011449550268 6.065746851080481 9.130750890091166
Ag 8.301088478505822 6.060305688323625 6.210798472587913
Ag 7.871330978751794 10.443804953528039 7.25415603036031
Ag 8.12196999767146 3.518464457242752 7.429326574920091
Ag 8.309242896157096 6.144382364528101 3.4036339798969073
Ag 8.357141021991275 8.754325504494204 5.043608659386466
Ag 9.652818601671857 8.17896479322377 7.642847482423346
Ag 9.79529258432459 4.188898881613591 5.0892142519748536
Ag 10.53517594507881 5.406346457449746 7.678672702316724
Ag 10.619927735417715 7.071318864150371 5.127213579033888
