26
Energy = -52.98314013 eV
Ag 8.959174530781368 7.425327050129332 6.11498501592738
Ag 10.253323196052005 4.9371797008290805 6.2101331359452985
Ag 8.71126473477896 5.792032181705926 8.426332054978033
Ag 5.53283092590485 8.129729186378622 6.666716634875195
Ag 9.305914930349827 5.968752667331122 3.767153170170214
Ag 7.754690083098814 8.483005487421766 8.413265729197818
Ag 6.884352200798371 7.279420555470825 4.20901880454015
Ag 7.477514182732931 9.727161985433593 5.544736016793027
Ag 6.806835657004984 5.438550755605519 6.440837318503419
Ag 6.112585830757167 10.788460615076556 7.739375262542984
Ag 8.429343567911227 2.943859735097065 6.846108205767858
Ag 9.372303169573806 3.210056737773563 4.220338726644719
Ag 5.271965912503354 8.992898519886113 9.68608065866525
Ag 7.047309911537407 1.8193029590494623 4.656299769274986
Ag 4.686593918563583 10.520162760312143 5.327548777183915
Ag 3.424126928766414 9.946092683391791 7.803656298987903
Ag 5.988751844597313 6.376491355005362 9.094366861932835
Ag 6.858768619904545 4.497081144066288 3.7546012231103885
Ag 4.476394923071801 8.387878010593825 3.4123437770433536
Ag 5.7943961372207164 1.9103586756277804 7.141626900738688
Ag 3.4390103280485786 7.097333017477715 8.11727652957153
Ag 6.749406917115462 3.7824777744837057 8.891313925090575
Ag 4.3559120944219245 4.518216571981535 7.509703095559183
Ag 2.854734512775309 8.350281466837204 5.628472296568583
Ag 4.436104781373544 6.040594816132665 5.007026068483297
Ag 4.673857408027445 3.286151580027666 5.021720798092555
