26
Energy = -53.02593742 eV
Ag 6.482145655477558 6.084095171784904 3.104254810882424
Ag 6.506723793288684 5.897991861254537 8.753221389662325
Ag 8.856119423832064 5.245142220521542 4.486848597880166
Ag 8.813782392825125 5.177037867123168 7.38261444418663
Ag 7.932579983054529 8.034037364514282 4.497499502325314
Ag 7.981772033543361 7.995281773132965 7.482950099474791
Ag 4.9833542580310635 8.057023175608455 4.42775490790966
Ag 4.922905584972111 7.982820499948858 7.3710275144488735
Ag 4.094404479866557 5.288652603880141 4.45010585891549
Ag 4.059946919476715 5.169200938997802 7.413457312041648
Ag 6.5068540271954145 3.5937876604138497 4.420850102160192
Ag 6.46668412402878 3.5088784876374435 7.29816164814951
Ag 6.467622024731688 6.039659245879985 5.90889698317587
Ag 11.094472593772304 4.497045674761009 6.0123653852297165
Ag 10.285583493790497 7.202295922793349 6.018741364613821
Ag 9.352306238814108 9.87617597804823 6.001213621388518
Ag 6.504619246756587 9.954698044284985 5.909028795987497
Ag 3.5000987261328027 9.907442766802571 6.023397863498818
Ag 2.621898012554823 7.231830053518123 5.906988699773154
Ag 1.8432929141098204 4.536115072058057 5.892394177427766
Ag 4.112749782536967 2.784544625416366 5.869363622049231
Ag 6.414904471757244 1.1904581366202822 5.764374954333152
Ag 8.843982862917306 2.7378189652966647 5.839649297491878
Ag 5.106383815479848 10.651854557424128 8.17625850132481
Ag 6.328494090285262 8.537677143181785 9.70112370928285
Ag 4.076577050121094 6.747731590788084 9.727988443966773
