22
Energy = -43.71720723 eV
Ag 11.387438123900456 6.390118239028543 6.176940645391009
Ag 7.155005507974876 4.316393502466328 8.936848008929733
Ag 9.325470888518165 8.204587792438648 5.828926858025939
Ag 8.994768903317505 5.9406946534785785 7.546488257195463
Ag 9.200233157420366 5.571113149635772 4.741917562374727
Ag 7.1739357086371776 7.412228384453597 4.207719719043195
Ag 7.9469007457478185 6.657925950963811 10.127463175354913
Ag 6.068435085929056 8.759006830506955 10.292752606637277
Ag 7.7702180288164415 8.454792199695422 8.064685760962837
Ag 6.908358144799398 9.711510998304872 5.714478712785444
Ag 4.960887910350857 7.086341286145694 2.6481169267978517
Ag 6.385343882302293 4.929849368698206 11.530726160866957
Ag 6.795214625278336 4.7474381558731045 3.5027025069026605
Ag 5.055883424705649 8.910763516468378 7.73604964545724
Ag 4.64020981612781 5.590446108524156 4.992801912302739
Ag 7.205266316054963 4.239528763535973 6.20420336237355
Ag 5.888804326248372 9.65987046629631 3.051917044612373
Ag 5.219031682928662 6.331011954690966 9.290539108990677
Ag 4.459479284079307 8.426346075011638 5.1080094728711405
Ag 4.693054048122299 4.239299493152887 7.464087828540915
Ag 5.131876478829937 2.8817456282708855 4.986031519990943
Ag 3.474278531201244 6.756496744729851 7.1673368252023195
