26
Energy = -53.02298649 eV
Ag 10.221236548061936 8.792916680970448 6.670712995858867
Ag 9.655475321699981 6.9356322849632654 4.6554164180629325
Ag 9.27526248411846 6.263378482551783 7.312330681180885
Ag 8.09808670672226 8.785305329962588 3.2537537856050407
Ag 9.201082442840942 8.240498819950648 9.287503841772878
Ag 8.239022821505182 10.4347116148952 7.750385270378946
Ag 7.505967860107799 8.349019382618573 6.012935302514027
Ag 7.51705830806783 6.023590963477195 9.51494591347364
Ag 6.978882616466821 6.352480826812087 3.89853640133093
Ag 8.40220714091654 4.305270933579236 5.183898389294875
Ag 6.503074026956899 8.503377572190463 8.73530210131135
Ag 5.410100831906846 8.624577090515475 4.038557458606445
Ag 8.336058503339023 3.723969630472292 7.917456432197218
Ag 6.414483180818774 5.643161088242231 6.715011256452186
Ag 5.927656070027443 3.8421352521753165 3.892765532705364
Ag 4.76614478679471 8.108001271846607 6.674028668228715
Ag 5.811207883163667 3.837632931878978 9.000556764326342
Ag 4.234658143069271 6.0535808631065695 4.613922729868929
Ag 4.655834817146925 6.369220322918286 8.847412596130996
Ag 6.228328753774744 2.6484849593474316 6.384210011680115
Ag 2.724143834074559 8.46870998717529 4.875192750525154
Ag 3.884291229496402 2.2853351579931283 4.892248726502765
Ag 3.433802549281602 4.1102571192204005 2.725749394003224
Ag 2.4459090753707997 6.484927212315028 6.846970870065959
Ag 3.8976159004647877 4.132397353952231 6.994100689619008
Ag 1.9543920246995756 4.407118458645384 5.05007997501398
