20
Energy = -40.712045 eV
Ag 7.002161847716975 4.204133786026019 7.882085838661086
Ag 6.55986097014449 6.5567169159988214 6.033233623697434
Ag 6.569793177754279 8.182455164759103 3.52591223287199
Ag 6.553199952549863 9.356347045129388 6.102585845469714
Ag 8.902544966513187 7.8931870002164315 5.149924201952836
Ag 10.81680854620808 7.046795552655522 7.069209906335931
Ag 4.23339787670835 7.9233448424007875 5.150127733924778
Ag 4.0142980831967625 10.007219638431648 7.067203829130717
Ag 7.963046329240137 5.7418632828841005 3.5267239457613884
Ag 8.378201503452528 8.116499759850031 7.884809317906915
Ag 8.9895487290144 5.167187484490598 6.101591036483442
Ag 9.188851631053895 5.621957093880502 8.878537061449528
Ag 4.846193408044853 2.634147186242888 7.068234276426129
Ag 4.441839867405573 4.75238638144581 8.87866518522326
Ag 4.139623285288607 5.154991199823913 6.102226087315375
Ag 4.2993395156254195 7.35764664249573 7.884528353024589
Ag 5.146583814262664 5.759572971349493 3.52747449122723
Ag 6.053715275762402 9.304785621646056 8.879217704648841
Ag 6.544054554592879 3.8610384505389623 5.147031180118313
Ag 6.560782143576893 6.561569457846443 9.344523626483898
