27
Energy = -55.15628493 eV
Ag 6.7566795233194155 8.845394114135317 2.479153029724082
Ag 7.7462057139565905 10.341378727959752 4.880751811209315
Ag 9.86203555767693 9.023539746965302 6.146874033113895
Ag 8.350534934894403 7.570992311998619 4.270870939197315
Ag 5.984263551087786 6.175917768311326 3.412108763437978
Ag 5.5062182126982835 8.54257670731413 4.884687977074247
Ag 5.5115632886262445 10.836344233388951 6.5240709975754685
Ag 7.33780024600203 8.802553910671037 7.275788990273867
Ag 8.314777116478728 4.665138783152258 4.172510018844495
Ag 9.58351293653706 6.118132599037853 6.22345627347006
Ag 6.66434137703618 6.221441136544502 6.181494408767595
Ag 3.8829576522829425 8.501798448617398 7.051809030277417
Ag 3.9882031482281852 6.058084370881401 5.464040708526878
Ag 5.663945831816871 3.8334348009980728 4.898147850436137
Ag 9.968339883401725 7.606199484427404 8.569172993476773
Ag 10.302489257038047 4.574008086263143 8.35450549236004
Ag 3.07543263867966 8.263668635634465 9.677540332586242
Ag 5.347579369816796 9.834251685874635 9.150368807802282
Ag 2.9984481503036307 5.871214753058992 8.056340943669097
Ag 7.757444792850142 1.9547346148025904 4.747755769350724
Ag 5.446365247555932 7.046804974581271 8.854383105093843
Ag 3.320830542935879 3.4815718103708972 6.61363841118798
Ag 7.651287928899237 8.369023469274284 9.99150949105467
Ag 8.048712982692624 3.6596725393760443 6.858836137891797
Ag 5.487638705543652 4.357675303207139 7.985979870043784
Ag 7.87663933453239 5.79474552576143 8.720046069717219
Ag 5.732121964352901 1.8250250690462584 6.772319565918361
