24
Energy = -48.36096898 eV
Ag 9.921694785575303 3.386221477247285 6.461888547391282
Ag 8.119293634983174 1.5157231329993646 5.493679704371176
Ag 10.079916421446903 5.901902212926861 5.212147658029328
Ag 8.726006011972594 5.666446499120018 7.655123294340982
Ag 7.682691520195464 4.255237401084768 5.129117738926971
Ag 7.439133240348448 3.077266860209479 7.728633813590663
Ag 8.782203845699971 8.230030289263821 6.185757114359614
Ag 7.830670890892471 6.841132607004043 3.8657099009258364
Ag 5.118019160664912 4.0075728355085785 6.54495982346664
Ag 6.1773096260403255 5.257968857926351 8.88921478191208
Ag 7.465433484034914 7.957496761724604 8.703835970768978
Ag 6.386333499253346 6.611238949495883 6.365268211252836
Ag 6.44179442715227 9.09341483903898 4.831283004832116
Ag 5.428267061519368 5.240830834305211 3.9556743566984567
Ag 7.076890005476857 8.502197072699788 11.41242231901512
Ag 7.28777765551882 10.425843440737953 7.159467378222249
Ag 3.250214804895029 6.067705898838269 2.543867297363904
Ag 5.484397430290415 7.721547806902566 2.5859294983994006
Ag 4.941539983844116 7.558448192985928 9.84921638944853
Ag 3.8186965055242403 6.2908262127164525 7.630714063315395
Ag 2.8922607407625875 5.034540964895679 5.233635132830101
Ag 5.980753969605798 10.241571213732971 9.576130959237531
Ag 4.950139965766038 8.90491885300595 7.314973460656715
Ag 4.037361863136777 7.5483807510965155 4.9911056936912495
