22
Energy = -44.22106793 eV
Ag 5.340429354649265 3.628975938383389 8.300224049204656
Ag 7.006760304239403 9.973915929280517 6.6355420667333105
Ag 5.8609046892440295 3.8171449847781638 5.594635158896221
Ag 3.1906137866808315 3.6462963180810983 6.4815600046357655
Ag 1.4557449674688854 5.8024414344019695 6.324218905973739
Ag 7.991443164644782 8.654982032429462 4.414084573493188
Ag 5.124141685792084 8.395518350243796 8.080049565238205
Ag 11.721891534011725 6.99659731920992 6.837160400436411
Ag 5.289109408670971 8.397966407488477 5.040244019437537
Ag 7.7896637022334065 8.536759730210456 8.855234150814141
Ag 4.016335869984454 5.920824500588757 5.055300717729311
Ag 7.997685426354358 3.9536440038359166 7.543397388811576
Ag 9.343497707440708 6.336530527401846 8.145611053309514
Ag 6.53554880880466 6.076961935159677 8.635566440072491
Ag 8.512181360216998 3.964585782699554 4.799550864393412
Ag 6.772599510174514 6.144289754905485 4.45797630261017
Ag 3.7740368633804326 5.965614045843526 7.961855482328214
Ag 9.575873357441626 6.509117454058347 5.139623091255894
Ag 9.63003971117685 8.819231496312645 6.738029365001716
Ag 4.2589047740606 10.500742779504215 6.5186102022961645
Ag 2.778809136538273 8.175546609065924 6.4426775394539275
Ag 10.657334644820041 4.405862434145083 6.6223984259033415
