20
Energy = -40.25380489 eV
Ag 7.7930888681223545 6.434914086799053 3.9088469226487246
Ag 9.974665098164799 6.431023445265831 5.638071032720296
Ag 9.668074129036329 9.205418296331768 5.545536846700276
Ag 5.789391485069678 8.435416905953918 4.041448042478318
Ag 6.977148650113983 10.3564332105364 5.796289998635628
Ag 5.406928713351441 3.6364012832906183 7.00804413090389
Ag 5.323073583740109 5.967899614635828 5.303807410514186
Ag 4.771124847458786 8.511008794717945 6.680504587505909
Ag 7.774685026872394 4.899922295394486 6.360286828848267
Ag 10.775555971241301 7.857037296313596 7.856367134086821
Ag 5.646239619380825 6.201640393475813 8.045268787703467
Ag 7.453086383575475 7.704032081544089 6.329400045846906
Ag 10.087557792247924 5.055544576069649 8.069448341960964
Ag 8.605876662492435 9.655909003338007 8.116878510137362
Ag 7.429940155450159 4.303237322265129 9.061991955824608
Ag 4.604283940211945 8.299572394905658 9.50560798077598
Ag 8.348587369226088 6.979656747151409 8.975571469667157
Ag 5.932787461963506 10.454263867702188 8.386071704275277
Ag 6.2718837219678045 6.3724890929263545 10.748439981917308
Ag 7.1804415498675125 9.052600320936563 10.436539316403092
