24
Energy = -48.36776494 eV
Ag 7.225525423880543 4.188012937361838 4.369118704953483
Ag 7.336514583710364 3.623251992969062 7.199472037630777
Ag 4.931140179929007 3.249184225448587 8.62455219294351
Ag 9.537227816304096 5.118804586760805 5.573186766111178
Ag 8.979247061634155 5.737713091893564 8.294069031571327
Ag 4.851502233347872 4.159484679081257 5.9043808619363185
Ag 6.443780065749599 5.4959329084263455 9.347567547164337
Ag 5.3061458046217505 6.178297017729669 3.9477285685213075
Ag 8.06935242839604 6.891004737660151 3.850982542477354
Ag 11.399941021169514 6.381148180912863 7.164400594965583
Ag 9.47947646387215 4.79731861453551 2.8083052534346287
Ag 6.726890194341977 6.2172071941951375 6.490176146213503
Ag 8.156875085045177 10.314907086887365 7.253745035876542
Ag 3.9118063313619587 8.553399447022532 4.210428455647687
Ag 9.143257312817687 7.8554452222437705 6.388495026597962
Ag 4.133867241368549 5.2775531694409485 10.832112814601992
Ag 7.380326737250718 8.03488850928775 8.628495401765703
Ag 3.791626187565821 5.659688375139046 8.071054624021171
Ag 2.965305519566103 6.199570203035479 5.431693082739552
Ag 6.19338287712088 8.426169675257427 2.5641448581038655
Ag 4.769489075374924 7.775817638184187 9.688503218888744
Ag 6.61550875624026 8.84546296749671 5.377129364897801
Ag 4.277128206320226 8.15558676596806 6.908709900288883
Ag 5.5922661882106555 10.08173356826226 8.28913076384712
