29
Energy = -59.89113207 eV
Ag 9.393916416229233 6.562738490182624 9.540657819132251
Ag 10.0881636490304 3.66631553924743 9.382194463256958
Ag 10.104816923200362 5.262626820153462 7.112838746813325
Ag 10.585772773152456 7.9649669547899675 7.297613106020147
Ag 10.369909619343685 2.5358289068627857 6.775929491178177
Ag 6.623274766346344 7.143178494588092 10.118759247224947
Ag 7.599789211482027 4.514450173798822 10.247136847316895
Ag 7.275341314440814 6.034873471006963 7.631807794445577
Ag 8.054817707556287 8.676662945276126 8.170152483797875
Ag 5.3128927585880685 4.3181607531511865 8.632249492742785
Ag 7.852714555270239 3.2445629337124244 7.731439984478681
Ag 9.070455571190008 9.684688628876621 5.745354545514379
Ag 8.673472863319995 6.969593083297179 5.3445774757742495
Ag 8.670352804939519 4.023661416450858 5.075616132302568
Ag 5.973642168973146 4.22709133766563 5.840156137486875
Ag 5.5397358825132885 9.51125548299883 9.034851794059545
Ag 5.749660639856269 7.166854751692834 5.54771585926923
Ag 7.14677066612976 8.87132166113762 3.801118344114313
Ag 4.54729647763374 7.052053296293984 8.112754156710608
Ag 5.157235986835284 7.423682044660249 2.467044331817497
Ag 6.9739792859591345 5.5944245428975385 3.5381108462567057
Ag 6.3040734937296 9.882210751165664 6.296733017018693
Ag 3.3587671268210366 4.748605030680361 6.719411558324843
Ag 3.6468683291494255 9.647112603733186 7.0738464874017515
Ag 2.4594064397549147 7.345667381270107 3.0945110900277464
Ag 4.139377974843706 5.297874825009929 4.012477188386059
Ag 4.322476257245615 9.34133640689591 4.317546953710647
Ag 2.836400936357733 7.347706434242711 5.834530855841828
Ag 1.4407595758479383 5.228775465208568 4.729521381711016
