25
Energy = -50.22056318 eV
Ag 6.4785020379091645 8.245801756316984 7.4730125384306625
Ag 7.02527926429809 9.59405367595774 5.091675660692491
Ag 7.783084415077139 9.29213130911492 9.695829038571357
Ag 4.53806145461283 10.008181108469559 6.542156419072387
Ag 7.488791452149823 5.054052889995438 1.912880235979323
Ag 4.920135144547681 9.626820797024816 9.323103629709102
Ag 9.663032908820163 7.25127384070999 8.990084966730612
Ag 5.212909380378211 5.515996947897943 3.3759547266292182
Ag 5.776521115567485 5.67141631931608 6.126870461719248
Ag 4.855287097873452 4.600703838843018 8.478321382726582
Ag 7.423221746692519 5.6115138109332054 8.698600159157559
Ag 9.071587885029118 9.410057103908002 7.19433404716834
Ag 8.444132335570522 6.818136256729838 6.196488010985663
Ag 3.9107011808284375 7.308973906336672 7.556165777798089
Ag 4.783720594044517 7.871117337688555 4.789360838813725
Ag 11.101230417873856 7.434825390157764 6.6115737553038425
Ag 7.89071660535847 6.8813591996346055 11.225255988147556
Ag 7.893480292094496 4.602113776779728 4.586838037075175
Ag 7.162980161486002 3.432888160161336 7.054258147597271
Ag 9.768719532933451 4.810420789440863 7.428695932094749
Ag 9.619408079671372 8.628333533978406 4.489341596681812
Ag 7.357623307022486 7.251678798529407 3.593221413655793
Ag 5.388553056001939 6.941539472881808 9.975747476756604
Ag 6.028701391087685 8.932741495529031 11.803934346788502
Ag 9.945985908346998 8.73623524894034 11.318662176990362
