27
Energy = -54.79795433 eV
Ag 8.958996177451018 1.2258882581381745 5.6048034682496715
Ag 9.154130664538663 3.6123976076871185 6.932515402921337
Ag 9.129393534199298 5.606579242156225 4.96872963902224
Ag 7.599716804071083 3.3541133033205495 4.509371512436628
Ag 7.037397419664381 4.214611018032498 8.806364016508708
Ag 4.973261529150159 2.3131052750556096 4.91510602419602
Ag 6.7362846181063345 2.1467745763930095 6.991121782300775
Ag 7.225777037413217 6.654436287420132 3.215583271843608
Ag 8.711584121527594 6.246664312216981 7.641974513575849
Ag 8.125472669583095 8.132088337781136 5.5172218030794555
Ag 5.495827875684927 4.501252180403786 3.1603528301193213
Ag 9.936177443247662 8.044903967199003 9.40261654090349
Ag 6.2783315223900376 5.76806158673358 5.6980722577862535
Ag 6.149228295637 9.162857195134158 3.760671857945552
Ag 7.674384102534396 6.626469310979301 10.191049674558936
Ag 4.591644541137938 3.9543804802831173 7.2418725651861555
Ag 5.626245937022624 6.536961764148954 8.354920285695977
Ag 3.2260757568451397 4.445081669553316 4.671646755956609
Ag 7.5458556915715835 8.752814488524276 8.227079101494336
Ag 4.315089745167899 6.968292869540686 3.87117209972063
Ag 7.129974888101632 10.674943668245312 6.2262853630585715
Ag 1.7646706136674333 4.474019808845703 6.980814172075855
Ag 4.581260214524774 10.986175397632497 5.161281349253241
Ag 5.354219348582182 8.555119573312515 6.376018113835946
Ag 3.487497232933036 6.538084541348528 6.606464555977445
Ag 1.3943140210857532 6.5558740414651 4.782126558378535
Ag 2.763158507584757 8.914019551871297 5.150734797341707
