27
Energy = -55.43632821 eV
Ag 7.108867143680437 2.9847495338799424 3.5356348492883014
Ag 9.030800096352317 5.134977484672618 4.144034830825239
Ag 5.461181470177572 2.0402883128636797 5.727165362319411
Ag 4.250922265621995 3.4774296478073783 3.6306524061451593
Ag 7.4715437422707565 4.000173879805541 6.097388343292815
Ag 10.160647757141515 4.733426432446708 6.751290621168116
Ag 6.162436996819022 5.5407390479941885 3.6880101552543856
Ag 5.870163208005762 3.28724088403591 8.221553871534717
Ag 7.992265754842621 7.666243982937353 3.6494718928865737
Ag 10.48803344676574 6.772242124341049 8.603056863870032
Ag 4.579033264388248 4.661276857906373 6.13082187990738
Ag 3.329204915281617 6.097625887355867 4.0571902354246845
Ag 9.42692468507668 7.29247850923334 6.037379882090845
Ag 8.002268190707548 5.539758704416547 8.407147399607362
Ag 6.589590016834445 6.8527881182080135 6.251439670415482
Ag 5.283452640800904 8.1878507703807 4.034740504358561
Ag 2.582242286123003 8.744291441421847 4.515111137196984
Ag 6.436453948504265 4.575425651513111 10.5932088661334
Ag 8.406560129282399 8.653546412092364 8.280605781451092
Ag 5.1327470221145415 5.970945451957675 8.589389072728462
Ag 3.7821249256605394 7.384505602863788 6.574813101439227
Ag 7.544365628342729 9.426888417968998 5.71515641171379
Ag 6.952338419658272 7.2997631672369 10.36022071252972
Ag 5.518559955575959 8.725230521339892 8.402132880197735
Ag 4.770506240208163 10.028223071219733 6.059054626109744
Ag 7.07477184839713 10.039598280103418 10.341740138791161
Ag 6.839914590041296 11.08655086422155 7.768772371628097
