25
Energy = -50.66742125 eV
Ag 5.39637874118642 10.731855027455616 3.06979738123582
Ag 5.865186995308812 10.48653879689056 5.7931105262224225
Ag 5.076666900861302 8.236587701243185 4.220477049820577
Ag 7.688672538836874 9.290254470994764 3.693407371119074
Ag 5.12392961727006 5.90917503743072 5.770251068648749
Ag 6.7774867779629995 9.567353651346078 8.421656444519078
Ag 4.452150646434816 8.414557416297525 7.123315359512309
Ag 7.340672488050206 6.449136509246721 3.857679600983076
Ag 8.659713372490335 10.292483050378818 6.250113882071186
Ag 7.1073577570666115 7.934944835722435 6.174886010251657
Ag 9.674948437676333 7.843506989639008 5.1132706536108685
Ag 11.096371618637765 6.305225394007926 7.003549796997379
Ag 8.829771176301866 5.959141157405 12.181840383117706
Ag 6.08969512972735 6.4325068090975694 11.574008270976009
Ag 7.755411725157695 4.731791553727712 9.978851311211224
Ag 10.186865602102735 6.099787461669013 9.701613151634307
Ag 5.972230920216437 4.15492135845505 7.782379405257497
Ag 4.583889435969006 8.2638485946998 9.972720051685723
Ag 3.7308060397053 5.974119153677001 8.243671284557065
Ag 8.513027804664315 5.361679154450451 7.360631873506029
Ag 8.084351093552844 7.9970632484033635 10.474272925406389
Ag 6.3764104912619795 6.750848831104492 8.637167737411168
Ag 9.293819137488146 8.166083063617872 8.003822723294086
Ag 9.665084020009711 5.094771623959085 4.839429047588223
Ag 7.097853832177422 3.9905714091976185 5.1968289894795925
