29
Energy = -59.72972463 eV
Ag 6.266159907916426 4.173375356550056 3.9884059194940864
Ag 7.446445221767083 4.211891991934422 6.604232955673425
Ag 3.7867983714433966 3.2158121822156347 5.100360142556593
Ag 4.877417362120732 5.595535261857509 6.036170835903913
Ag 10.756907688532133 8.002032837553461 8.490901611291706
Ag 7.9524110348550545 8.329702985384646 3.7452854227340495
Ag 3.5678686277417264 4.0447938344771845 7.973006972804519
Ag 8.22943809640518 4.277736657858382 9.344683454987514
Ag 6.031191940073222 2.7295836856182976 8.463778540028823
Ag 2.067158861050407 5.387985801495568 5.9876164378515355
Ag 9.68649169216365 5.704035847678799 7.335816490891523
Ag 10.740175697222304 10.36160549147695 6.940571916074384
Ag 5.843751577675232 8.483589466680213 8.558958654745599
Ag 3.71297805403911 9.718006476805812 7.2648211648295
Ag 8.19133666784039 7.068391743221471 9.321207341349538
Ag 8.252114633060419 10.348159799815331 5.58562827600674
Ag 5.821594668802241 5.637302783759568 8.750254760561432
Ag 8.414368141441047 9.62517887153033 8.29195305372227
Ag 4.005498460016221 1.3697650338338336 7.250991882075537
Ag 6.174270393327968 11.059043700252825 7.379891718067744
Ag 3.414876219610866 6.980020135624398 7.9881720835742085
Ag 3.2433189848855424 7.785686516156876 5.2650838120484
Ag 5.661716054874455 9.317677671678087 5.27195055828618
Ag 7.2093830669044845 7.154849564013321 6.473819738880646
Ag 9.88253814172624 8.037199049096172 5.786396010432866
Ag 5.529269827781948 6.966137121133743 3.7648423070035957
Ag 6.201648164409422 1.913878978562944 5.638421650417162
Ag 8.698676730945941 5.699576511509509 4.592060798984866
Ag 7.509036801165791 5.981988101935682 2.134458489761444
