27
Energy = -55.47149424 eV
Ag 2.456789537059997 6.194888123660679 8.721549272783562
Ag 1.6509445333778354 3.863904852253283 7.4824272703369195
Ag 3.4929732206748887 8.485562221584859 9.965263774473764
Ag 3.4415092782852943 3.2065465626614875 5.425030378359672
Ag 3.5467131878573652 8.27151409406273 7.181565644403068
Ag 4.384057356123615 4.2654829641317065 7.848790633051114
Ag 5.195845195704926 6.275257427269562 9.553825922693433
Ag 2.727157066563077 5.919655107230733 5.885709749416697
Ag 5.9435076881343845 8.762800923522578 8.635084457290139
Ag 7.231056649785743 4.859640595821407 8.189955604175962
Ag 6.260165056057136 3.4961861328474355 5.912128491629884
Ag 4.080916576723561 7.903071551137876 4.440673128402968
Ag 4.881744728970363 5.175742536875665 4.078954124006949
Ag 7.584766971959056 4.560722623214043 3.699311391265872
Ag 5.703936934114329 6.4865735766633685 6.4906926802986336
Ag 6.763571534505062 7.257413716115614 3.926886235772185
Ag 6.045020896028049 9.818824644421097 3.2623772064747043
Ag 6.009136119436091 9.335151317624181 5.93131762144388
Ag 7.913487678741932 7.056708700948934 9.77310641312828
Ag 8.994267492400725 4.098802956509931 6.135162074602427
Ag 9.865671436152923 5.993774580323605 8.017751203409432
Ag 8.111400339064843 7.912002043935214 7.07625118971382
Ag 10.346200934816553 4.190475173344761 3.6836243044740065
Ag 9.316187563856358 6.559744308611738 4.725004687086472
Ag 8.621521141434023 9.283725830826846 4.634949014504987
Ag 11.56959450734769 5.471891796672315 5.905105165887269
Ag 10.781099645557088 8.21317890846127 6.336745631646973
