22
Energy = -44.23853452 eV
Ag 5.252424514954758 5.497666430387051 6.5818722963287
Ag 4.233582332437808 2.893795232716436 7.602298042940977
Ag 9.479992380954657 7.396406271142278 5.412389813220332
Ag 5.076606283905801 5.127437436545149 9.334437380666849
Ag 2.632326425491844 5.136518960486452 7.657332129136933
Ag 6.684726211325796 7.382765893212802 8.404629857629423
Ag 3.9486282651556355 7.512024161152601 8.05767224811083
Ag 5.551194607447102 8.412552484930744 5.996498847424811
Ag 9.832221067663445 10.174490201054594 4.801061696218833
Ag 9.472634784674536 7.169351227578969 8.265258386476923
Ag 7.148351589978796 6.190979625438562 4.340706159487838
Ag 10.919417431797836 9.167931512491325 7.135015483397687
Ag 8.24985450693016 5.1858832762389575 6.687285295562423
Ag 8.076923757990656 9.30477368533377 6.882500919229029
Ag 3.1844930548266457 6.838104351892932 5.296430524275555
Ag 4.780437932070899 5.107538547804198 3.465308067158801
Ag 7.510091091501926 8.967902918755764 4.066247215659078
Ag 6.320020890298508 3.4660966634701635 5.217726056440049
Ag 7.945231129824543 5.203046994889502 9.539719162825957
Ag 5.040753711684656 7.8491055549145825 3.3446990289936744
Ag 3.1347325369916135 3.897238018783191 5.243907984143143
Ag 6.895097911431971 3.1839405349190035 7.994742155586619
