23
Energy = -46.12818433 eV
Ag 7.901809255024606 4.08664342210669 3.0064746287536557
Ag 7.491407646985033 2.465182197017265 5.253563591206502
Ag 7.425751699455173 1.2782119657655397 7.69343658936246
Ag 5.499704786149423 4.423786068708504 4.425876963531413
Ag 5.995722833191162 3.7352348467695538 7.215999886358115
Ag 8.147263491001832 5.166862945988927 5.571979571851557
Ag 8.808726640736595 3.6321573292639555 7.810747716920246
Ag 7.317983967567316 6.791712304418373 3.47020842988309
Ag 4.549338866148711 6.8621501469323105 3.2791390655759103
Ag 5.6710669353875796 6.715176342991682 5.927768010888647
Ag 3.5857707852888394 5.046723018998414 6.714394374912199
Ag 4.804855497693105 5.287146057020431 9.212686858013114
Ag 2.880534093569469 7.424117706584658 5.411494343457128
Ag 8.406662618451529 7.968062270534183 5.842644987250317
Ag 10.015247477926787 6.199262546222885 7.449041665443209
Ag 7.349736145791182 6.060709766253988 8.159629421729905
Ag 8.77175900895849 8.448332202127272 8.614775702621179
Ag 3.94245423870912 7.641316351555639 8.007342578591087
Ag 3.4708752714357516 9.46691135121925 3.5198649930243744
Ag 6.095033032705339 9.11258989113089 4.498485449881361
Ag 6.362904277946404 9.104586898127435 7.411157528300231
Ag 4.035467652881406 9.88004111942355 6.198687926996993
Ag 6.114942602084207 7.776824034081772 9.858336995356623
