29
Energy = -60.33010211 eV
Ag 10.922752127735745 7.310635669775069 7.053076952239841
Ag 9.815241610716173 5.4059872945387655 5.160395120717993
Ag 8.803140436553424 8.034150024759883 5.434872320778255
Ag 9.03879770946395 3.066538082582353 3.835266376964988
Ag 8.755564749272366 8.799457643573543 8.298329395246112
Ag 8.604128969870022 6.019223489780558 7.650526943954541
Ag 6.9029523927205565 5.859821692899597 5.196144567951464
Ag 8.072562259626705 3.5108691997240045 6.454914483518027
Ag 6.997730477108449 10.13559182554583 5.468760209283818
Ag 6.862863246414763 8.068159503762809 3.354622187588925
Ag 6.541888362914107 10.61365488947397 8.150399635376587
Ag 8.188419318799564 5.55986989201998 2.788152658459094
Ag 7.020649700409257 6.964582013084509 9.765799600519443
Ag 7.4828710741644 1.1276514905710633 5.2328614262674575
Ag 7.195208981076858 9.581789340122398 10.628024268287538
Ag 4.761068683147718 10.108221645344784 3.8872461574855794
Ag 6.262228533633301 3.324019926606664 3.956062302502458
Ag 6.376996553318347 7.883175473569205 7.073177566725331
Ag 5.333212836238479 7.827436015953647 11.833449220692904
Ag 5.426522762224634 2.49705106139731 6.5825272426567
Ag 6.04386376554895 5.0110958397926515 7.862023712781913
Ag 5.3671154898946885 5.704519620424004 2.809106578548535
Ag 4.708719692034567 8.771737902391843 9.297745867403512
Ag 4.304090222027361 9.714317445150892 6.648773614964595
Ag 4.461111324497062 7.5321480333403 4.764326129070493
Ag 4.27932829309703 4.802725079205373 5.39674642459169
Ag 3.742604997306604 6.852730126628476 7.372758621932924
Ag 4.354570152390469 5.964694016354091 9.989915998318088
Ag 3.488945887201826 4.080582730180357 8.015376344921643
