22
Energy = -43.63519591 eV
Ag 8.026009912930151 4.700143197282782 3.4022279593882807
Ag 8.57115832113548 7.831093463149255 3.7530758474451082
Ag 10.065787818251167 6.161937436395611 5.39669535452507
Ag 6.042342807575648 7.111596732163823 3.04793774106717
Ag 8.93798113643474 3.825138805792847 6.318238417924736
Ag 4.950577270449225 4.744330796224732 3.922289108619935
Ag 6.413590884880427 3.0959475824886633 5.606736670805786
Ag 7.108904449695349 5.982975205207554 5.54430460395146
Ag 8.736934803609545 8.402728351336812 6.51243265074383
Ag 8.972827994230183 6.079055714609521 8.00511484227448
Ag 6.390616337741902 9.016566530205559 5.084881936886549
Ag 6.804114420720392 10.127514999504125 7.637332358362553
Ag 8.290968962415 8.490869723527652 9.311900921804064
Ag 6.836533252195897 4.215275680332712 8.15061986326498
Ag 6.12440552370385 7.25407935569534 7.682748376118695
Ag 4.246807844099582 7.157322356658848 5.220116058990494
Ag 4.492126806516254 4.837705214541936 6.718339668612346
Ag 4.2817941065309615 9.41579140629775 6.9014728263194245
Ag 5.185634771639278 8.516962337526863 9.827057835771607
Ag 7.189929322808501 6.127882461380105 10.18483998212206
Ag 4.6618745950132 5.409838198823549 9.478332658243366
Ag 3.169103670511844 7.080366981758667 7.836914317085635
