24
Energy = -48.52156563 eV
Ag 9.458037775167046 4.600182946787847 8.059876406968339
Ag 8.051687927619438 6.644483083292356 6.645906194696543
Ag 6.645304287408353 8.75412841519928 5.1317998854878475
Ag 9.458018006085195 8.688215828776075 8.059944295590899
Ag 6.6454908789774745 4.5359102662222694 5.132209928258111
Ag 8.021798213125251 2.600535536389565 6.644740769736795
Ag 9.460194169415644 8.688765997441408 5.2333918410160924
Ag 9.460217727978982 4.600195787025022 5.232731154006698
Ag 6.643447284519744 8.755038606612581 8.158228756966102
Ag 6.643640343838525 4.534237688862366 8.157666776392398
Ag 8.046675160793544 6.645015820540363 3.7699838955950713
Ag 10.827381765630602 6.644003733505137 6.646741726015572
Ag 5.237108178893079 6.644428641327234 6.642910585520235
Ag 8.041844054406695 6.644478208617411 9.521610523632589
Ag 5.2419856429661005 6.644383481718097 9.51751831299795
Ag 3.829009394316893 8.689246615547534 8.055560117981459
Ag 3.829386143443014 4.5988012476792335 8.055508327236282
Ag 8.021581265456334 10.688655740243894 6.645348092590574
Ag 5.246552865559837 6.644826210596821 3.767436631590775
Ag 5.267346940593151 10.688835515664369 6.643055273822909
Ag 3.830058324203237 8.688292305563284 5.229372487891045
Ag 2.4616404266545175 6.643718355025985 6.643712886975347
Ag 3.830427822475276 4.600180805767534 5.22883988511443
Ag 5.267829377648209 2.600103048991863 6.642569265981526
