23
Energy = -46.28533929 eV
Ag 7.583023670974626 8.38931570800806 12.372468278025476
Ag 7.851109714412185 6.458116169394223 9.980865310132799
Ag 9.983058137062123 9.974630193021795 12.492918744863896
Ag 7.544830729557585 11.262148988864949 11.471896595898341
Ag 8.63795254624177 9.09747848113093 9.980870145060377
Ag 7.544777014527257 11.262165162791158 8.489930138246152
Ag 9.901676628397503 11.565044283703992 9.980865311408236
Ag 5.950440034084829 9.355081955880078 9.980915624378094
Ag 8.31442963844757 13.767351914422077 9.980897940592303
Ag 9.831992047246494 12.832392326742438 12.397636566907098
Ag 11.250408530783115 13.91980925462196 9.980842848843016
Ag 12.536883855863433 8.644078540932496 12.368720006951378
Ag 14.057019291896339 9.815974912754188 9.980807473263255
Ag 10.12168990663372 7.220190567513804 11.505691359114502
Ag 12.53677706134561 8.644114716010957 7.592912294054194
Ag 11.417012340895663 9.238131880071307 9.980842848843016
Ag 12.446060499576147 6.67926726627931 9.980815871644783
Ag 12.265675701299228 11.50905241614305 11.482354377268083
Ag 10.121638272801547 7.220211669594935 8.456002913659248
Ag 12.265628324877538 11.509062843968309 8.479315931613527
Ag 9.982971380268022 9.974650740255953 7.468813364629796
Ag 9.831917057625946 12.83242952926847 7.564124516541576
Ag 7.5829221970286875 8.38934056939299 7.589334283600478
