28
Energy = -57.4590683 eV
Ag 6.045726258736834 8.335547571865057 3.0489739696571343
Ag 6.86028171316183 5.749249019024107 2.468166864681094
Ag 3.628476043705097 8.448079815637167 4.454820240413005
Ag 8.810663396913633 4.429097489885803 4.004324113027983
Ag 5.255278209009231 10.697106982900607 4.641870633848456
Ag 8.690513045741133 7.321155731643172 4.096384971876624
Ag 8.07439324147923 9.984800965043306 4.190383189252139
Ag 6.292477421679005 8.468365220448584 5.857861767307263
Ag 4.306243077106466 5.830116172782733 3.6812078564776973
Ag 6.710857868358741 5.775505334770229 5.284925392229587
Ag 4.0288132666934375 9.360817773848831 7.127426158671257
Ag 7.069265573881904 6.6418283970425165 7.997023694398636
Ag 7.306303627594709 11.021849929370061 6.638555662815824
Ag 6.520018417169105 9.279074614960887 8.598935694974614
Ag 9.3081032780159 5.723833230153138 6.513409113716126
Ag 8.891210897334005 8.561594650884707 6.718644626347218
Ag 8.313242660699322 4.239860701396093 8.720329484546223
Ag 4.522627150533241 7.3445379141644755 9.09404551474186
Ag 8.074531130094794 2.957470720261629 6.223674272766603
Ag 4.210462693675927 6.53004544090057 6.419592673845545
Ag 5.7547683024022085 4.151358690091849 7.322099439760512
Ag 5.789845511845019 4.949292790545454 9.938127012493371
Ag 6.048209366657258 3.4210473452387564 3.991630545086842
Ag 6.744157381162551 1.9362319186334715 8.600117215848423
Ag 3.2661747718228176 4.881170006267446 8.42986896889802
Ag 5.58993050735929 1.587062610994531 5.968116065720111
Ag 3.6621942677154418 3.7730967516980645 5.580357445070855
Ag 3.883029282569605 2.210256930782302 8.071764051646204
