23
Energy = -45.99421317 eV
Ag 3.3428816944593205 5.279461099908494 5.130349075019016
Ag 7.884025570768629 2.3102541812898165 4.36100085664669
Ag 6.318434129446338 1.7446665848730754 6.643169341868793
Ag 5.572602522454839 3.7314495131049554 4.766570780923377
Ag 5.693978054660234 6.516373485586947 4.154758132151034
Ag 5.68430213196794 9.335566897526617 3.777678109641106
Ag 8.086134019885794 5.073285812459309 3.7584444441884584
Ag 7.813363714498033 8.667515288559867 8.115491706045372
Ag 7.959541257894075 4.108975457101728 6.43382274793225
Ag 5.450957450059375 5.391844799455832 7.024922424043075
Ag 7.580309994657806 7.6368578365793995 10.675113070176392
Ag 8.086330192790427 6.871114011178521 5.91090783438033
Ag 6.563846134381457 3.4383577984140365 8.801728722443954
Ag 1.1099095845343143 6.807561454929363 5.609235195267199
Ag 3.2081490972258027 7.084819168007471 7.370875688225155
Ag 8.039000429982327 7.849502654338506 3.2595503122796448
Ag 7.828224595262036 5.894643833191151 8.570724108448866
Ag 7.97613041749318 10.683309934446665 2.9943820604694915
Ag 5.370357970555086 7.31921513108123 9.070102438231531
Ag 6.205028714623717 0.8098893653869751 9.22777125560777
Ag 3.3795504833430785 8.096859907133823 4.666203024143146
Ag 7.954918914390529 9.622985862199577 5.50916088411943
Ag 5.547565107867827 8.37795324990315 6.446693913025887
