22
Energy = -44.39864866
Ag 11.697172660743965 7.9466953748506395 9.744402767923381
Ag 9.789469783572182 9.701175792507296 10.461440221540657
Ag 14.70203975772149 11.371743431954359 10.324259102948483
Ag 11.541878225217694 8.835805449179041 12.402135431474049
Ag 14.068212943406072 8.940033845268038 10.909326475238892
Ag 9.674207799417543 7.0915380105311945 11.265454993417459
Ag 13.232471871644247 11.031131132311188 12.74214168420476
Ag 9.012365751951883 9.25941018024432 13.083489320018067
Ag 7.191856947937538 8.869685758755079 10.62022802913825
Ag 7.901757715351954 11.29209066486534 11.533288063427456
Ag 8.067829514366762 10.484505431839047 8.66753089746948
Ag 7.4531767258072525 13.093075625899193 9.616836473757138
Ag 9.19591320262329 7.908746909328677 8.628833486708327
Ag 5.64227203577263 10.933579561341753 10.056795431919829
Ag 10.128407983874713 12.22605377406868 9.514126792977375
Ag 10.673498367097208 10.10734525769434 7.972270782813787
Ag 12.104394165705411 10.557603820309884 10.461440221540657
Ag 13.471178241493407 9.676459219776405 8.297675160101225
Ag 10.42617532794284 11.36156900405902 12.625385559616337
Ag 12.568426662399487 12.216226338454295 8.362392489619921
Ag 9.372477837070287 13.672886020783151 11.55394232228126
Ag 12.006861478882831 13.169717028089961 11.078648291863981
