24
Energy = -48.54760297 eV
Ag 7.726589406733918 8.450119273220134 3.8063073305089277
Ag 10.219106785298306 7.290375623686886 4.195355705529754
Ag 7.478450374824676 10.095860938534171 8.361373980540733
Ag 9.084989190274085 9.016026839783507 6.222170878903397
Ag 9.387541889023275 7.9604957405632195 8.86952776041032
Ag 3.5477096546219546 9.146037954920592 5.484223691269126
Ag 5.342292341772894 7.226882453651535 4.535625254716622
Ag 6.832303751530712 7.838805804975765 10.060728364416187
Ag 9.490664097213312 6.186237604926807 6.64197677998463
Ag 6.255768798297522 9.7368158191367 5.801502638595211
Ag 7.924943325176891 5.702068797759815 4.3135077280621985
Ag 7.041547795719851 7.5279914059590025 7.3050962465981195
Ag 8.004509379816831 5.335663099641605 8.863330844226534
Ag 6.214800027752768 5.136452538046555 6.354631344388536
Ag 8.434922827418283 3.591062840464193 6.537838320153032
Ag 5.387108964599643 4.492153679479872 3.792739106535579
Ag 2.8638128394304014 5.526532720820373 4.407045652902449
Ag 4.814349449945751 8.907445371941124 8.166896908457081
Ag 3.680183981495692 6.751887446552766 6.7554451784922325
Ag 5.215957460240321 5.862803892411168 8.863699887817887
Ag 5.767611905373666 2.3191880479876676 5.582535775668818
Ag 3.3086228186038475 2.716659685080412 4.186929127951581
Ag 6.20177939853253 3.1745353935943377 8.274543641868165
Ag 3.7614784564951074 3.956022537976983 6.6446202827525
