22
Energy = -44.11017776 eV
Ag 9.916603669783749 8.351942404177636 7.031442982507048
Ag 8.808140225600468 7.993038129768681 4.405747623090215
Ag 8.253257236466274 10.376305659414147 6.132466935117209
Ag 7.53799029232563 8.766881255153566 8.56332260103236
Ag 9.347639006740675 5.814122621297777 6.029310674319645
Ag 5.91979894845459 10.572284228222722 4.412775895241287
Ag 9.12614992185446 6.500292584363118 8.958619427645448
Ag 5.685599830977169 10.566481063481397 7.222066752814648
Ag 5.202054086583125 7.873700464475191 3.505239994073489
Ag 6.504402063952888 8.275937549437481 5.8736530780606095
Ag 3.7730155757043744 9.04779182597655 5.690824192492799
Ag 6.9125915711845805 5.781223495930075 4.6013279632937385
Ag 6.81057721808475 6.051186165235402 7.519553683963992
Ag 8.734711916681768 3.908554519104579 7.901983392527029
Ag 4.748351556467539 8.094705285294491 8.222802492035317
Ag 6.363905299342459 3.8377029853859495 9.239035921620607
Ag 4.408112151594 6.319223476465167 5.834747295377272
Ag 6.290451640785327 6.71122506507624 10.151077834955746
Ag 5.573783799286067 3.8282491952795827 6.361186637193184
Ag 8.048864022801238 3.3097033920610315 5.206930007322339
Ag 4.175606337062422 5.387202228992607 8.483064402479496
Ag 7.095033014213508 1.7394507981259553 7.483260883210661
