22
Energy = -43.38750035 eV
Ag 8.061289986137478 3.321392147195242 7.00517077963398
Ag 7.436995790123345 4.755697293119014 4.780465796035732
Ag 8.752685866075794 5.326156859950556 8.79506749075344
Ag 5.4735813327502365 3.11039829551217 5.83151474664743
Ag 7.271101619354771 4.951459332290281 2.0833531547946915
Ag 6.273617682625436 5.463147954962534 7.283516817585091
Ag 8.897561895302543 6.547984743667144 6.300531583923821
Ag 3.596772387269532 5.237320950232859 5.987843111483574
Ag 8.655727924615386 6.647788036540968 11.185442174242302
Ag 7.85180030456134 7.2599108990937395 3.6705781911101867
Ag 4.976899743842965 4.9393180877470835 3.6253182505851034
Ag 10.40558327602187 8.717829000175724 7.133371849332232
Ag 3.8258399596441333 6.210718679777551 8.63394336394426
Ag 8.268673011234517 8.078121102962825 8.740104580334174
Ag 1.355738157193751 5.960053368313971 7.450232045114025
Ag 6.262462068382658 6.413202823776217 9.919397447605796
Ag 7.650426791594888 9.001750611455424 6.058638779746931
Ag 5.49835136577955 7.257588519561725 5.142432027738653
Ag 9.958817625797977 8.800247775001269 4.467458671192716
Ag 5.6242240582665275 8.227198384283634 7.854881854549107
Ag 3.089334683600225 7.953701098624447 6.4873331543190025
Ag 4.958377014233706 9.905342923608712 5.782675428912605
