26
Energy = -53.51558132 eV
Ag 10.923473535659866 4.991611860669284 6.014059480466764
Ag 7.169793559878566 3.1922588044675697 7.685838768148459
Ag 8.921987391430754 5.351242266312001 8.097578470973334
Ag 9.871276424197509 2.7943714279532936 7.33471346742454
Ag 8.338416133754668 4.3356130658198895 5.355801396049261
Ag 9.004986911886586 7.167759897279398 6.0568921382011665
Ag 9.933851432532927 6.055627074898711 3.650492941723624
Ag 4.539357972805556 4.068709524982169 7.8379331417959595
Ag 6.596755044011424 5.192135836541529 9.578771163655842
Ag 9.142047831728982 8.733672367492568 3.736235480947563
Ag 6.882270853116596 4.103123866691667 2.9232091730662555
Ag 7.181740829172038 7.6607412195344065 8.280679199803982
Ag 5.696098429266912 3.2416629264078 5.32496269428412
Ag 7.184060697671391 6.715876996463748 3.8548515659435743
Ag 6.16499967229951 5.972085376399467 6.40676533329648
Ag 7.078427799074721 9.0796400129845 5.629368852469601
Ag 4.616224719281568 5.366002254272334 3.893821268635162
Ag 4.407795154898887 6.6795038812719785 8.852781196905092
Ag 2.960222728435996 3.763201408187838 5.537258995575691
Ag 4.785555057593077 8.832021629048718 7.218775858567238
Ag 4.773364757808948 8.074709513174541 4.392076616341561
Ag 3.2977739096671517 6.456519077123519 6.144475494158595
Ag 4.853463537877419 10.733672086478336 5.147191961259442
Ag 2.02086756236373 5.133552872044522 8.269787113781156
Ag 2.033544875205077 7.966191063806261 8.045071754090207
Ag 2.516320856593429 9.23317136790594 5.625284150647749
