29
Energy = -59.61372193 eV
Ag 10.125030644834956 5.58971815478526 3.9514878860504354
Ag 9.651330846187848 6.523587734601496 6.459554881185326
Ag 9.72152431235925 7.638998050925651 8.975173517063723
Ag 8.529206104899833 5.053511822880561 8.550886213857675
Ag 8.834396113693526 3.898872281750024 5.860273584277954
Ag 8.567341521570441 3.6188457492966095 2.959082001226776
Ag 7.872072630712527 6.803126343499557 10.85754477356982
Ag 8.441928957438444 6.4388969272304415 1.922005053540499
Ag 8.657090821636658 8.072380162060874 4.130093049105905
Ag 8.899151205414627 9.213650209900948 6.685943273535008
Ag 6.24464279076018 4.872375777441063 2.1123303927769967
Ag 6.940600658458921 6.063446150570673 5.455622814021142
Ag 7.058731060868169 7.415113999846453 7.96667882247826
Ag 6.351543252942837 3.291527722038077 4.552061916953934
Ag 6.330064870239769 3.8902004478792613 7.337101001938996
Ag 6.766607090785474 10.220437874884311 8.25721635791031
Ag 3.946116107357157 3.497065030469768 6.004451779713347
Ag 6.3694280152713105 8.936454992374937 5.603176949319445
Ag 4.553496248255925 6.143860206739202 7.022735525137837
Ag 5.63215343684862 8.379303126320142 10.221419870018376
Ag 6.024207218562392 7.547479248232442 3.09928259668725
Ag 4.428010973702876 5.443909411717931 4.05377993402412
Ag 5.800449773449409 5.512782989328337 9.668677774917695
Ag 3.6684088760997224 4.077789734791692 8.754431074490755
Ag 4.435567015555537 8.904561064768115 7.745501876352967
Ag 3.8263668144442797 8.00180570014536 4.988236393898839
Ag 2.143439861522067 5.716998211754107 5.574975101109443
Ag 1.9642569177009255 7.885602620781128 7.277190005917991
Ag 3.3503865548564367 6.865510815699944 9.500689898370982
