21
Energy = -40.73638627 eV
Ag 6.544361297315681 6.544361297315681 6.544361297315681
Ag 6.544361297315681 4.836896441976216 8.818662783668556
Ag 6.544361297315681 8.251826152655276 8.818662783668556
Ag 6.544361297315681 8.251826152655276 4.270059810962808
Ag 6.544361297315681 4.836896441976216 4.270059810962808
Ag 4.178915725721622 6.544361297315681 8.07973115545099
Ag 8.909806868909742 6.544361297315681 8.07973115545099
Ag 4.178915725721622 6.544361297315681 5.008991439180375
Ag 8.909806868909742 6.544361297315681 5.008991439180375
Ag 4.948117117141535 8.896736035773754 6.544361297315681
Ag 4.948117117141535 4.191986558857608 6.544361297315681
Ag 8.140605477489828 8.896736035773754 6.544361297315681
Ag 8.140605477489828 4.191986558857608 6.544361297315681
Ag 3.9518265946313615 4.007929812955393 3.9938728673190846
Ag 9.136895999999998 4.007929812955393 3.9938728673190846
Ag 3.9518265946313615 9.080792781675976 9.094849727312276
Ag 9.136895999999998 9.080792781675976 9.094849727312276
Ag 3.9518265946313615 9.080792781675976 3.9938728673190846
Ag 9.136895999999998 9.080792781675976 3.9938728673190846
Ag 3.9518265946313615 4.007929812955393 9.094849727312276
Ag 9.136895999999998 4.007929812955393 9.094849727312276
