24
Energy = -48.70551542 eV
Ag 6.493972308094816 8.099201294273055 9.09714842484505
Ag 7.44962118987506 5.456648448285769 9.285154229879833
Ag 4.676513537003511 5.996643883376896 9.339090429534885
Ag 6.557748662515476 9.151960654563469 6.5021617110819445
Ag 3.997059145818007 8.266129510105207 7.799059754688137
Ag 8.618859386598064 7.462346774212199 7.387182624001358
Ag 8.156927622279003 2.8371134520508687 8.378398978153673
Ag 3.92500436644336 9.980472862996278 5.509436186298546
Ag 4.841128992623585 7.276724333798094 5.346134359363837
Ag 10.018736594580094 4.988240471874147 8.126626429824405
Ag 3.3755069755101936 5.476948189007446 6.915275761686586
Ag 5.9010763895433636 9.179370195114556 3.636803048423176
Ag 7.630645939364241 4.974267536760949 6.556954842475129
Ag 3.2084219718661178 8.461260672772697 3.236366329767682
Ag 10.024927406866958 5.772067983406234 5.4141091119435965
Ag 5.430813765159672 3.776192607245611 7.801940821380005
Ag 7.727433079777493 7.273815611024727 4.702837499120163
Ag 9.783865342607832 3.04519512568046 6.081665834141409
Ag 2.063659751655478 7.826311647432831 5.743009073439324
Ag 5.716888505286042 6.25094562422607 2.973667342925611
Ag 5.183418122761349 4.342782883937774 5.0288427745340165
Ag 7.064269028254152 2.362006097854584 5.814351100258227
Ag 2.9482247549243437 5.7630573022405915 4.020120309802208
Ag 7.784444998194199 4.5337068456751455 3.8666255174130395
