21
Energy = -42.47798031
Ag 11.255699008008023 9.843355421065002 9.811851326663717
Ag 9.432962502538686 11.694737852872656 8.772437830441854
Ag 8.796045306103043 9.10117344512308 9.814644174878392
Ag 8.827184930047782 13.245532718684027 10.914041157756417
Ag 11.433819192525831 12.459625229496655 10.489312937017694
Ag 7.12822622705697 11.000710113791378 10.705664902741841
Ag 6.211796969396725 8.366872472720864 9.903125405869291
Ag 7.007479003458432 12.938651011892649 8.759103974435
Ag 11.913707451201354 11.437583887405745 7.6564735894801235
Ag 7.226981671314284 10.161454748310955 7.916516457552723
Ag 9.689862839306638 10.804824957199587 12.044933435235722
Ag 9.936973133089205 9.425409655014139 7.22358333810643
Ag 12.35112608203313 10.161823781902962 12.278855592120557
Ag 10.47144494454215 8.109734195159088 11.893486837587881
Ag 12.961779832353995 7.941601797031653 10.461171554969988
Ag 13.775490376962196 10.77291161947632 9.814644174878394
Ag 12.688242400369711 8.763987354551972 7.732277963903832
Ag 10.643671754787656 7.208283877303764 9.049544942350675
Ag 8.121442380982304 7.396567867731698 7.849320426686581
Ag 7.851652755135269 8.768531611694353 12.393648058851884
Ag 8.469354149968485 6.5121744703886515 10.630909007287732
