23
Energy = -45.66667851 eV
Ag 6.309609097167185 5.391552138488183 9.596001479202773
Ag 5.010734475096731 7.10207463507567 7.802493947294263
Ag 5.796209183614207 9.715375133641047 7.9171449420325315
Ag 5.239504910097523 3.2666340044569204 5.582947386798257
Ag 6.125774050344924 5.150959261071285 3.8098584852030135
Ag 8.045314349644892 8.943130434632339 6.286365287642887
Ag 10.331611854391229 7.540552548098435 9.419041435095819
Ag 8.394834987296774 6.549176013013395 11.106588483085913
Ag 5.839865236605028 7.703093597060234 4.891745223309963
Ag 10.403078097923197 8.552600611651568 4.603488707280434
Ag 8.448647786265154 6.667755889108594 4.265285629871882
Ag 7.110704749208324 5.602424578192825 6.484497332318732
Ag 5.806819995258549 10.408891067678919 5.231441926149123
Ag 2.422737374799453 3.5661064482166163 5.947719331754523
Ag 6.915760102152049 3.2550309529546637 7.81617850136525
Ag 3.7625284062035345 5.965510770172316 5.54051209264794
Ag 8.903174018320849 5.105400600013959 8.687103786220522
Ag 7.819810650278898 9.33980626540585 3.604187215643381
Ag 3.548067814278398 4.104638759337032 3.465623977504633
Ag 7.641571988434307 7.717300821454803 8.70442105667919
Ag 4.272846870158789 4.384798648090794 7.890523175209369
Ag 9.804106509781251 6.8560529089479205 6.735387703076232
Ag 3.625718634543171 8.857374951447463 6.213048877891083
