28
Energy = -57.78739814 eV
Ag 5.462619561128247 9.984290703464964 6.067431159175597
Ag 7.373869278397251 10.886227321548192 3.870854333759129
Ag 3.95318630401021 7.618325196973335 5.39153811012005
Ag 6.389350853711947 8.26664087547432 4.035552113458448
Ag 6.803588550614343 9.4299807288428 8.653184936342605
Ag 4.093716218696314 8.50551646263138 7.991722261146449
Ag 5.76390262337502 5.615889437615702 4.641755255103515
Ag 8.182965968976447 9.42784189872835 6.066015860994595
Ag 6.451242702134317 7.251686234670704 6.872804427253929
Ag 8.309461048396024 10.55651914907364 10.738908220273883
Ag 4.316570291114292 5.514793013410102 7.372230711086866
Ag 5.659856308317872 6.899659128156114 9.558219401643148
Ag 9.023542438386075 8.719924947559493 3.302928039799456
Ag 9.661829347395724 9.881250014578546 8.391108049093472
Ag 5.19976622001099 2.923396336179369 5.024538704008235
Ag 7.689756488413503 6.208620052396865 2.515866448551171
Ag 6.408362707157312 8.695332046985067 11.611669575352245
Ag 10.721172046546528 8.58233712219042 5.68608288057851
Ag 8.603947910279018 6.566122073411946 5.056966623487687
Ag 7.878264859363498 3.889775016375435 4.373008146007381
Ag 4.45644505603864 2.6093778693065515 7.6623591880303294
Ag 6.913067096459958 5.818367808166188 11.681736171291629
Ag 6.7064212400561125 4.155052461542289 6.97539551579501
Ag 9.317239840975597 7.2329104626130825 7.645216744845055
Ag 8.601568306468618 7.811857122829218 10.24125882068814
Ag 5.60324060373572 4.098570751844399 9.710552234041172
Ag 8.050523379903751 5.342902855622061 9.129544646793315
Ag 9.446778941583425 4.549089099456518 6.7738076129255544
