22
Energy = -44.10248168 eV
Ag 9.174240724002578 7.1472443161775105 6.960420889167541
Ag 6.923412387635188 5.531611451770849 5.979214963412425
Ag 9.529077540584282 4.71706533328737 5.512320389203775
Ag 6.565349447253343 3.05580283612146 7.134072326278658
Ag 4.462538756459487 9.773613053536117 7.674984295945837
Ag 7.636114099695558 4.420675662669393 10.66393070098046
Ag 4.321353744751405 4.6011183774093185 6.458974368970508
Ag 3.7332201006810326 7.0240675041191345 7.73829095007218
Ag 8.132598556018252 6.9590344570720735 9.63851360885771
Ag 1.7450249592288707 5.106597782504505 7.401429735577238
Ag 5.205238917599078 5.957275593882592 3.871218858030143
Ag 10.191641195273473 7.194852618539743 4.312069534502318
Ag 6.425308226727438 7.8629892035094775 7.658275178029732
Ag 7.975143754874419 5.477253954495102 3.3124416010652844
Ag 5.892363759082208 5.329270949613825 8.720778312212632
Ag 6.854305364753454 10.154644513635759 6.145734893705039
Ag 8.657871654890716 4.619277175927902 8.129807133297977
Ag 8.515521872134114 9.518747190194663 8.393954975690697
Ag 7.497768650605984 7.934516698488073 4.563621716845889
Ag 2.723847584472447 6.426598913449603 5.133778675548544
Ag 9.604557138702713 9.538572653304442 5.677380898066448
Ag 4.836914181980797 8.244215330787187 5.362192299953952
