23
Energy = -45.94298875 eV
Ag 5.427430275517128 10.023333425733908 5.727364294184242
Ag 4.7728284029711014 7.927176771641191 7.4871780949580975
Ag 4.155186917000027 5.708902125024976 9.02675580000056
Ag 1.8013171182642476 6.235662392639877 4.062926499292097
Ag 6.276896651862279 8.091855924703355 3.8925855964530856
Ag 3.307562858268146 5.553596531182062 6.322916355508078
Ag 9.074227289260293 7.775995861239213 4.304641321995373
Ag 5.713286435928897 7.893294979970026 10.110018294905057
Ag 10.823090434452984 3.93950556962002 7.175340464054744
Ag 10.219481675130977 7.904657505684727 6.974988379837747
Ag 7.376820711548951 5.567315832197841 3.536582305447313
Ag 9.762555944619423 5.83673940169541 8.79522383358693
Ag 6.441730107924699 10.049209209941736 8.394019598819511
Ag 4.520227825117792 5.759451165433944 3.593665464007462
Ag 5.342325744434395 3.706288806656487 7.534438846657951
Ag 7.4856423988410725 8.24678781385601 6.518752980550098
Ag 6.002575581392513 5.906925097004429 5.907848759870991
Ag 8.833934143736286 5.608927718453493 6.089765921591602
Ag 3.6138535247647505 8.080338403831254 4.922969811654314
Ag 6.913697041621537 5.961188563626574 8.541759053297246
Ag 8.452232708344301 8.245621796678215 9.17137177801443
Ag 8.155625976173212 3.549287311954097 7.924809196047872
Ag 7.098496946960172 3.4308244153995946 5.323633606358621
