23
Energy = -46.23889397 eV
Ag 9.405995795007257 5.790814766011686 7.302127775553755
Ag 9.774448069863706 3.632436775467673 9.29165811250427
Ag 8.805485122753497 7.872781094023341 5.420026674979355
Ag 8.981755857225197 6.166876014034645 10.045275492851003
Ag 8.423869569146637 8.31496540343831 8.314436133828975
Ag 8.185085408759278 5.174965432705391 4.72429094564029
Ag 7.977550628574258 9.964875531083102 3.626005935960999
Ag 7.775149341354655 10.27091295538645 6.40687901626993
Ag 8.742041562578246 3.156813059670526 6.647707497339515
Ag 7.4456557565777635 7.228793087162892 2.978465060602334
Ag 7.213840118412198 4.378166629502145 8.693574818294032
Ag 6.312862218696755 6.943000458850836 9.654342341255438
Ag 5.677375686569206 9.246170779016623 2.2287746043530414
Ag 5.719493023303167 9.05278981644003 7.841585677539606
Ag 6.703027712680643 6.549518397710957 6.786391921756355
Ag 5.902045613869802 8.62867410200925 4.932083098535122
Ag 3.6570655434684656 7.65222127211545 9.133908297119527
Ag 6.089083136783287 3.793063417493681 6.102717899536917
Ag 4.607828534751972 5.12238063701496 8.228309396916659
Ag 3.9635323041634862 7.262538770708248 6.361753850762837
Ag 5.437630848231466 5.847527026221079 4.254693247963684
Ag 3.4458578156415496 4.5539673825127895 5.686020267442632
Ag 1.971560060563515 5.79524446855568 7.726060681259156
