29
Energy = -59.64644139 eV
Ag 9.1013173015908 7.11768410541475 2.7142827638405063
Ag 5.924728506723402 9.668345057172479 10.807013378480153
Ag 9.677520684366838 4.726838693508482 7.134767660438302
Ag 9.020867565038518 9.146475059887866 7.069031448395844
Ag 8.231771823787659 5.375286550027913 9.448271171620357
Ag 4.214999200924299 3.5827336737405107 6.598216137472521
Ag 3.842763802255739 8.603863872912239 8.762057976172496
Ag 10.141450930829746 6.945928824200817 5.256533526871532
Ag 4.920528837961228 8.32955278390095 6.062007727606651
Ag 7.11077344096364 3.8468651115262786 6.745395221594088
Ag 5.907112450294056 7.03836403898775 10.099808749083559
Ag 11.716000355825607 8.803706661044785 6.4225990555806725
Ag 6.922088464168893 10.3912862913095 5.548264370245264
Ag 3.4605302358619787 6.206057209768889 7.2532247510198475
Ag 3.7513653232356745 8.150956953242014 11.55373123359453
Ag 9.540880946454429 9.543842874246277 4.411178521071016
Ag 10.885706489098222 4.28991633630437 4.729486016903173
Ag 8.195534656321664 5.095311126234383 4.517867141700055
Ag 8.37378947580352 8.26847726169764 9.729405809858893
Ag 4.383231590574495 10.837262938503706 7.015102882764785
Ag 3.2638514190841104 5.970284173742817 9.96634390869108
Ag 6.4596928291043545 9.428669652718439 8.124795329649379
Ag 5.474724201727614 4.7668846049266484 8.7250763982855
Ag 3.0540606390295024 6.857981639411273 4.650576227031141
Ag 7.262271769412236 6.756781214907648 7.325677968046955
Ag 5.515002039470802 5.699403818508298 5.281799324956149
Ag 12.279677467651798 5.9276813345311785 6.640925097103218
Ag 10.448762581672746 7.0871583490855175 8.385674356570842
Ag 7.327686707283943 7.790722673179105 4.681045427192495
