25
Energy = -50.44264796 eV
Ag 7.338301915007516 5.870376435868174 2.8443609839707964
Ag 5.207286678019759 7.5551061119564356 3.286696808467828
Ag 5.058976343077992 4.825049953906962 4.176135357628806
Ag 9.694318457279666 6.210673463219638 4.39636876796219
Ag 7.410023206945376 7.675922603282527 5.204384606737392
Ag 5.275943096542953 9.576715649818892 5.202166479539683
Ag 7.586778994667589 4.649826430679423 5.365901313870433
Ag 10.0056605699048 8.447448616606687 6.149336086835186
Ag 4.57437516155491 6.9474962322655855 5.9204604420574825
Ag 7.7974113677597074 10.216472103314905 6.516284934140372
Ag 9.549122435198406 5.822117725841272 7.12654141933226
Ag 5.114139217797396 4.264138984046168 6.928202693702136
Ag 5.436356253935074 11.507532085710812 7.232551625259283
Ag 6.791094713816455 6.262385316788599 7.690559061921911
Ag 5.582090698756059 8.808440864574953 7.85785712541025
Ag 7.856572163190747 3.7091090272561447 8.002979953107552
Ag 4.196683029762981 6.424408562149955 8.695986460559597
Ag 8.450910499167676 8.301336742458078 8.460702089877158
Ag 10.098751631011673 10.419500650632012 8.468120286603174
Ag 11.051527927047292 7.589705081415358 8.712641120382845
Ag 7.2148646385723705 10.581985296469254 9.346723430331812
Ag 8.777056990475565 5.906474026923386 9.860949371971335
Ag 6.113982462559748 4.78846531478999 9.991478991618507
Ag 6.43590725278795 7.658043996815572 10.295494943150853
Ag 7.372492121291481 5.97189654934082 12.257743471692605
