22
Energy = -43.98589745 eV
Ag 10.320275451360532 5.070456410524909 6.32716370388472
Ag 10.144225463036586 7.778988176420473 5.648052723173761
Ag 9.479426457328698 4.717381392755497 8.974072888504892
Ag 8.315021213585297 6.838000957400209 7.582315632992548
Ag 7.068386596017361 11.461910590123058 8.243478155368354
Ag 8.694758165787745 9.59232491989769 7.075137035655109
Ag 7.019217243093228 8.844313945681357 9.212005095911822
Ag 7.752775886831081 4.087823786969789 6.70884794373975
Ag 8.177854236455827 5.982586997475424 4.736741044613014
Ag 8.293902513869227 6.748790967602667 10.529606644304277
Ag 5.07362220826998 4.019713058079773 7.1547439845666565
Ag 7.701974918272994 8.76131509592856 4.4906459349921075
Ag 5.313040268502002 6.980880229770374 7.753576350594546
Ag 5.9003846031667955 9.477439542673764 6.665607112052363
Ag 7.459945363516367 11.39408180782029 5.337123805319949
Ag 5.747083638649286 4.653601133807591 4.59277884889158
Ag 6.666371961290753 4.897763967111065 9.240693931384234
Ag 5.352756964043583 7.366533775550008 4.987297254101636
Ag 5.522786514327565 7.023053428210669 10.696446960948107
Ag 6.621384993329971 6.763382641014011 2.63481480656863
Ag 3.3509354626750305 5.80995075058647 6.057649288395962
Ag 3.8149500467929434 5.228903386262785 9.265808011628614
