25
Energy = -49.94332581 eV
Ag 10.443224627512377 7.011349449065079 6.013613580552105
Ag 9.053214359869411 9.395242755137646 5.75615199764864
Ag 8.871581157454225 7.357760372639932 3.7616941617305217
Ag 9.49870798711481 8.109857724210597 8.363013344836686
Ag 8.491015463224395 4.772042740890443 2.59329107829894
Ag 9.831621327390563 6.12952800422076 10.416010859493602
Ag 8.935112589503959 4.854042583156659 5.2663914671889405
Ag 9.640420321474753 5.175943575257856 7.878301965371171
Ag 6.9436972651768585 8.700731569073193 7.3859450106576165
Ag 6.595101129602972 8.848210231326018 4.566203751496071
Ag 7.3469911512734765 6.536788850261989 9.189514518061602
Ag 6.355976986323523 6.164119604054677 3.5399919057367533
Ag 8.119731566161718 3.9433442127924314 9.83818011006533
Ag 4.988532684061346 6.77767034148582 7.823716543308274
Ag 4.406490682289242 9.111613444976113 6.351309750413395
Ag 6.871464305038191 4.502360616515512 7.183696823658549
Ag 4.326304344421309 10.336293003106109 3.8205703432354157
Ag 4.083534869088016 7.561431557903191 3.9764017720537748
Ag 4.633374408112138 5.195627981632831 5.490123492657354
Ag 6.661102730750376 3.5299598177424536 4.512739571843255
Ag 5.378132848595146 4.491638748439181 9.540133241389187
Ag 3.1884852004205815 4.616142343045458 7.831109828660903
Ag 2.572520543406651 6.914977387910149 6.335181570163109
Ag 1.9959619667974504 9.179798974165132 4.825507817357674
Ag 3.1018701270989544 3.1220061338467904 10.082815690613412
