26
Energy = -53.32000191 eV
Ag 8.871936171722467 7.329953757977329 2.407542378058387
Ag 11.289806150970847 5.599225439901223 7.025639589204761
Ag 10.054256765862272 6.2359887033155115 4.6323465673020685
Ag 9.287589139147794 7.612179026183277 7.03937647911387
Ag 9.274436598067608 8.999885490588762 4.701525563925324
Ag 7.029662666468657 9.298155434112962 6.572009575747164
Ag 6.75539983056812 8.305663369425066 3.9442631180007535
Ag 9.476949803511138 5.809927520514733 9.170805225070767
Ag 4.393849982021848 8.517269460614557 5.48464596971258
Ag 7.374815085132538 7.811454494000488 9.040440537471598
Ag 7.352630585264415 5.570782624463388 4.057082427458481
Ag 8.578279635595566 4.9283346452522405 6.6420017181339155
Ag 4.7368233479546085 8.499973679009884 8.254217476406744
Ag 6.2735403946893955 6.6630534038189175 6.496353865228445
Ag 4.665913556532719 6.645963399021238 3.35725939288927
Ag 7.456570872090632 2.9352805399848307 5.050774104955078
Ag 2.519649405355653 7.451742381285305 9.839931349013801
Ag 5.174556013233096 6.935798070884239 10.575715719577179
Ag 7.639894438163843 2.639929938295752 7.881306137144533
Ag 2.096958557763533 7.49707173551814 4.24967718925252
Ag 5.0303620585960545 3.8904373058208814 3.9611545758467375
Ag 4.045743255139538 5.717650938099526 8.347855874497137
Ag 2.2181124556472085 7.621999342036484 7.099051502283113
Ag 3.508363492158911 5.589078970403011 5.637760412521633
Ag 6.754919411372717 5.116322289696659 8.952129936951646
Ag 5.48613345611678 3.944346759301715 6.7068422948725495
