28
Energy = -57.90330729 eV
Ag 3.712776248560491 8.120655629967317 10.17584363860065
Ag 5.776232200261396 6.242767921616747 10.449381174762207
Ag 7.781745712684931 4.26321317127962 10.652640272253258
Ag 6.227015025722334 4.339603026442858 8.357192409832567
Ag 4.074164360652417 6.221439486730779 8.158487866646784
Ag 2.0810712728789666 8.158677223764435 7.823710323123028
Ag 4.600240858214221 4.323233330275744 6.073265804641236
Ag 2.519081531196198 6.29875583230737 5.7852150990092674
Ag 3.0830247907284156 4.4619541945926 3.749056701519826
Ag 3.951915150895624 10.2683802872375 8.260940898392564
Ag 9.048751975824713 3.822499927457029 8.182987838890353
Ag 6.029796163462619 8.403344951713338 8.606400406965175
Ag 8.12127858259439 6.459154357659976 8.841694796692103
Ag 7.433247686456673 3.812046778999819 5.824787423884302
Ag 10.203251704777864 3.4012979387505067 5.665909087945008
Ag 6.257457095526774 10.49260812478821 6.681957600720081
Ag 4.3228785146013955 8.453404253999075 6.175324040758925
Ag 4.847551350581104 6.557773106034907 4.093455251292396
Ag 5.820336924905473 3.893307301405555 3.4814670349083294
Ag 6.481664785408109 6.486957869266956 6.486513280516855
Ag 9.345210171408763 5.997181547036684 6.296208398961157
Ag 8.580515365507322 3.4355691133632478 3.295591269835686
Ag 7.6727244177519704 6.020177147787222 3.863335050439999
Ag 8.365981285308006 8.6094086462416 6.942697155567903
Ag 8.482020301024662 10.670819430503643 4.938537145688774
Ag 10.440382983158726 5.554905434189876 3.7549862543618207
Ag 6.689983476466999 8.60692704372556 4.568435075814463
Ag 9.519582928422134 8.13215720377098 4.354759944384097
