26
Energy = -53.32597806 eV
Ag 4.904132980560113 7.296763760446422 11.320645363466033
Ag 6.292460556634296 5.262521230255307 9.955537319584094
Ag 6.7493341258557376 8.081935091996971 9.43845939132635
Ag 3.395976902252024 5.495616175419639 9.782681388157139
Ag 4.018532609754612 8.014208730981705 8.765299254182562
Ag 8.633008432229904 6.312603250186096 8.393776831891875
Ag 10.200937066347006 4.29771424040196 7.288452259075066
Ag 7.471310109833144 3.843588682139048 7.673002473565422
Ag 4.656243467925185 3.7897672635994706 7.990056405759177
Ag 7.734313456786308 8.402706529504664 6.668598366672306
Ag 5.9475946021975705 6.220971821947559 7.32240250051902
Ag 5.660747456560161 10.00583382307015 7.667436084394078
Ag 3.1126646544863603 6.003394854288915 7.002786373684143
Ag 4.540968729209382 8.210134722894535 5.860523001744211
Ag 6.97774279566157 6.307491131585008 4.712942886982999
Ag 5.7910316642964395 3.7326851371399687 5.405206125277057
Ag 8.546712496517463 3.9553819805234047 5.016635651977679
Ag 4.21658665356765 5.8261863325119485 4.375507188378586
Ag 9.604495229440866 6.5427758037794925 5.7167183219620235
Ag 6.384584908300899 10.141220132890723 4.97993435592017
Ag 8.403538457971525 8.412494203200202 3.733912764481324
Ag 9.32468560448818 5.746358664049597 3.0336648863417377
Ag 3.03217816911521 3.600301284374027 5.609314635756495
Ag 5.50469737670396 8.135028312543934 3.21256180688477
Ag 6.6477215453199845 4.477825894001068 2.741329404522326
Ag 7.317538480679636 6.956108371503743 1.550771585746056
