28
Energy = -57.68647658 eV
Ag 3.9983974026465026 8.456961742716302 3.242403776780187
Ag 6.6559229489837595 6.761171978567381 2.2319034810885876
Ag 2.8768994387788966 5.963129449098607 3.487650217828377
Ag 6.603837525066187 9.285550811540041 3.8213764161149175
Ag 3.116335622295183 3.4294506573253045 4.605096851736605
Ag 1.974676966263302 7.981904013004414 5.173083947911119
Ag 4.568515294699734 9.071949041194982 5.94409959440203
Ag 5.229402950812756 4.472282186269511 3.1200027464308815
Ag 5.727278118753309 6.766724347609392 4.751331049834774
Ag 8.678292578083719 7.429632297347079 4.2436662344943015
Ag 7.85063367265264 4.6590387806552185 3.9926764011674463
Ag 2.980009976250407 5.651818266495798 6.278131665740139
Ag 6.446975901009936 2.23611360175908 4.4594155054826246
Ag 5.49453634353402 4.215425065527684 6.046885157686692
Ag 2.839355429227885 7.985281893113242 7.850274205482874
Ag 5.321330597845717 6.647758762073549 7.553011635315158
Ag 7.31762147929678 8.703400875179339 6.528389820187585
Ag 7.858242257311547 5.9475744715634224 6.4814180550099945
Ag 10.283961260219009 5.158102520998066 5.473356240943295
Ag 5.450355590671917 9.063411483335138 8.735149863359206
Ag 4.2714519283540024 4.258704212634073 8.57013570133177
Ag 6.056629944297108 2.093904876425611 7.749713035165705
Ag 9.997653505912085 7.615301093387483 7.001954094623412
Ag 8.336977984741479 3.225342763062829 6.526294662613251
Ag 5.553857067975743 6.409751132784921 10.265689925495927
Ag 7.898541665478774 7.228747104694256 8.966635453012945
Ag 7.090787841427874 4.454150078031276 8.829099176694601
Ag 9.779985629278348 5.085002257009561 8.300682289923136
