26
Energy = -53.40629217 eV
Ag 8.716429649438036 2.401299645023217 8.919664182632074
Ag 8.796297935004334 5.158071943622594 9.129773229027805
Ag 7.328511596816572 6.263662934845795 11.184298390388722
Ag 7.053933839581227 3.8912093902143097 7.203172875349429
Ag 9.785115694853582 3.8151926274590493 6.749360636116638
Ag 6.419090423529193 3.8137902117947675 9.949153217174945
Ag 4.383557915964193 4.248663670323741 7.935381665867923
Ag 8.741267864950434 6.481263255439695 6.656263885660759
Ag 6.1006189171852405 6.3514511702951 8.664771038693173
Ag 8.369261481087147 7.989957729600021 8.920543133699615
Ag 10.668378998354688 5.561375021400692 4.772529344954853
Ag 7.997133355591743 4.818926065572724 4.610522876107223
Ag 5.326847200773597 4.884354908705752 5.2767398135714565
Ag 7.461459577539909 10.659605755820603 8.664686334528275
Ag 9.070710142405687 7.737092330832058 4.138126832215844
Ag 6.22522720942976 8.723111911889337 10.484379750836133
Ag 7.879554459318841 9.095529854075792 6.317582750221519
Ag 2.6225601497340656 4.750823009794816 5.781400634872187
Ag 5.445096284725763 8.995857829994712 7.837787481881751
Ag 4.020407729134011 6.889427013977386 6.835386162791294
Ag 6.420421007548674 7.07591097927867 3.892956348529333
Ag 6.202836318328607 11.278981290422935 6.134904353267956
Ag 3.6272445521236687 6.76502452260087 4.002949454940911
Ag 7.09477845127219 9.826713106507981 3.730445475310082
Ag 4.799609404944422 9.079487037480519 5.1531846960639465
Ag 4.781289257411836 8.780856200074451 2.391674852343448
