25
Energy = -50.93327227 eV
Ag 5.6372063647483674 7.342759800725637 3.112947137977108
Ag 7.862396764374373 5.452024457875031 3.501226234037819
Ag 8.23669733938311 8.310932354712916 4.360935281109274
Ag 5.159577854655834 4.599114190220164 4.07335534171492
Ag 6.427511968508875 6.470537805690106 5.565743472355622
Ag 9.299152637480125 6.182801424450735 5.983578332794562
Ag 3.7482520663554686 6.818604956790268 5.229793110532215
Ag 8.025923012851239 10.6558026614235 5.982327109207886
Ag 7.321032980468619 3.861414718577444 5.908471444641496
Ag 5.551397490444415 9.194203342748933 5.49590308197369
Ag 7.676362605255459 8.253651335906142 7.169117628369815
Ag 4.817652118706079 4.811249511630123 7.100032898297862
Ag 10.294273141225164 8.854869553096808 6.556242215449417
Ag 6.102135826545718 10.26462584091236 8.231169782814511
Ag 6.559082681941878 3.213009462624786 8.717471885869895
Ag 4.9272312934076865 7.600653302478582 7.815687376274381
Ag 8.963600700520514 10.089041395869351 8.830439318856607
Ag 7.554466048876953 5.6272062498019695 8.1294697889632
Ag 9.812524434048306 7.099960462639009 8.744189273224354
Ag 6.803409133666833 8.077443656188862 9.921851439140237
Ag 11.497386178296496 9.153057384472174 9.348083028558714
Ag 7.2971935024777554 10.568240781234925 10.94949780169067
Ag 5.396669246199041 5.6105453582638525 9.82138549679262
Ag 9.33661696245741 8.520935114632712 11.16921655271513
Ag 8.240632127995914 5.915699357925376 10.830249447530052
