27
Energy = -55.05779894 eV
Ag 4.680838137394972 5.595291943317604 4.5065609910793345
Ag 2.8690533548313875 6.611878038818754 6.552594940266566
Ag 5.257213382016289 9.580186488674212 8.463398552072166
Ag 4.958167333413071 2.6471596233607726 5.602684562002195
Ag 6.424622805832403 10.159760317270111 5.936568389682217
Ag 9.298565096288478 5.24349583521825 3.2457104162940302
Ag 7.929136771074598 6.763674366408969 5.238891331678725
Ag 2.5990570264754824 3.9175246213575985 6.4804670237933975
Ag 2.985905458724826 7.995466157311052 8.950928708024643
Ag 5.616447355971775 6.901082874916742 9.190735800932561
Ag 6.028786074482316 4.161393003266843 9.704337669827543
Ag 9.022449105840522 9.320158498031505 5.364988874867792
Ag 3.488637334579845 9.414559820442083 6.321747201894749
Ag 8.601756371341741 8.047368122888198 2.753567090674901
Ag 6.014978422141366 8.32732331974159 3.795837277118529
Ag 10.140634018406919 7.224396007553332 7.15644627980106
Ag 3.265353127214179 5.1992470250084954 9.068311705451556
Ag 7.985973915372163 5.683091878996867 8.195682581700392
Ag 4.1597225248675365 2.605303428666393 8.363706720074186
Ag 5.4952911055167215 7.565438343578005 6.414109927115359
Ag 7.765763907813248 8.465164274409128 7.83099950070654
Ag 6.651139560160861 5.9484958466432 2.5583365242116654
Ag 5.308849481478061 4.908376384701217 7.120047064357733
Ag 7.415749649944868 3.0930342260777026 7.249060744349536
Ag 10.715361468380877 7.285186044642303 4.451174942707029
Ag 9.505442778568606 4.633540240217144 6.0572037162096315
Ag 7.10484617031601 4.0833218991497064 4.624090110712706
