23
Energy = -45.92720715 eV
Ag 4.8945977777919 6.901127607792967 3.567097249943801
Ag 5.658619588429549 9.413600523479442 4.465569248963543
Ag 7.581283351042843 7.450051273067457 3.097041585046624
Ag 2.7865311881526162 5.637652053594252 4.884232287971976
Ag 8.467655981447258 9.725458707823579 4.5125296448513295
Ag 4.375780180316535 4.219543621399984 3.0261873585534835
Ag 4.395352192806701 3.553736218297805 5.757008429656893
Ag 4.498061813286585 7.683539427101286 8.938387849875767
Ag 7.124906231104763 7.436582816313218 5.76721496252214
Ag 9.939800017910501 7.416924135792613 5.2281895732811545
Ag 6.648275464773997 4.929370837618946 4.472509522436392
Ag 8.894075829462082 9.08620111613884 7.2131181041782275
Ag 5.999833187212877 9.451823552270264 7.377908518080912
Ag 8.789853050368187 5.065909598302642 6.2183722123368765
Ag 5.965781733485401 5.42696478039528 7.263999760209976
Ag 7.044048286376583 2.940248611407886 6.705695134867921
Ag 4.128319194176566 7.713661119928145 6.183959172786484
Ag 3.2332482281716644 5.409401438510801 7.666119313936568
Ag 10.070979196264911 6.674281016944335 8.034458122193248
Ag 4.77774545753101 3.123908795726961 8.484357020108245
Ag 7.3926942870540575 7.319819261365115 8.783403569263074
Ag 8.190093367522989 4.595783610356311 8.88081476779646
Ag 5.668673555882362 5.343433249661048 9.998099089805615
