23
Energy = -45.55829556 eV
Ag 5.60807811955219 9.768839208918626 8.209442645476384
Ag 7.537874735262287 8.20833542109259 9.592936108546732
Ag 7.356943169680022 7.612832978373154 6.798815520696653
Ag 9.616185838783117 6.693582290919089 8.526678939107823
Ag 2.89297267855697 8.696604098228137 8.51524160147721
Ag 6.436765943278494 9.994125448845688 5.560046584290766
Ag 8.38379407118732 8.71008305677162 4.03506194599548
Ag 10.028397142868574 7.248768105101781 5.837121781683626
Ag 4.320726057555648 8.197795212161463 6.26927462874623
Ag 7.1557997827584945 5.4278078220528885 8.99087136466445
Ag 5.048870628294957 7.050728259052378 8.758433126046954
Ag 9.311051719815923 3.7738573104247055 9.075537279543154
Ag 5.795749498594157 7.614034560486538 4.10372571551743
Ag 8.745161320355132 4.809159078517544 6.633124643557079
Ag 8.024668872862854 5.902530108143448 4.305710148826271
Ag 7.28950822006557 7.007962365061282 1.926932922133422
Ag 5.663472003487342 5.332232820931412 6.2488241257410415
Ag 2.8527031961051232 6.0270783580047524 7.296933766855908
Ag 4.576211522060147 4.220049327137728 8.654805324966821
Ag 6.85268863500743 2.982391851715184 7.636040235930909
Ag 3.4652527758468135 6.039805155974436 4.588711175265005
Ag 5.605041253651587 4.962241110821443 3.1766490425776612
Ag 7.083660368366571 3.254182839681977 4.890219022831991
