26
Energy = -53.0927554 eV
Ag 8.475823075209929 8.846940208151517 7.891723808601929
Ag 10.489660626965911 6.873967387665177 7.870134111337177
Ag 9.415852718663333 7.734710094978976 5.33483556306783
Ag 5.97365500189237 10.17343261657057 7.585872394614332
Ag 6.287885614986323 8.237721791609765 9.601645047508185
Ag 10.049835618401204 7.56482194662286 2.6781249224668744
Ag 8.092196025942924 6.256805361175139 9.086399320490356
Ag 9.00802214843557 5.089136638232154 6.35471051689273
Ag 9.921721201430817 4.237407745603009 8.859805479757084
Ag 7.675477384444601 9.939883605949811 5.418872989855064
Ag 3.6446529149189857 7.364265823119981 10.351883758284734
Ag 4.306111456148264 10.06259810829298 9.870477587190843
Ag 6.818940720045892 6.98930204515927 6.572463503413139
Ag 7.216074252532279 3.7479734004515506 8.089927852260987
Ag 4.0654186927788025 8.131309363829645 7.721866231871252
Ag 7.415872455404462 8.14711127986405 3.3309304310974017
Ag 5.192096286221544 8.54135652418194 5.072813119658387
Ag 5.348093523192792 5.717752024071665 8.735783091203125
Ag 6.537516038945247 4.28393862981208 5.429422513687255
Ag 8.393527350247991 5.54252521307472 3.611055998752243
Ag 2.686497401237783 5.479515202504392 8.42684858001911
Ag 4.11729087241395 6.004977662856626 5.962460886257791
Ag 5.566938916153044 6.152732569697451 3.528190647704248
Ag 4.15262614291016 3.7120425183556236 4.217537159961933
Ag 4.37682629762758 3.5417165233668086 7.188004956989978
Ag 6.539044891886852 3.641479890514541 2.728446745942337
