26
Energy = -52.98641423 eV
Ag 6.540516240717723 5.436377210184633 12.121410708801477
Ag 5.9160613872799095 7.78505362382123 10.882011766978046
Ag 5.674512697278193 5.227918445539098 9.51713756322733
Ag 8.212303864225552 6.234338796418222 10.014494253867309
Ag 4.604412831392192 8.169348569178858 8.454428575280621
Ag 5.707652659369653 10.327823624470545 9.81585587590781
Ag 9.388717370926994 6.820905115304923 7.575052679723165
Ag 8.305661796945008 4.253017138583501 7.99715206032969
Ag 7.483519692999662 8.593587364044398 8.611250431589136
Ag 3.7014120971267364 5.611617187207302 7.500808664422045
Ag 5.680201190219694 3.6741753538899027 7.14876677542222
Ag 1.9638344091260145 7.732490906884215 7.857683770652024
Ag 6.499305632672878 6.372727730154263 7.085331532360238
Ag 4.983627851919705 5.27129654172595 4.896900466671586
Ag 10.271805340159187 4.73950337287638 5.937463217830411
Ag 9.119745318346286 9.321771287098585 6.380114459820237
Ag 3.8317389755147073 7.738919742352696 5.741682483661841
Ag 6.32439330588967 9.058336726863452 6.031046314882718
Ag 7.331091934867007 11.149521854907242 7.591673055072801
Ag 7.655265780710905 4.1909247533811556 5.222390055285028
Ag 10.842068210193206 7.355790699606593 5.192403726344227
Ag 8.106011426199906 7.135285474652353 4.8789667493070334
Ag 9.677008538158194 5.41697022299595 3.3189158117514306
Ag 6.931069569298293 5.336390634832347 2.8447084667792195
Ag 5.634217619378034 7.750301989115484 3.6426050529564837
Ag 8.064871826037496 7.746633200863847 2.1907730480281686
