23
Energy = -46.25774358 eV
Ag 10.127110442233155 7.364918458051404 8.065006182931691
Ag 9.132900875768199 5.592568002448465 6.053660277972836
Ag 8.52408131812776 8.318010320581502 5.94159155329529
Ag 8.82338701414242 5.0137565146531555 8.764515581842645
Ag 7.836750596220028 3.87240109968992 4.252972048836977
Ag 8.90950744885642 9.773012404338576 8.360611229306386
Ag 7.86628744169701 3.08461763346032 7.004400150477556
Ag 6.126717894552257 4.434812128671985 9.004508180517803
Ag 7.23080429690985 7.327720646802054 8.276769327764049
Ag 7.390714261059425 6.615022693432366 4.000145636520763
Ag 6.316992922525146 5.275813732458996 6.331376150908771
Ag 5.516019035294031 7.965290537731537 5.987234502003879
Ag 5.618164685786853 2.548540289741327 5.384771641709821
Ag 6.782695754533474 10.326795874560547 6.740619973193929
Ag 3.945442115861506 3.8671113726856152 7.273147484371442
Ag 5.008546366204725 9.115661575857116 8.573898818521762
Ag 4.433306384070201 6.436279040371568 8.23374306139404
Ag 6.825689112413552 9.35233139779602 3.921560962664915
Ag 3.5193234914772877 5.987564566749159 5.428336384040819
Ag 5.234026827638474 4.722336666842407 3.581709285430203
Ag 2.8775740716766354 8.2828958610122 6.909708704448563
Ag 3.0550041243894808 3.2996627351302124 4.655000450025144
Ag 4.804650569133121 7.461265584276445 3.3411314082065777
