23
Energy = -46.22771303 eV
Ag 9.142352261604278 4.52320659385207 3.2056214867043313
Ag 7.200094607184222 6.478247861957599 2.7976287476917037
Ag 9.228901537453801 6.9545562742942115 4.763575326844623
Ag 6.917433667492936 5.456734968902826 5.455072948274568
Ag 7.601647684670831 2.808776885237038 4.779345037993586
Ag 9.590469894358932 4.347795461860891 5.96787496560274
Ag 5.245522485433826 4.469541672017695 3.482909085203442
Ag 8.62497320865527 6.431628424499854 7.538272838616887
Ag 8.84947782913039 9.038819991787342 6.599456098657941
Ag 6.712009721594821 8.275123438757076 4.907606818652737
Ag 7.379667677230548 3.7890060061885698 7.686243351752385
Ag 6.967372365545187 5.709518002370636 9.677995310013646
Ag 5.1609734719868845 3.212505702610182 6.066036030235055
Ag 7.558404870351903 8.504854237167631 9.11711876674817
Ag 4.682465693505954 4.6871797343315915 8.36690140031322
Ag 4.540943931706602 7.247684649199996 3.4123054056818183
Ag 6.239266943774922 9.997369563999207 7.03856545621682
Ag 5.770604036550922 7.167925432213434 7.508181835028916
Ag 4.544326316634296 7.01710777817566 10.16351250003965
Ag 4.0997070783212815 9.327749387183777 8.681275541358813
Ag 4.010407661130011 5.735238685622951 5.695653488978081
Ag 4.032386459285365 8.605340184340205 5.816662215995657
Ag 2.9088624282006537 6.916882234694326 7.93740821115012
