28
Energy = -57.96067852 eV
Ag 9.526962917796853 3.7236076751363867 3.7589304718624557
Ag 7.828103860616296 5.930102993008731 3.5759038304322686
Ag 6.843697325066494 3.538280534908379 4.758592618854345
Ag 6.788139845528737 2.451713036175196 7.301855547849519
Ag 9.001699518718205 8.492646712800655 4.221454479029198
Ag 9.104410282784169 3.628530362794757 6.427073390764355
Ag 10.016503128843368 6.097198531989552 5.385943885394528
Ag 5.039342271397086 5.605791136070398 4.052857779499349
Ag 6.221382835976411 8.139669426542927 4.32541283938879
Ag 3.596193075053971 7.986042605151706 3.4174512304675995
Ag 4.936987454992765 4.532368674555299 6.69399643375911
Ag 9.002262624074138 3.1417765000047386 9.148326803753465
Ag 6.793786917614045 4.854299303698546 8.827970868207187
Ag 7.204224123707338 6.21358178979368 6.3179894916343295
Ag 3.8050443159814193 7.133258233940492 6.0229396424552
Ag 4.629836524860668 6.640717028271628 8.584546662341317
Ag 9.504169739512111 5.79508796332223 8.148914618509856
Ag 6.026975701532649 8.604387994646252 7.195356120898258
Ag 9.088590487857072 8.360848909766034 6.928279646305813
Ag 7.360165658770907 10.42893309011699 5.678534362836357
Ag 8.687836557076704 5.420359897755172 10.79972085496878
Ag 4.323499029982245 9.964020631925369 5.337093871895942
Ag 6.025782916407789 6.542571747062187 10.988878769793041
Ag 3.3562168113007202 9.178933235850158 7.918211578066857
Ag 7.796654526953995 7.680378203366418 9.28321516461352
Ag 7.787406835327968 10.421666219392982 8.468873281019917
Ag 5.468244160805932 9.241625828366775 9.842468845256354
Ag 5.279791387725594 11.295512569852315 7.633117746407624
