25
Energy = -50.27993745 eV
Ag 10.086177340102044 3.7766761853135176 8.53297563922559
Ag 9.70994074357807 5.186111665344522 6.150141686409603
Ag 7.592853585502274 6.9715010343935235 5.87260392298248
Ag 9.79986773001779 7.648658170270919 7.510039786293084
Ag 8.290831167009166 2.7933958549042157 6.646217329919129
Ag 7.465175417559791 4.421214775327263 4.4756548666865035
Ag 7.982429628844678 6.840941728327495 3.162791769297861
Ag 7.948024311409548 9.662118357036885 6.4543319953876495
Ag 9.18030138681276 10.011470615841125 8.949428907390836
Ag 7.744188201131751 5.180618105742081 8.113540761530583
Ag 6.519819042044985 1.7940837179505573 4.673994080210254
Ag 7.328972812071279 7.885558712981858 8.724901027605057
Ag 5.386816399042494 6.301664319114656 4.302686640456287
Ag 6.421880978023708 10.47940057066814 8.693799980906782
Ag 4.5806760673478095 3.619931492507607 3.86923780103549
Ag 6.4297820044867136 8.947286001867301 4.16738079182172
Ag 5.885111111856025 5.9089943341195434 10.177763615121046
Ag 5.207781850876033 6.220980148473551 7.518755666206009
Ag 5.635558535910583 3.73125204999892 6.486704451896823
Ag 5.163120336963278 8.995102324260609 6.619605446368404
Ag 2.858197300451013 5.770971110195205 3.2075469095473035
Ag 4.613706458711459 8.32015489436717 9.29741117646896
Ag 3.412665295550573 8.157680811331915 4.564520830831712
Ag 3.2564218826271576 5.146187084037533 5.867253879009397
Ag 2.7857180366192575 7.523542749708885 7.2517731582513925
