26
Energy = -53.19627701 eV
Ag 6.5033368832608325 2.6345076792530886 4.713551233431073
Ag 4.816240277060616 2.5389821582242176 6.972880858939506
Ag 4.952190367740889 4.211302824747417 9.21839437747777
Ag 6.974057221677609 4.185213184807145 7.305191213761868
Ag 7.224070767342431 5.9619103467645305 9.626007429288002
Ag 8.79161540728172 4.348492139941025 5.181375829755998
Ag 9.142042456598688 5.948314694922002 7.5058104615504995
Ag 6.460501989756935 8.371241374946125 10.819694977983977
Ag 7.65998973564215 4.248269175347591 2.63940420984623
Ag 4.901684788807422 4.344413078829735 2.2515292433335308
Ag 3.8171529800651958 3.7613491556180136 4.685431542639649
Ag 4.130602883076152 5.478264506638565 6.888049268697658
Ag 10.67187565622861 6.44111554173186 5.269499746351174
Ag 6.105383295120969 5.36927973976714 4.736609411119077
Ag 4.603540624120698 7.058351945454661 9.199472313646124
Ag 6.550719306825402 6.972305895545558 7.0304625903925215
Ag 8.318258317367915 6.833316331489064 3.822908423113555
Ag 8.750393708005484 8.42239579106361 6.0324354576922445
Ag 8.425847185317302 8.44915488967682 8.860613971216905
Ag 7.246259702680464 10.828434786375059 9.68432657989494
Ag 3.776152037050768 6.866440230646708 4.419058284959503
Ag 5.8350315339483725 6.923766001464199 2.4124345430656207
Ag 4.092325205763718 8.451357676386515 6.691141053223386
Ag 4.678018829330986 9.843852853728757 9.16739517517768
Ag 6.123922539816881 8.485630602547536 4.691871650005542
Ag 6.588051765640841 9.864314493065107 7.161077689232551
