29
Energy = -60.28268154 eV
Ag 7.280319100529881 7.86980958589081 3.653330304192801
Ag 7.673747287070254 5.179327452654487 3.932164723080559
Ag 5.049955452716511 6.241342339314728 3.542455792264452
Ag 5.082255557832623 8.725637953868258 5.118252529707805
Ag 9.508310721021555 7.1934146806872885 5.191605097366876
Ag 7.675852384115239 9.491242227567987 5.842143157956675
Ag 2.8103438526921836 4.530424668396585 3.8525150367917274
Ag 8.105541379179789 2.407399296262994 4.2977645323941625
Ag 5.45329067111757 3.4031750399649905 3.9246522494372518
Ag 2.7470457392082412 7.119225897231369 5.110325629661956
Ag 10.135679979367737 4.418626322603216 4.880949241485372
Ag 2.893189088501804 9.600744967937658 6.570424631278771
Ag 6.846519942052173 6.713098972200179 6.385260776588174
Ag 10.392215109939569 9.859962404646316 6.18198314654025
Ag 4.428231350948874 5.030013277326996 5.980105183651278
Ag 5.494418163226757 10.801921452625027 7.047222941094968
Ag 6.883997307622435 3.687469004003596 6.387875323072152
Ag 4.186921463232354 7.369179179141031 7.566349635016293
Ag 9.366997420809458 2.5545681995537137 6.862632612807493
Ag 8.393447972796514 10.910127269430435 8.083477573806606
Ag 9.32707347623888 5.339429355603734 7.347468491048328
Ag 9.19982854559038 8.128632646553006 7.873248403618651
Ag 6.599556832482064 8.85268695186283 8.619800359766282
Ag 5.520567959753025 5.030553269132709 8.47219832081388
Ag 3.9626614802579954 9.599652366718798 9.20340797597779
Ag 7.75156195743834 6.416190562399791 9.439710864725091
Ag 7.877529020067917 3.548916494640302 9.025656689272031
Ag 5.050704866219044 7.186122912250195 10.250455826887304
Ag 6.28886000938205 4.75485923781671 11.090277743491237
