23
Energy = -46.35844652 eV
Ag 10.3275614746056 5.585378980594022 7.686227008891537
Ag 8.332504340622465 7.324734745690833 8.36561101493922
Ag 9.800614082503374 2.919694861857144 7.60258033383661
Ag 8.416691032173237 9.975603477588034 7.3275806968935
Ag 7.866333880089184 2.491470972647493 5.738333774540595
Ag 7.4428898430597075 4.3836453297171785 8.196263023073039
Ag 8.468976833292903 5.198346790372216 5.7354496861022195
Ag 6.046731408524468 9.005289349891907 8.521574456118628
Ag 6.123708466252865 6.422288820243546 9.811816919087983
Ag 6.0707028102328255 6.5669013715723725 6.97958925593346
Ag 9.598807205176328 7.791063761541998 5.930188137498682
Ag 3.5709516382738413 10.296173835379276 8.054300334581104
Ag 8.2670853677853 6.9467165123489005 3.535870399923167
Ag 7.108403574921719 8.883459340312825 5.190249421168635
Ag 4.484338900489879 4.655237969823964 8.422637395097961
Ag 5.889505509509059 11.083830760978906 6.690602917369335
Ag 6.965182351241563 4.405807612975646 3.5693093350170892
Ag 5.579020446232578 3.9740121645697366 5.941993307633483
Ag 3.6881472929996293 7.406816225928907 8.459260992214675
Ag 4.429225428286909 8.686961728430287 6.004970330607897
Ag 5.546699683882076 6.791466667622185 4.189854414487546
Ag 3.5083456472903927 5.9236860535915765 6.010729123618423
Ag 4.127239364799968 4.524964717811789 3.5600428061469396
