23
Energy = -45.86243318 eV
Ag 8.12658899754919 11.020434134944626 4.909449359475432
Ag 6.555996963563134 8.713763062017925 4.657771910044264
Ag 6.719581712587423 4.788930965037886 8.844733433566448
Ag 5.0231299490100865 6.965767476933903 9.202785203457909
Ag 7.399386367221703 1.6444948064448395 5.503546919170586
Ag 3.9190918255909235 5.600288801948894 7.070082533428349
Ag 8.945579305989236 6.434089082159532 8.286530118420385
Ag 4.974159933474223 6.370931184705775 4.495463362733547
Ag 8.241087549626416 4.264701769890987 6.276811602133925
Ag 7.77817225595411 6.177729852939518 4.053775833649389
Ag 9.237745559507543 8.55358183028386 3.870773453342167
Ag 9.930197449252647 6.481477665300747 5.719458293943525
Ag 2.5517408743758367 7.779160670019856 8.31529439162274
Ag 8.718948635073714 8.833055301691122 6.61082177771172
Ag 7.196368476735823 8.572966743097998 8.923113702867557
Ag 3.6049995758187117 3.985044200717086 4.813899339047723
Ag 7.648137091188486 2.2673518463156017 8.202869761168047
Ag 6.694593142445625 6.639989309610417 6.729851401630323
Ag 6.368003184085383 10.520338836977487 6.956579464578855
Ag 4.496102886081033 8.390832861467645 6.517421577184012
Ag 6.360111466442464 3.825944522770367 4.125797734722618
Ag 5.515636262805605 3.3211636353998912 6.753086214558334
Ag 4.627234820560572 9.790487372391027 8.962993300238027
