21
Energy = -41.83189201 eV
Ag 9.87653919735508 5.848498617773096 9.170410945266397
Ag 10.13185926023475 6.854434971786754 6.604637647623643
Ag 8.187562172466496 4.848185311937181 7.226132021264657
Ag 10.403400391989324 7.867532752620416 3.991471474137451
Ag 7.246348842051875 5.363166373210902 9.883720920228594
Ag 7.952693188245934 7.630347160491247 8.281166673337582
Ag 8.503825956925395 5.841853619028487 4.552505609271423
Ag 5.478449328115765 4.297554485428101 7.982528599767425
Ag 6.388250402257591 4.0824915783716325 5.2893286258748295
Ag 7.932021019946216 8.073843947283141 2.8717467631473266
Ag 4.567357499247162 4.867067187390064 10.599183805702733
Ag 8.247526726432396 8.694067959224846 5.627332169957211
Ag 5.995757767328962 6.052898859311364 3.296674845597602
Ag 5.979196506042249 6.671606017620418 6.105127662267582
Ag 5.239443524144405 7.15017186068459 9.052004056555864
Ag 5.7176654284067485 8.959183183124571 4.399077602463799
Ag 5.9546873038776145 9.19269680820545 7.2094188239357795
Ag 3.7373216282331847 4.881514335459793 5.853486668886363
Ag 2.971082275480759 5.545773186438558 8.499380558848294
Ag 3.640419559006201 7.1326606475882155 4.256901725618428
Ag 3.49714255996345 7.838541919933129 6.929670602833844
