21
Energy = -41.84151864 eV
Ag 7.757210299422108 6.134557041680068 10.372216307626774
Ag 7.163602703115701 9.39013538882705 8.521053919601282
Ag 9.504199103727066 7.886078050896705 9.010628570006014
Ag 5.224346195037748 10.259308917784017 10.323848519022896
Ag 7.329101641171544 6.635308395948876 7.664061192107996
Ag 8.138530858430993 4.05299280961806 8.367641965531552
Ag 11.557632779328134 8.433134652295385 7.217392726995623
Ag 5.549928503799639 4.843662336854793 9.048363956430794
Ag 10.041747332135714 6.138757444794136 6.8251395570509095
Ag 5.368952188869585 7.5331270046472305 9.75812205711451
Ag 6.030701463154351 4.366129587655793 6.342279675760916
Ag 8.976135756288983 8.790847640240207 6.400944701945488
Ag 4.399988076584577 9.393470071283723 7.847627858294518
Ag 8.711030898767351 4.031659543803 5.668014646935603
Ag 6.265919174358556 8.66652234743484 5.865626953866478
Ag 4.502167124794351 6.653042772320267 7.1589053747888265
Ag 8.01467443135081 9.164139492503626 3.8096956645728786
Ag 6.843032979351328 4.297119399449019 3.6422318749229814
Ag 8.0750667052927 6.580611154374183 4.766961815392451
Ag 3.6023843518130936 8.565602463322193 5.29064080499053
Ag 5.251137212392046 6.418348993248246 4.446419006485103
