21
Energy = -42.30595293 eV
Ag 6.479046229397553 10.704820999999999 4.300549474025729
Ag 8.858399375399747 7.9130858786977685 7.5508889848059955
Ag 8.768770200179665 9.248812859772315 5.100219249686845
Ag 8.768770200179665 3.709279599022792 5.100219249686845
Ag 6.479046229397553 7.87484284925998 4.159060982392663
Ag 4.189322258615441 3.709279599022792 5.100219249686845
Ag 6.479046229397553 5.083249609535129 4.159060982392663
Ag 4.0907549427446614 6.479046229397553 5.067267736045122
Ag 6.479046229397553 6.479046229397553 6.6694389456488015
Ag 8.867337516050446 6.479046229397553 5.067267736045122
Ag 8.858399375399747 5.045006580097335 7.5508889848059955
Ag 6.479046229397553 9.351978389629705 6.752162297210641
Ag 4.200494337026582 6.479046229397553 9.950512673317073
Ag 6.479046229397553 5.0448800120610935 9.16349630387269
Ag 4.0996930833953575 7.9130858786977685 7.5508889848059955
Ag 6.479046229397553 7.913212446734014 9.16349630387269
Ag 4.0996930833953575 5.045006580097335 7.5508889848059955
Ag 4.189322258615441 9.248812859772315 5.100219249686845
Ag 8.75759812176853 6.479046229397553 9.950512673317073
Ag 6.479046229397553 2.2532714587951013 4.300549474025729
Ag 6.479046229397553 3.6061140691654 6.752162297210641
