23
Energy = -46.10256422 eV
Ag 9.057262667321037 4.7230269836912635 6.895131374644934
Ag 9.167435080776249 6.362771258884401 9.286825718839145
Ag 6.9517786270564645 4.546693765431954 8.914850704426344
Ag 9.888994727189592 7.611093686896575 6.794992588383186
Ag 7.583260572883027 2.3669585306115417 7.259232450237465
Ag 8.39136864651297 6.375231048680438 4.691636339699486
Ag 7.1761178665428345 3.8916632052532285 4.915440419540805
Ag 9.636033489421672 8.79536776125668 4.144361869665084
Ag 7.248482161392695 6.813753467167653 7.305763090345977
Ag 6.547313934120977 7.328192781008817 9.984693871936942
Ag 8.41348755379793 9.095553735710073 8.748828462732243
Ag 5.189458488380392 3.761899779222894 6.815560338799995
Ag 3.8202795515933645 8.28694104469625 9.687724120838096
Ag 7.67643663142241 9.27351654556431 5.953055043831361
Ag 6.375510292130079 5.579387727414826 2.7906687154013703
Ag 4.472148314290396 3.859491706568655 4.077844526781268
Ag 6.908439563950762 8.249806518578188 3.3558186261805187
Ag 4.63950545349309 6.055345448154895 8.266366457117382
Ag 5.3784362662430185 6.356489373080303 5.277656412031514
Ag 5.656842173286327 9.087326811633865 7.863811530507707
Ag 2.933340381369088 5.2703878026240725 6.060923784286459
Ag 4.996558684508124 9.225877085802809 5.151094305960593
Ag 3.206926157456433 7.915234473715877 6.86473047560152
