20
Energy = -39.13501862 eV
Ag 3.860611261550685 5.2024422516244915 5.131085199050943
Ag 2.4353727088464927 6.445218362315583 7.13598827531227
Ag 6.150621092352571 6.355100850807389 3.9970059970231597
Ag 6.254964571656317 3.987571787365818 5.632810746044776
Ag 4.750013711181584 7.7927670051929185 6.032368073641207
Ag 4.834056194815133 5.258360912597402 7.807833566216403
Ag 4.096772911170528 7.829933404345815 8.838783501933142
Ag 8.806456756674928 3.1898184185012255 6.162629573861004
Ag 5.4743055105855305 9.001151831958463 3.4820256367108957
Ag 7.340083496303714 4.237938033621961 8.431388539669117
Ag 5.680671733830335 10.665207544485503 5.688808061197486
Ag 6.385983698503402 9.152292432264035 7.918880479597181
Ag 8.679030566509116 5.40458137193357 4.516214671827744
Ag 9.068063110993252 6.0199283569245035 10.048435054042516
Ag 7.513431225119812 8.708339056005412 5.268386288514056
Ag 9.768755551208217 5.448805814867582 7.412509920566419
Ag 7.232787717987204 6.4336165670376735 6.745292351561992
Ag 9.949681854627052 7.645499103170883 5.646761576777705
Ag 6.524396693676169 6.7960423517574045 9.53487251461747
Ag 8.925369440044129 8.134310854998914 8.245081886938856
