20
Energy = -40.31707424 eV
Ag 8.52357626169704 3.199312096465517 9.241972503098635
Ag 8.387539058598263 5.903058446394498 8.784488149640651
Ag 8.091846870409865 8.541502036653553 7.941281285300514
Ag 7.618928034578533 11.087595838679327 7.063571885111482
Ag 5.969697839064011 4.283660836150265 9.082403929907269
Ag 9.099906907634685 4.339565761348704 4.430742239084436
Ag 8.31207699652366 6.4876159156282815 6.0408209118533085
Ag 7.511600738893464 3.8784688143673383 6.7745432637434835
Ag 5.935084976825003 6.764164818382104 7.730634529173433
Ag 5.52755903547097 9.351102901932391 6.733505195180722
Ag 8.038379840731837 6.834303238938774 3.3217223811216385
Ag 7.903949549578112 9.094081058399176 5.099111444319313
Ag 6.3996488739254485 4.625509954164789 4.367574596917082
Ag 3.541883303641928 5.679430558837206 8.733467288217538
Ag 4.695210389807134 4.377660989098311 6.568999127992622
Ag 5.695699801236164 7.425198356982725 4.696191400656322
Ag 5.576765896650965 6.0160180732826865 2.181022168446803
Ag 3.6915400788735058 5.4874920722067415 4.222938316282488
Ag 3.5300704722382794 7.427872023786899 6.459284364137438
Ag 1.9844822306434968 5.157647845097214 6.404395772808145
