23
Energy = -46.11620752 eV
Ag 9.4596249082666 8.066366832201782 6.285653750211451
Ag 8.093001262515628 6.410081633853987 4.4580079037865294
Ag 7.475040434013511 9.275296010411385 4.683552569683814
Ag 6.986973323966382 8.584876562336111 7.521040326691301
Ag 9.628318670461553 5.255775388253473 6.414075422346772
Ag 6.282196335592984 7.401552269556977 2.6071862707970896
Ag 8.646074227189708 6.595223381012382 8.636387013200704
Ag 4.923476913114965 10.084679227466674 6.262219446493515
Ag 6.594075770972823 5.760111590624949 6.936483816589621
Ag 4.881908633923194 9.707076009550027 3.501934099366949
Ag 6.128134340146795 7.021460654159582 9.755731961081887
Ag 2.803029813083844 8.271471631199665 5.579942585189247
Ag 7.859099406084368 3.499350841420762 5.151887349657903
Ag 4.276725298591771 7.613340445933027 7.870367382742756
Ag 5.441416946946442 7.570409284126857 5.231272963697332
Ag 8.010673625512023 3.725984934787604 8.13439529405988
Ag 3.598927425431269 6.665245070103106 3.381860522366911
Ag 5.710223433050787 4.923561366239774 4.154399030867053
Ag 4.592891891325399 4.847445574288074 8.708625203379833
Ag 3.6995106805550555 5.494852779540872 6.07790372695796
Ag 5.340029192616675 3.2282707582048378 6.421630840813325
Ag 7.376383406192502 1.338134250469475 6.876085759428769
Ag 5.826415793705649 2.3041072450127316 9.021767894895378
