33
Energy = -66.69568955 eV
Ag 1.1962634918346866 8.239628832012484 4.909645143816447
Ag 8.559629247329942 4.677278427588362 7.8713860831890985
Ag 7.713699948672539 5.873900413273046 1.0478727689929768
Ag 6.5306876357299295 3.832947740993957 5.80991352507315
Ag 3.545943393675383 8.502054263143727 6.218623310584969
Ag 7.342179508874456 7.120086674716023 8.495048671861591
Ag 4.402295480796739 7.277677423565616 8.66295195952263
Ag 3.9548756108643497 3.6451936416586124 7.008932663634119
Ag 6.0270268415774435 8.436489018885544 4.4818946859780935
Ag 6.156807418489912 9.27170111196126 9.90715498303553
Ag 8.599908491142807 9.620461470672842 8.294473128346828
Ag 3.688996211369183 9.997483974236497 8.5802990628064
Ag 8.608187619997683 8.987155464449312 5.575567231997505
Ag 6.059157344120988 9.276804954141951 7.121940808432822
Ag 5.799341187592975 4.76099438803256 8.663369709319138
Ag 5.6534053583671415 7.562327562452661 1.8150386674605428
Ag 12.645914658979825 7.106557288277899 7.333561942754239
Ag 1.8138227313981332 3.211947269482348 5.310886712722517
Ag 9.800756358993816 2.416195592440145 8.703427403495
Ag 9.948820991572637 7.089208620294483 7.4753559617348815
Ag 5.173506151679495 6.243922052980415 6.18131304398397
Ag 8.32627926703186 7.548845267186092 3.1439717037958417
Ag 7.097566381262108 2.3330989528886015 8.047881265814746
Ag 2.342095734153243 5.889608811609467 5.949570966732952
Ag 6.389344017105344 5.509421074460442 3.4866058458777043
Ag 1.5957814894909006 10.305906904212549 6.783466976490667
Ag 4.084989841069222 4.2989206225715995 4.26885338090098
Ag 11.396618632857292 4.820787404426669 8.221804071956191
Ag 8.001741325538559 6.2847618706268955 5.65221048752824
Ag 3.6377239683700004 7.127053517590245 3.7123267998659495
Ag 11.06204665627027 9.460495643792475 6.817901927628689
Ag 5.9399574739994145 6.562753711390737 10.843462807477945
Ag 12.291994830122759 2.7280680402144806 9.646900923611408
