33
Energy = -69.50539792 eV
Ag 3.7738213977042885 1.7077078589928578 7.58834415142958
Ag 2.674001887102674 4.047648686232126 6.519736548258291
Ag 3.71779997840653 4.005931830406977 9.191725184947765
Ag 5.045238824597303 3.0308560218219225 5.4722510392607875
Ag 3.8801996204037112 6.7536134303246795 9.442443618079043
Ag 2.803287494156555 6.819326481087611 6.796412545642849
Ag 6.1929282654067395 2.9348102603972004 8.304641208578747
Ag 3.89810872267669 5.546942069852318 4.471230542152421
Ag 6.208023793365692 5.3039018276616625 9.968934694070786
Ag 5.197916378352657 5.4274664488516935 7.197289339542495
Ag 6.352118340387074 4.528786751690853 3.5048964430014067
Ag 4.124893255828046 8.356881989105906 4.879492082776629
Ag 7.535177232419393 4.170754854627756 6.121562076307873
Ag 6.162626844602617 8.151656572119425 10.172260263771948
Ag 5.253801604962963 8.287634014392248 7.471523838246161
Ag 8.575854175191319 4.362470393563992 8.860210813565828
Ag 6.965613776506487 10.319379718706616 8.535094308311864
Ag 5.438589105710372 10.693944049990005 6.1297850472262425
Ag 7.7055554576662715 6.785990011101579 7.75225235517967
Ag 5.264281656285108 7.143411953354611 2.595951540231145
Ag 6.610531683460634 6.871371184088448 5.138482046950432
Ag 8.441830899858637 9.59759488926212 10.85688241582977
Ag 8.599174826003752 6.818751172650604 10.497480660339532
Ag 10.230154548414152 4.701962275054093 6.501065296542996
Ag 9.459898621726815 9.010046952952623 8.390259061697712
Ag 9.009371808480907 5.497568208614993 4.112146997687924
Ag 7.772075697406677 6.185323530809375 1.7541157830666503
Ag 10.534170236672407 6.4967783466253834 8.579807106453817
Ag 7.84460016626899 9.358848340116369 6.041120043368092
Ag 6.251463071255727 9.694831582700095 3.672102239872227
Ag 9.887813390858415 7.466805962301199 5.965239254766711
Ag 7.104737846296271 8.812031361616052 1.2258944807332244
Ag 8.675343426786881 8.243131430551186 3.511676862754705
