31
Energy = -64.75543433 eV
Ag 6.674282188519131 2.670152272139351 7.78624691978627
Ag 6.569451250647523 4.622317714196158 10.192768506750928
Ag 3.994767748315691 5.713745904381397 1.4580611044814664
Ag 3.77906170850188 7.568782154761066 3.5795759618914995
Ag 8.318403637388885 9.700910836023018 5.617179325310961
Ag 6.059983162926851 10.111578030827165 9.129344009177132
Ag 6.323953773473909 4.603199533440257 2.440527963041832
Ag 8.38834931298977 6.059731517031353 1.327438770053422
Ag 5.903460368301909 11.048184191840587 6.393587073768822
Ag 4.129332648341844 5.6365401691629495 9.101477983039413
Ag 8.846109194138833 4.19057003719092 6.666422877718611
Ag 4.189800966507198 3.7881827077923798 6.806691133788491
Ag 8.72046829666504 6.040762345363198 8.94966268561669
Ag 6.081602619856015 7.463412671382719 1.9221399452781605
Ag 5.983071840323394 9.345773569704873 4.088522989522442
Ag 8.464652897798091 8.75300680243705 8.419614850123105
Ag 4.020245885107368 4.742350700783819 4.139320446858367
Ag 8.67650020306584 5.121152570087183 3.9981744261485748
Ag 3.88908106904203 8.351275346093491 8.571363907052174
Ag 6.494728272361225 3.6369213481865805 5.125293001264767
Ag 6.315707556195646 7.390081295535746 9.723962577840156
Ag 8.418581611455236 7.942168793243448 3.4426438012366716
Ag 3.7104788350204987 9.307973613110715 5.761894921060689
Ag 3.828002009794922 6.556128009450951 6.345628190818741
Ag 8.683731474372141 6.969010437742253 6.189139377167635
Ag 6.146360823464929 8.32836687796263 6.8878807701584535
Ag 6.231109458419593 6.503981491517497 4.695434494047889
Ag 6.394698112576266 5.552721346992799 7.361735982298768
Ag 8.925724101338933 3.29556797548372 9.353108384545447
Ag 4.446219632981049 2.8963058062828693 9.481336324987518
Ag 6.828062054408092 1.8420431056130246 10.458259607997404
