39
Energy = -83.14497728 eV
Ag 6.982507298158116 2.854891700424697 3.6497404359519163
Ag 9.730044979705205 3.8987736479632624 3.4480172106213836
Ag 6.822011656597815 1.1729661722505145 6.280612761766047
Ag 9.199102810738824 1.912507158122986 5.184264821062775
Ag 10.277004286307593 6.445982822019089 4.344758551791031
Ag 7.640389258279433 5.6615405944346335 3.5528673398546378
Ag 4.901106614843258 4.815267192836726 3.099376423874064
Ag 10.148658845552038 5.061561729645772 6.831237439628398
Ag 7.580510933535115 4.126605070231092 6.0406348181615535
Ag 6.1473514523856645 2.939318617348769 8.329704119040487
Ag 4.919464307799173 3.0197124242747466 5.587211854997441
Ag 8.95967942666834 2.603576532685742 7.909167318539266
Ag 2.793942623403593 4.702921797306346 5.162455476331063
Ag 11.299497452625005 9.078366743456257 4.194443615280349
Ag 8.57142311441454 8.46487057885423 3.572991102275528
Ag 11.59282397643972 7.492972235859193 6.52285770677069
Ag 5.852483793305356 7.659396979740355 3.0990650617972135
Ag 7.8819620598423805 7.040589046230489 6.1325002908534705
Ag 5.397482719155414 5.89891046875051 5.510706878797607
Ag 6.662513053439411 10.27682055893605 2.6227589632846904
Ag 7.964856499904842 5.134252820061561 8.67693535414444
Ag 4.003457300203523 4.5652895169946 7.835994173054549
Ag 9.54295995002152 7.477004282140919 8.431795751073333
Ag 9.53913758655018 9.39044751330205 6.271653254831796
Ag 3.2826293636711665 7.230751465582169 4.058714339076364
Ag 5.753940456636362 6.858429861302376 8.070446726851483
Ag 3.0066160061759084 6.973533728495367 6.902017752833183
Ag 6.954905906509754 9.871548483343712 5.371973056946785
Ag 5.604809527657772 4.970151598404816 10.240133457851842
Ag 4.740933443969959 9.387670360313214 6.995639220856465
Ag 4.408512208866997 9.80370016130928 4.183419323084122
Ag 7.3640501374667435 7.413107626645787 10.303111080244976
Ag 7.368103460471927 9.241853472447078 8.071362132038894
Ag 3.3838014620857133 6.691132041217543 9.714872970651891
Ag 2.190548556546709 9.321633864187506 5.778937529359399
Ag 5.117512519313777 9.117753088115956 9.81025712020282
Ag 5.058159749550534 7.18785437492311 11.895415573490528
Ag 2.468888421578478 9.152821980876318 8.6421588482404
Ag 2.83840511479641 8.914644023890842 11.387208722444722
