39
Energy = -83.22179029 eV
Ag 8.786161571170654 3.4103727070513123 11.440092389659178
Ag 10.209371122027916 5.32090632167683 10.099204564319674
Ag 12.015423378463833 6.906377173092736 8.622063105094973
Ag 9.405900941219427 7.752469609736167 9.028428502577524
Ag 7.538474212317909 5.931053243741716 11.0276138711009
Ag 8.278760179382278 10.301333432475312 8.501952433143797
Ag 6.5570195238200455 8.126100412457312 9.404654590009262
Ag 10.21356486402158 5.342570226494712 7.245192394105288
Ag 9.104101263708985 3.1179095264163816 8.6192884976031
Ag 6.5431952614360105 3.3851394058324478 9.825383772120277
Ag 10.629862967913876 7.909538150837296 6.314028457074788
Ag 10.18509251041394 5.69008229848448 4.435106765514362
Ag 7.545391384403701 5.6261539491132595 8.305993946283396
Ag 5.631750939963449 10.104947719886749 7.483599940958253
Ag 4.971978606060233 5.780760589247784 9.734770641532068
Ag 9.403212522341446 10.344400018660405 5.848576972783175
Ag 7.37165625150573 12.143922972784479 6.567292992274838
Ag 9.264791379717698 3.3045152170811094 5.667354950900275
Ag 7.797160129869725 8.182582611234304 6.796781441768832
Ag 4.802164450516886 11.927730443263382 5.436262646978966
Ag 5.3711404969023615 7.9133492228367395 5.541092060307205
Ag 6.7967680959769545 3.0897703545123782 6.9907992409706985
Ag 3.178804065407177 9.70722604052225 6.025260082877788
Ag 2.5468674223226095 5.484953472793659 8.281852727955163
Ag 6.886391564198945 10.176695702905876 4.609170262368596
Ag 4.242391376148666 3.2394074242531854 8.228616176933246
Ag 7.578887153318056 5.687074743854286 5.515364762757633
Ag 3.9647767512673004 7.941494224790688 8.181680029125769
Ag 8.771919485483155 8.120282748725751 4.083777762214614
Ag 5.057378494210577 5.482702111441229 6.868781699322707
Ag 7.817227877893551 5.740763827687171 2.760418155398017
Ag 4.315232265021175 9.95310688162041 3.494855382541723
Ag 6.975346128538856 3.3305321750944614 4.075655541557983
Ag 6.172424420702657 7.9334965072004175 2.891474685667181
Ag 4.499864511540541 3.053130827363524 5.377574449990123
Ag 1.679950904755789 7.444832278247485 6.504880882453235
Ag 5.0854853663161865 5.439360972101891 3.8644008353762787
Ag 3.092564277872838 7.492799424960042 4.042594615954509
Ag 2.6427307662290818 5.083341093280282 5.419820595644674
