37
Energy = -79.02486933 eV
Ag 6.751072684341442 10.490037335659244 5.919448776410643
Ag 4.169372418366892 10.329829618688438 4.639337765457245
Ag 9.007325637487138 9.488823341591942 7.390662436882323
Ag 6.213325771205034 9.188630942946931 3.2246981952981106
Ag 11.183974625580943 8.29062801474501 8.786828612182449
Ag 6.431154150452494 8.987121967511833 8.477075423142185
Ag 8.509486263144248 8.590611287178138 4.73433422618443
Ag 10.527998646163304 7.310462536982589 6.257466418615298
Ag 8.626683313102898 7.885837578931521 9.80214014964258
Ag 3.418443346758142 8.168154479567832 3.0974903482538187
Ag 8.12563775555004 7.504391160727822 2.1116723311856695
Ag 9.888921651247268 6.229570669977806 3.781514793075321
Ag 5.484219833814897 8.029023580395911 5.8265529296877805
Ag 4.142222732888006 10.08622541507346 7.380429261362775
Ag 10.088782437815428 5.685342818733438 8.551557477498347
Ag 7.829874809529666 6.889977971517754 7.1651211053951895
Ag 10.861112986271149 6.747417425363526 11.092283333922643
Ag 5.566778574173472 6.56116995246605 2.1701675400677116
Ag 7.038797394708596 6.078584483557493 4.5091013296065245
Ag 2.647486471169771 8.10052937176191 5.911562925981985
Ag 9.254918060089706 4.665701150671489 6.009825185920978
Ag 3.034665342967464 5.536033986609514 2.055797247483061
Ag 3.9263790006607895 7.480697883337938 8.384798679031444
Ag 8.286036194352318 3.896066223949835 3.4268550178185313
Ag 6.198714671019149 6.409305196616241 9.6676747765057
Ag 3.874206144608378 5.888449010147833 4.6210775085293925
Ag 8.503541736645936 5.233978158944936 10.823553164285974
Ag 5.412588992089858 5.391888375723766 6.943696687418588
Ag 5.422355232189009 3.9557930186761343 3.341398480232969
Ag 7.756833087091926 4.07707061941072 8.286050096461365
Ag 6.810486497083021 3.188734271327813 5.704435110958733
Ag 2.4569031326911195 5.450440729272011 7.008075946815758
Ag 3.877373959693913 4.841494617095519 9.370903444144584
Ag 3.9366013594541345 3.2338711682347787 5.656260483290285
Ag 6.16548081702869 3.713509687093563 10.535791891144983
Ag 5.31317948078151 2.6846113258421926 8.056906586715254
Ag 2.517238017150322 2.8127196884967853 8.053407819127708
