36
Energy = -74.41064675 eV
Ag 10.221246760138138 7.014466639699369 3.9130504420361536
Ag 6.159685220746594 8.165981011586053 8.73036052275729
Ag 5.2794585563198835 5.939628149831594 10.273470947225666
Ag 3.5097602305330886 9.876321453354524 5.112380006721965
Ag 10.536540278425802 5.389151649469522 6.182410759622128
Ag 9.040858170036117 8.826500135128914 9.19786268825885
Ag 3.0688723154589836 7.2257113386692895 5.577307594474189
Ag 10.1892738962831 8.356759594018854 6.454413577279819
Ag 5.329072686473351 3.240696111465265 6.303257678317214
Ag 6.70417056841036 3.48357085537397 3.816581833266821
Ag 0.6087615806053811 6.062978741030041 5.418484111014471
Ag 5.78056048997462 8.083421162490133 5.640769803761418
Ag 6.77235363908727 4.297508117685564 8.559511343607694
Ag 8.133678864065228 6.284562964556852 10.107605268520876
Ag 10.681047893130229 6.721347852431354 8.69014731379354
Ag 7.833612382926671 9.818671239131197 6.919447168395172
Ag 6.950742804038731 12.42911207170094 7.21930121900882
Ag 10.890225316893245 9.641570198571635 4.096887768289774
Ag 6.151807755530776 10.808095069283963 4.9010047509906
Ag 4.93466717545633 5.462831511119888 4.632625149838259
Ag 8.209153073076246 8.94736658535757 4.3144148717638195
Ag 12.228733614372755 4.502253356200961 8.285475884066093
Ag 4.050707102266526 3.8114141391410565 8.776431295331651
Ag 7.108405611238543 10.81121076655367 9.45988854737141
Ag 7.097685166003027 8.668230378888332 11.27235945946011
Ag 2.7561946662500416 4.52494024269759 6.305771998362027
Ag 9.51243874431161 4.215185011268904 8.557995542758288
Ag 8.032841989702641 6.626952524955451 7.218868231138356
Ag 0.9551542232863552 8.755152624206902 4.838405636552866
Ag 8.13365499391149 3.803053317139722 6.169854327339002
Ag 8.876449248193637 1.801478936013915 4.415991690661431
Ag 5.035780176286918 10.358457588397016 7.4062466010049866
Ag 5.60465923749679 6.97878144525432 12.741196636578502
Ag 7.5546636951399195 6.205568739192261 4.3638206344445125
Ag 4.882649283185621 6.077925932913002 7.403527067799439
Ag 9.508657660752085 4.344321013408754 3.7267659375366633
