39
Energy = -83.10944514 eV
Ag 7.132234631570643 10.605653357472926 9.990614463691246
Ag 5.08197753787585 8.665636584155186 9.917118132714643
Ag 3.10791346399495 9.17287160309968 8.070359676998695
Ag 5.5621799684715665 10.568800170645158 7.748552238766511
Ag 7.44419510287377 8.223082162466829 11.53120672665759
Ag 3.8235977630437588 10.123470367097518 5.563534801374458
Ag 8.497342668761215 10.322240132045197 7.524815893784571
Ag 9.614352300230529 9.397960615320162 10.176264294931912
Ag 2.867395678099137 7.342150707540498 5.939738955356432
Ag 3.7665779937733848 6.456656006952839 8.642379755734725
Ag 7.608193722447373 7.962609836617632 8.778688037838085
Ag 2.3531592945730115 8.508846021280725 3.484768985672534
Ag 6.826882405216385 9.949182567496411 5.299044055542774
Ag 6.116668849456328 6.061961937210052 10.248311634561553
Ag 5.480085068305861 7.824898871441307 6.831349311569117
Ag 5.036948407905965 8.351700470589165 3.9041959132728077
Ag 9.139196964706528 5.614638312744153 9.188734299502844
Ag 9.63350982465395 9.408774315766477 5.085540663041239
Ag 10.339398805818323 8.174438522470094 7.801971556634778
Ag 7.765157569116733 8.029944394221829 3.3287399492037437
Ag 5.710278467204969 6.664346343783285 1.846286644837444
Ag 8.169810112477435 7.333688599817883 6.100930646670216
Ag 11.693259449284529 5.7716235897659285 7.91761438226779
Ag 6.211345429748867 5.878444096503402 4.674323641284885
Ag 3.5254137794298046 5.9046819413697165 3.5959602416766017
Ag 6.8320677417919295 5.250130499828506 7.544202966286275
Ag 4.110583606398149 4.876462630545209 6.373985067973749
Ag 7.412833399235652 3.630601473995552 10.176945351403893
Ag 10.902739660039941 6.859750257115094 5.411184601721731
Ag 4.808546580043517 3.8479983152662864 9.000260486835964
Ag 8.969380080062297 5.536746401973895 3.874241393485092
Ag 6.971751505899572 4.2341998563067476 2.437261899171264
Ag 4.3241827581482335 4.2872488905294865 1.4028778262161135
Ag 6.164720755590307 1.338474575875053 9.176621391215908
Ag 7.582666609244622 3.384463631010877 5.05977176085737
Ag 9.585104128186561 4.659166196854735 6.544799136339971
Ag 4.852389193024007 3.4148796385988596 4.086627898061982
Ag 5.500454260142305 2.454805392450853 6.676347867862772
Ag 8.146090107241422 2.6342514453432306 7.708301790526331
