30
Energy = -62.2377212 eV
Ag 11.51133659361969 6.158669967869634 4.849185536516728
Ag 10.9010269395445 7.984588646737901 7.019381520037514
Ag 11.422127068004404 5.25140528737742 7.638757719272866
Ag 9.195356454541669 5.930778794399989 3.24643805899782
Ag 9.417245770581923 8.337031038866034 4.695474574011562
Ag 9.177047603468884 5.805406568078145 6.218423510925626
Ag 9.330089017856118 6.826204161228783 9.007823316724462
Ag 8.09492535584959 8.535216207758781 7.16736146607211
Ag 8.939052141249634 4.073833914918038 8.42090464737165
Ag 7.001932356385666 6.849790137673643 4.967320084390514
Ag 7.5501600742564685 8.193228273006229 2.5930018243300905
Ag 6.580765608955036 9.560240538091112 5.032481427747931
Ag 6.586812208917544 5.1134037413117 7.114665011985409
Ag 7.083209252808173 8.306282863225118 9.785594562581242
Ag 7.091119668357668 5.515613607191794 10.044418730621056
Ag 5.691619540398987 9.814065087167208 7.797890613402652
Ag 5.046420293674212 7.074684629427625 11.199410229047936
Ag 6.4652788487982376 5.548071931520534 2.4044430533247136
Ag 6.354168856481354 3.006242429474375 8.847587719305176
Ag 4.851541665871159 9.794969314947053 10.519491630119559
Ag 4.454974588078075 5.138040993373859 9.242379556141575
Ag 4.8646668717837755 7.693599940702399 3.301124179934685
Ag 4.865363964721648 5.16655564503968 4.879839963937394
Ag 3.859503901097062 7.843813300473073 8.810144877845824
Ag 4.464636720811656 8.013539312517732 6.062186297117701
Ag 4.266069052450475 3.398471003066641 6.987702914764996
Ag 3.6833132066633194 5.053605002541666 2.4223980963427025
Ag 2.9231300059789 5.892242967849678 7.031462449819046
Ag 2.4939670594690115 6.765800375568527 4.421075069865586
Ag 2.4377410191328774 3.9534466995489 4.86189560092565
