36
Energy = -76.6690886 eV
Ag 6.329891901328031 6.24378507592846 10.445915422604129
Ag 5.314997073711315 3.5998079721676746 10.313052525689365
Ag 7.4513723411693915 8.899333415924911 10.124083475275338
Ag 3.694923277157851 5.722254148910409 9.484204800396384
Ag 4.728403115009092 8.421038597147964 9.427031216552042
Ag 9.444356142696682 9.343560227062314 7.97102412898737
Ag 10.322791985741832 4.891924446617096 9.36290702209968
Ag 7.567059911051475 4.18260868215093 8.752325665588385
Ag 8.50420593556255 6.812321833985746 8.717336259837
Ag 6.304031058820951 1.7667972625569712 8.40553757574543
Ag 5.837216223282856 6.523492243801709 7.60547415985974
Ag 6.648239160818979 9.4198860592327 7.54453320395244
Ag 4.046517654911088 8.788724540015494 6.655116832421561
Ag 4.671168279160148 3.8103690099063847 7.586315252374685
Ag 3.081088383621773 5.89921801061634 6.6709303288713615
Ag 2.1301349577314586 7.810910893958948 8.47786834876226
Ag 10.925131371806273 7.018496225819094 7.321610450937365
Ag 9.449789335654827 4.768185366385463 6.759568502167072
Ag 8.054060154242134 7.429199033818113 5.983644085824419
Ag 8.491913263675448 10.560065582282867 5.651875304262281
Ag 6.870737696200222 4.4838254603126435 5.876157612506624
Ag 1.5185594439399432 7.999212050291456 5.713288075690267
Ag 5.67902550440312 1.9153910303638233 5.674894324454579
Ag 5.2389060859792425 6.733437740139775 4.884570146046219
Ag 6.103138557401755 9.47143548817193 4.812766312748009
Ag 10.721375014885096 8.991248725976638 5.388541444158014
Ag 4.102493635123742 4.024470780000444 4.7945212966702275
Ag 9.056894841156803 3.752531613405834 4.215951705969235
Ag 10.17364532670138 6.360122719519716 4.510683472360361
Ag 2.4895156946230945 6.088881232776882 3.861288240812646
Ag 3.562413619116821 8.709353853820131 3.810106818707547
Ag 7.590685327926908 5.943901586901475 3.2965351447895674
Ag 8.57654333790812 8.623220291967208 3.5152785795894235
Ag 6.400222347206534 3.325839687499254 3.3363749822999202
Ag 5.942855332433822 8.060666694109797 2.423344860325487
Ag 4.807208068885974 5.47531190094718 2.4187236884519705
