33
Energy = -69.29914296 eV
Ag 11.529974536754429 7.974555673286907 5.730971229347261
Ag 10.96998886446721 7.465776944823198 8.764541066787096
Ag 10.779122487959928 10.054544701462419 7.481226738716846
Ag 10.504436641062442 5.403505184077372 5.506662335826133
Ag 9.19703242495982 9.49618113263138 9.691138989240608
Ag 9.699705161477695 4.994059769629346 8.217067620945736
Ag 9.297893678858424 2.9946079038792477 6.270780505352158
Ag 9.538783496921445 9.886370985770242 4.946423057302087
Ag 8.214216040559949 4.263005263492129 3.7813620827238843
Ag 9.023725953248762 7.818235416473773 6.871095541491623
Ag 8.200842135491932 6.924722530874747 9.476583906045114
Ag 7.915831067920127 10.388747783940868 7.329785652551579
Ag 7.7805064358978235 5.407525198952848 6.165952722343834
Ag 6.4087289176120565 9.153462378476709 9.481008730539905
Ag 6.596312466986827 2.785219388931592 5.734965237226321
Ag 8.97550313317337 7.254036202665486 4.050648505511183
Ag 5.533663680675528 6.569522028334509 10.244098613988957
Ag 6.733752985999471 4.598935264412574 8.530359384813957
Ag 4.767397706649666 2.7512929291002037 7.812325014689982
Ag 6.249838525383157 6.50521072327589 3.9439241071296434
Ag 4.974352546322908 3.7780046018070994 10.507628796186491
Ag 6.9426826857858615 8.999404393185888 5.02678021873708
Ag 5.401760889365763 3.8940519163890177 3.4498836248430886
Ag 5.138547579551969 10.039077814806145 7.076584846362523
Ag 6.166744059062016 7.311084990528152 7.326856821592071
Ag 4.852906087452542 5.0001988460765165 6.043629417072599
Ag 3.7536726034520207 8.059153304121688 8.603439240161222
Ag 3.679870756967608 5.23229353170161 8.599613602326244
Ag 4.31885990620853 8.140498855496872 5.157684893018249
Ag 3.419772701914921 5.864978719369454 3.8157746760292213
Ag 2.347911769025878 9.456793314919823 6.682452267400993
Ag 2.4324969767205884 6.541216951323581 6.569344159227485
Ag 1.6431340276617468 8.007492097361538 4.3801505175909226
