39
Energy = -83.42965733 eV
Ag 8.540065270782419 3.591280504936433 5.079167128796551
Ag 6.236813797408861 8.104474752094836 3.9855450524502234
Ag 1.6473953777146406 7.255049305294444 5.452950731858628
Ag 8.691632851067192 11.157521883054846 7.040171022322966
Ag 8.671875321137868 6.053367137616439 9.598500367108343
Ag 3.8403782607007457 3.7247493489051875 5.2023806080730655
Ag 1.6587707779852296 4.7150768046066185 6.7111443621105416
Ag 4.227551016105589 11.301124440499551 7.204795708586451
Ag 6.14393649403815 3.050222610259903 3.7127653531744733
Ag 6.353895255412442 10.451428663437643 5.631673049849274
Ag 4.053793793076135 8.824284089259574 8.504843062782063
Ag 8.450930461018402 3.960771528470662 2.3014720489471188
Ag 6.3602863106938985 7.9073911294348616 6.898688489141087
Ag 3.955453964387667 3.7440610232924096 8.062965053927142
Ag 3.87802337003219 6.502576828047177 3.8806088820759856
Ag 6.414105928335061 7.853731069122237 9.868771789415248
Ag 10.848929993405182 4.489967922785516 6.477791664595833
Ag 8.647577193268308 8.847885752015756 5.332510243975646
Ag 10.921332531063479 6.927020706537744 8.090864197808921
Ag 6.299324830131743 5.3516562242949 8.194965174004565
Ag 3.9604843855207537 6.345889304523754 6.83918057586563
Ag 8.613277686701965 6.188594663181151 6.680985322555454
Ag 6.452729964121639 10.347651472506397 8.544569133933297
Ag 6.207478346192627 2.804368752913411 6.529128365482347
Ag 3.9648976821315247 8.921730916912507 5.562090865255588
Ag 1.7554586066051896 7.184579079469094 8.253247779998492
Ag 8.718637664580003 8.68848793064653 8.417370693873451
Ag 6.217860244356911 5.46064768961509 5.302548158899242
Ag 8.576900765696285 3.6158916529281586 7.927974758266349
Ag 10.942219743101228 9.445532595414045 6.851012713192948
Ag 6.167886199363609 5.661007724320874 2.4610394638210202
Ag 8.545886500596435 6.471706750696656 3.7102423261869975
Ag 4.041511457982551 6.2543776442196926 9.72007068642575
Ag 3.8528366082254837 4.025462916318034 2.4203136010321322
Ag 1.574197595996919 4.838614486902881 3.895696674135448
Ag 10.747067846809205 4.767303422495174 3.6811184726309367
Ag 10.900325804872631 7.092649113761997 5.21547720988805
Ag 6.352434267593663 5.299383894470761 10.994401803071636
Ag 6.2632498549656095 2.8070439349457708 9.340092569569384
