32
Energy = -66.75274848 eV
Ag 2.239466635816605 5.806428105602166 8.364569695910307
Ag 4.448376299826649 2.510861278106734 4.760207949556945
Ag 2.7007815809167597 4.669695038455926 4.42619826553293
Ag 2.9258779221473015 3.4578799366244115 7.081152003268516
Ag 2.506939158499194 8.579084359275738 8.22903910214225
Ag 2.6893665806430356 6.957676962338858 5.856770010465756
Ag 3.9392744728412623 7.145662258723653 10.186871388247667
Ag 7.191495552259463 3.1127109535970767 5.2090510968672685
Ag 5.02363920029214 4.99827049030886 6.1022293764857745
Ag 5.2885979200289475 4.8821599672730365 3.3425796190994896
Ag 5.58851745162822 2.566637841610504 7.447807651496328
Ag 6.645914310543945 6.844508789503401 9.66470601772274
Ag 3.78243789805537 9.513495072870139 5.908018662090741
Ag 5.021560095469173 7.4173317270699055 7.48119803706806
Ag 4.804258693074037 4.778100114281023 8.960159281064044
Ag 5.255717256720891 9.513429302650119 9.241317960835008
Ag 7.408264888726759 4.722384863308422 7.672394113721529
Ag 8.00356829962828 7.4660716395874225 7.149795188483692
Ag 6.471076030648205 9.705244426507106 6.462789046201375
Ag 5.36879269013779 7.54934798171394 4.667695752422788
Ag 7.652976989183861 5.823512306641142 4.939235342925113
Ag 6.932642206200485 6.937414925354786 2.4089908129622817
Ag 9.81968080459547 3.983511056480978 4.607717175473598
Ag 9.24330449595152 6.071476249208917 9.381510633704556
Ag 7.9052559749962334 4.1707826269787684 2.592680599516015
Ag 8.031196652057494 9.472635646064393 9.018540589741473
Ag 10.111101645672466 5.518851612515166 6.80644023222434
Ag 9.253005963875372 10.003951212457034 6.478027785902783
Ag 8.060476400552979 8.623912545567034 4.350360768635408
Ag 9.630173490714391 6.455662282493094 3.075222921722013
Ag 10.637907534375504 8.10085883341008 8.037822520605854
Ag 10.60230844339364 7.804529554036765 5.2734119305377
