38
Energy = -81.00995727 eV
Ag 5.96753997358934 5.277638467379801 3.23285080985736
Ag 3.270966285875719 6.192396386452629 3.2762351656084547
Ag 3.920425584506115 3.4460493389388343 3.757857402210863
Ag 8.192491880307623 9.698360223252743 2.647159146238133
Ag 8.253700923793396 6.973160710086092 3.07517599563047
Ag 5.393437023586838 7.999112474751767 2.7485987578112216
Ag 9.613110348329315 8.68712204807024 4.926837746424935
Ag 1.9720767297809032 4.725532752163051 5.3185655975223085
Ag 8.51507435440893 4.300645424533012 3.8260565139123455
Ag 6.3119893978461095 3.2311213435734776 5.169073123358855
Ag 4.793811849473099 6.849332854774399 5.46830855185509
Ag 5.624580097797164 10.787008756968286 3.123363960804709
Ag 3.912950040225742 9.430633448931374 4.816541962800062
Ag 6.814956554171178 8.90214824405968 4.931678491272111
Ag 10.282739729321309 5.8673520109008805 5.466353067200739
Ag 7.79433370106347 11.490150601497588 4.876598791187275
Ag 7.566692969772701 6.217945230791592 5.729588861677595
Ag 2.016044789407251 7.502775615243718 5.5510346155368255
Ag 3.8650335200813224 3.1411951569647703 6.54281227991199
Ag 8.69452131910058 3.6944452212679324 6.594980784986887
Ag 5.626140677791475 10.643188540977082 6.772452221945511
Ag 9.823878108583422 7.7305407305838045 7.543546894626438
Ag 6.4053884245705195 7.98135558390648 7.621589149818251
Ag 10.586809014114108 5.014719012205512 8.216917591980275
Ag 8.390816768928818 10.035717255629486 7.138431722170465
Ag 3.7010111147272604 8.623079558849868 7.580591840665846
Ag 5.726020375540218 5.101045432307425 7.488034267849451
Ag 8.088673990106596 8.78929924117346 9.635098866467118
Ag 2.9027326946373813 5.891702746295159 7.687509377424521
Ag 8.837735217598711 2.93745654314139 9.239944834981703
Ag 8.03778402640072 5.941933819843243 8.805448003318372
Ag 10.150648725952813 7.009008561430756 10.271781620995489
Ag 6.360434060956976 2.488646548757433 7.925262577763037
Ag 4.853967183239596 6.710648484710148 9.637488584472568
Ag 8.998138147172385 4.731254001130573 11.317409848652579
Ag 3.9535818694777527 3.826390195811085 9.216345355137044
Ag 6.465654140656753 4.167670676353411 10.277499802532446
Ag 7.132044603558535 6.8094197681661885 11.356553304904649
