36
Energy = -76.88045668 eV
Ag 15.286044496887047 8.69673591099275 9.695351740631516
Ag 14.4596274266044 11.40594174458143 9.35274734101584
Ag 13.041503476824111 11.406615850768532 13.426751035042884
Ag 6.9062269812341075 7.587278989066081 12.217526423296368
Ag 12.942145725090286 9.48190753773129 10.948884864773687
Ag 14.465903327954692 7.587330138663179 12.217465876532058
Ag 13.003658311418182 6.921989648902898 9.829795053526954
Ag 15.29548486490071 10.444029346361951 12.01273960556127
Ag 10.685978486510383 7.582978330349991 11.313960726657225
Ag 9.18287395543101 8.557718764649417 13.604118465394665
Ag 12.189178000001204 8.557601795121313 13.60401566498344
Ag 10.685980724017561 9.890714749554157 6.595454880015847
Ag 8.429925451362744 9.48191172972132 10.948938871635017
Ag 8.368304030425293 6.922000692355968 9.829731255424697
Ag 13.046323862099097 9.263764803467863 8.011804603419842
Ag 10.686003397047703 7.5874599383240575 8.373304564136612
Ag 6.085946185348364 8.696780115943882 9.695459263006668
Ag 8.325643440423582 9.263809014356031 8.011866982660468
Ag 6.912391706131336 11.405971821928965 9.352870806419226
Ag 9.219400784546403 12.088656893231965 7.700396964096359
Ag 14.445852333820994 13.198589578469868 11.745176097379655
Ag 12.107187442293558 12.279183595727021 10.684903000765425
Ag 12.06966760753971 14.959756206690246 11.470760918725992
Ag 10.686019384592997 10.210491488336547 9.369566672884218
Ag 9.26487244851937 12.279186537208501 10.684946002147768
Ag 10.686019261194527 14.272145973314217 8.97453402526514
Ag 13.515002568402343 14.119704449688887 9.155295926537548
Ag 10.686104569967506 13.162785406995884 13.218365029792702
Ag 12.152591053305965 12.08863424157508 7.700355898910477
Ag 7.857028240847068 14.119727469080079 9.155385408277475
Ag 9.302443382802212 14.959740584525548 11.470839805481386
Ag 6.076640471776054 10.444015227972375 12.012907686027976
Ag 6.926223378363606 13.198604464904305 11.745264086669723
Ag 10.686019384592997 10.438208515863835 12.216558119913943
Ag 8.330659722263924 11.406696921505022 13.426823642440795
Ag 10.686086251577906 10.728292658189439 14.922070690549699
