31
Energy = -63.58713236 eV
Ag 6.047376082421568 2.217884959539593 11.529664282992615
Ag 5.581504164940537 4.89687566122649 11.723316807292408
Ag 7.903811750923031 3.8882758842143996 10.264773823091907
Ag 7.506621019273009 6.711836563929658 10.797829493128669
Ag 9.818070668304289 4.0261557426393395 8.153633957936211
Ag 6.640742624035008 8.490581276380645 8.703451444689012
Ag 5.034316079695515 7.649428638052488 11.739767763993937
Ag 5.323732232628741 3.5485304674996923 9.19943287910616
Ag 7.690166495014706 5.778488633053891 8.240680049730503
Ag 7.316105104996017 3.0954619854323457 7.3400620159232615
Ag 9.529147210471587 2.886166635905562 5.62544835882871
Ag 9.32904267140579 7.958986629442757 7.650734427846087
Ag 4.017509608464919 9.02045187315302 9.502646956381719
Ag 4.912253973572719 6.316762460807266 9.32927653576934
Ag 9.476505343035454 5.71358581684746 5.821360169325338
Ag 5.282737611450008 5.051446638459918 6.812764456264393
Ag 4.901827354766774 10.393107682676877 7.237733198114043
Ag 7.033244099228382 7.295169504948808 6.034267178472988
Ag 4.299172606326733 7.672958367634515 6.963339644911998
Ag 7.091645309438906 4.382185251178757 4.815298468767687
Ag 9.37532097454741 8.409434234812085 4.845814313463177
Ag 9.492730367359092 4.363955717853006 3.311127444870142
Ag 7.6549030873270105 10.055162712064291 6.6357669457120725
Ag 7.870008526782319 6.5944790516416525 3.351107577565554
Ag 5.052009332651281 6.578989188955027 4.342462468913341
Ag 6.772309605166493 9.100046346997003 3.821721972808365
Ag 10.463147653516026 10.304794211822015 6.500287381663299
Ag 4.159692756279284 9.30333422145055 4.724738197508607
Ag 5.868196099719168 11.53468793045525 4.900199594192253
Ag 7.283360461843327 13.09290752660127 3.2043103552062577
Ag 8.74188995941896 11.13696901932876 4.346082670532956
