36
Energy = -76.16539394 eV
Ag 5.96173281774496 12.456525885450196 6.346642335184954
Ag 8.746003768350526 11.484391367318269 6.186055676005783
Ag 9.112979172831526 8.750194046923001 5.30282838394572
Ag 6.5921810559155665 9.866332858000373 5.635673761179548
Ag 9.537477627539825 9.613461543955856 8.03422402733818
Ag 6.873375978597468 6.864161575468658 5.783451902693594
Ag 7.022959254882903 11.017581438003594 8.416926185798252
Ag 9.314302303336275 6.816067775870386 7.4597718234865535
Ag 7.015924545472027 8.214869188380638 8.24424015703895
Ag 6.767235439444144 8.401926270904449 3.356779665463032
Ag 10.985204577753251 6.651032789033341 5.278479891214033
Ag 11.63209655129491 6.425544244830903 9.030513940224065
Ag 4.102212911816945 11.023781442907804 4.886085386903371
Ag 8.985854793253777 6.701090850022908 3.3167944215958043
Ag 9.626465759484743 7.866798103641778 10.187753673117758
Ag 7.575006996414406 9.610422857856033 10.709261676655007
Ag 7.035819078153198 6.641794656680442 1.2658329024411301
Ag 10.863739576479432 4.4835932299526515 7.2340558538969635
Ag 4.497890042545366 9.985935679026596 7.488051154862926
Ag 6.65128907699653 5.0639154018462635 3.5468110514580733
Ag 9.234961960040193 5.059081171820557 9.743647638356057
Ag 4.3054071600030035 8.297642703146934 5.028105793881933
Ag 8.845002589987676 4.688312023593698 5.300732167218616
Ag 4.5888566764348875 6.730540524717777 2.6726106981731426
Ag 7.074156000991675 6.824337436421729 10.795003267340618
Ag 8.486346615217325 3.1671146248507207 7.676930056190876
Ag 6.750602875946052 5.374282406279343 8.219108149425974
Ag 4.965054126826143 8.727336024121735 9.989325552384845
Ag 6.294056651735085 3.6649926069370924 5.925288489906633
Ag 6.799495214105596 4.020262523225331 10.693977211691656
Ag 4.282777105233421 7.191341367932405 7.6052333141446455
Ag 4.3241546706557195 5.5373737538978025 5.232546835649315
Ag 5.939282381209297 2.501206155222956 8.466888066408067
Ag 4.499949626831172 5.960402311429636 10.149424914098729
Ag 4.049846464463599 4.409944518626261 7.7775812953604
Ag 4.105361837438589 3.2685778223724755 10.44243844516186
