35
Energy = -73.90820412 eV
Ag 10.73618124356299 6.724708240523036 9.379141558798457
Ag 9.649387933087178 7.699112921108337 7.019800279648288
Ag 9.808285186889378 4.828095531571097 7.388038301423345
Ag 12.095218497633644 6.396664482950552 6.95969774286546
Ag 8.423821068277418 8.3108397203765 4.533517607132185
Ag 8.349885053718825 2.97524125588563 5.491906720116015
Ag 10.3717419347659 6.208019828378085 4.773868954371085
Ag 8.474798885025196 8.497892944233069 9.500936624595404
Ag 8.650412783999123 4.75235094210926 3.1055326778673096
Ag 7.13418003632245 9.278835048392803 2.2805790333567693
Ag 8.323566104760724 5.518362127303129 9.883891768466398
Ag 7.654899737392539 9.565900571315204 6.968369138310931
Ag 6.585542053234115 6.630471366551306 2.981947439159887
Ag 7.3379892127946995 3.743050277932563 7.981797283206716
Ag 6.90544988111961 6.793903875310315 7.843251315778525
Ag 7.715172312389493 5.660332048241567 5.527434191387896
Ag 6.106321492506275 3.933984569205484 3.9547278028713753
Ag 6.664771785336033 10.747734136159911 9.193369819425177
Ag 5.700546123718862 2.1009654659550905 6.1572708750043015
Ag 6.323799412944653 10.32828209315767 4.698944744915749
Ag 5.610281186795948 7.581241310782662 5.531375267717971
Ag 5.483021047773571 5.328439161757297 9.711869543099725
Ag 5.570890738120281 8.276276408839799 9.717087278017864
Ag 5.003353234932292 2.6664610666851254 8.889451908998309
Ag 5.016319681583067 4.7812058007213585 6.621230530340384
Ag 4.5185918808712 8.622804985818837 3.1118553274445846
Ag 4.822325706013187 9.735880401115422 7.223737761028126
Ag 3.9718253682667553 5.907024885215128 3.871092573363348
Ag 3.5002745052789557 3.2343757735564544 4.481341060572158
Ag 3.8500721897548584 7.084196114791105 7.892435394910116
Ag 3.6145597300724885 10.62651873591587 4.796909897753409
Ag 2.967547274564653 2.520623229405677 7.032588810338701
Ag 2.927844780501617 4.612406474517919 8.830154945675364
Ag 2.8358636139032347 8.028494221080502 5.4441795083684745
Ag 2.317256203934466 5.316598652859202 6.136031070531708
