33
Energy = -67.53743238 eV
Ag 2.162895206642186 5.688948945762029 9.880651613766073
Ag 8.971840007665788 7.502749230256091 9.81864873449355
Ag 7.69722954607624 7.22853250453289 2.30822127574139
Ag 7.042656869106869 5.6104566064844095 10.598582340049369
Ag 6.6322279536755735 2.6685167403621652 5.550592573789384
Ag 4.5535512897319785 6.78110518828823 11.045448126915433
Ag 6.274096609360203 8.353881751596191 9.414648069217296
Ag 4.753015069813249 4.663253455592775 9.242039215280444
Ag 9.3122363380815 4.771720804757357 9.018081758621568
Ag 9.76619232641756 8.710741923346156 3.163303073019069
Ag 5.3268274415783905 5.154384944973211 6.069148938304918
Ag 11.500182605026248 6.356036818976531 9.578263257163783
Ag 7.126938784348699 6.268552311510723 7.881120317404588
Ag 5.572076103887539 5.708290581711878 1.5619197663788114
Ag 7.032107877396547 3.408587604203385 8.236931903816142
Ag 1.2186993280357588 7.084258103361904 7.580978902549433
Ag 11.903899915393758 10.373471486488182 3.80722710717255
Ag 5.705397194207133 8.276224406255356 6.462163867120116
Ag 2.718461614848228 4.82879395027014 7.1970213903112015
Ag 8.602525251546504 4.556762824392427 6.160946606430224
Ag 2.4135278247630714 2.9690015719083847 9.199625842238277
Ag 7.159675809448709 9.532446531595795 4.3158228492821005
Ag 8.236045145727234 8.948753853210697 7.40959251253018
Ag 4.487617519377776 2.640689654462631 7.304935096068846
Ag 3.922176101002159 7.29114784934438 8.34042077537474
Ag 7.01310477287358 4.8610534060562625 3.799492203897644
Ag 8.31009837669065 7.148973271045317 5.1282262471940845
Ag 6.931060127239171 12.253035529125281 4.089319778484272
Ag 10.47755107948764 9.104574538948986 5.8152541331912895
Ag 3.246579780439558 7.0669019983895565 5.602926280038705
Ag 10.138720971153884 6.762204601727311 7.225603309664183
Ag 5.446719543187012 7.201447699474938 3.933897541299332
Ag 9.382076823546933 11.262510519365623 4.2969558009669555
