33
Energy = -69.71671609 eV
Ag 4.770050271197785 5.781116322456216 3.288483959082792
Ag 2.0881474920816228 6.372793364145852 2.900941688678721
Ag 4.001541703491888 8.31982495577993 2.290817942988849
Ag 7.475580714638414 5.210409218882515 3.735910848577668
Ag 6.7261708130703655 7.724111058226728 2.55001122862936
Ag 10.175171674905977 4.617135730102112 4.265824305526562
Ag 9.415774907754395 7.067616773656846 2.9743862706742736
Ag 5.57718061215384 4.379489563664284 5.659765461428824
Ag 2.858276894838125 5.051138532484562 5.242285167320611
Ag 8.297221740880595 3.7878835768809065 6.186194943617062
Ag 3.403240978756819 7.843559439737961 4.962823636341905
Ag 6.2082037043440055 7.244743559225122 5.371197367246546
Ag 5.4471380756392405 9.785810471302465 4.233946337684964
Ag 9.083640779471919 6.648187625278255 5.7929460801645565
Ag 8.224733632690452 9.131838910715677 4.4917322414598795
Ag 3.653196234863259 3.6811524708364405 7.60328984982697
Ag 10.779001856976338 4.71692942310526 7.069563079735186
Ag 8.87822758317551 4.020792334841371 9.000503437778919
Ag 7.883022527928545 8.625875011993426 7.32896652924713
Ag 7.053317909371687 11.051240840570792 6.187462405964676
Ag 6.371737346350042 3.0216346814092616 8.0628628910154
Ag 7.0144021931947895 5.86608114424087 7.751633228018659
Ag 4.997409786859415 5.1131320608545785 9.680049785493667
Ag 4.8743196763861505 9.24228538851172 6.947735048583954
Ag 4.163626995647779 6.488233616396133 7.3419880794651045
Ag 4.432849216347447 2.3262171016913555 9.921894286233941
Ag 8.352667078198762 8.811256724629907 10.089609750330933
Ag 9.100922244762453 10.93764722221638 8.246345322488414
Ag 9.623356662780067 6.735012415424929 8.675523906104326
Ag 7.569490249366048 6.132079038675796 10.577003580401717
Ag 6.854407495875093 3.396073317428844 10.832603056370957
Ag 6.4211387088535155 10.493246762904496 8.887764574694147
Ag 5.687828116716413 7.849135468640126 9.352907272310725
