34
Energy = -71.53015908 eV
Ag 10.383161399267006 6.932261414411573 7.932740848381212
Ag 9.863289461826408 8.408389794629798 5.691863653002928
Ag 9.612992742527013 4.265666189465651 8.059060906513926
Ag 8.414161536798263 6.261140840174011 9.726780193676431
Ag 9.456161291044042 9.904290060214059 3.433674506037481
Ag 8.86357112353473 1.6403949957781545 8.1514812162971
Ag 8.969519358886972 5.750369039584267 5.667716404478153
Ag 9.088798551143471 7.117076992175078 3.2326359678360506
Ag 8.684083703146737 2.928309737224283 5.717934646550445
Ag 7.321788292177856 3.5447533329487344 9.65054291477141
Ag 8.554205065792873 4.321839915618784 3.269560025371931
Ag 8.243189506823358 8.668957492985557 8.121893588126719
Ag 7.916569293396377 10.35518123023355 5.83531464840884
Ag 7.006717722094657 8.385359642563376 10.744765141583459
Ag 6.889531276803612 5.33138859870606 7.517079766428592
Ag 6.62856643825733 7.665002742282047 5.879468543538979
Ag 6.312193582868415 2.4328836166134473 7.224746350587936
Ag 6.863735892648905 8.822072348923195 3.126235100384312
Ag 6.435734171459083 6.097153207574008 2.9687261750575344
Ag 6.308542374454181 4.151814175448352 4.96382361191637
Ag 5.533370451532362 7.641020609942833 8.546054148471134
Ag 3.8420644938881283 3.23716279811799 6.107151187869457
Ag 4.518425805223112 4.192051769408304 8.638265354158234
Ag 5.816502483559663 5.684229022092528 10.61483063177326
Ag 7.21842621366325 11.547765047212735 3.443864550239167
Ag 5.813896896430236 10.25459598482102 7.6603240875233025
Ag 3.466042942886788 9.56521662005246 9.157973596300096
Ag 3.933480489377018 4.926900678327229 3.804565862891742
Ag 5.201645239084122 10.223241909323054 4.926185181776867
Ag 4.2706765974292775 7.87697064933147 11.17167470058755
Ag 4.408832402275271 7.688830901534054 4.084973735520664
Ag 3.592820623523623 8.64787189117436 6.587224489393988
Ag 4.230758105060548 5.939151799787941 6.4002964042858315
Ag 3.0429331080256037 6.627398110488464 8.892413730688808
