34
Energy = -71.86680996 eV
Ag 7.482701912568539 4.633441611864149 3.534367520687967
Ag 7.396092469152429 6.211878558681397 10.280804912627174
Ag 8.660338844923778 10.221729573256354 6.471982246657868
Ag 9.141686086653237 7.177645736207142 3.6659283080810674
Ag 3.777964448775434 4.279057971976963 6.0246413515860455
Ag 10.649584844920742 9.416053454952747 4.680316747868585
Ag 6.817256680743714 3.5189097410309245 9.052029300556342
Ag 9.92239734249795 7.429254509824218 6.4127193559748115
Ag 11.364204722973444 5.386518206189796 7.606050821513483
Ag 6.0132772487863315 7.186712416166666 12.476178391781415
Ag 7.239552047884125 6.4161475560020715 5.615294467419934
Ag 6.286399065188374 10.624407470396394 8.076098458017707
Ag 4.00721779452201 3.885321448435788 9.015252792117765
Ag 5.688397702149512 5.738221303384203 7.81331402559414
Ag 4.209952035154785 6.999770948210248 5.520514051315654
Ag 6.1085730286711835 8.98736349132856 5.641490779952062
Ag 8.008141247527972 9.754409807785768 3.7398486537448505
Ag 11.009573673097211 9.563757349725424 7.748631901943588
Ag 5.203882835744092 2.161247937405598 7.151975657362709
Ag 4.499702634225942 8.442203444962946 8.053899809884967
Ag 6.269729981559331 8.894502350047272 10.34788291080324
Ag 8.65254460211527 5.266135787433022 7.959576705358057
Ag 4.514906860975754 6.5217307287836315 10.247644241804029
Ag 9.685907085652511 4.865362289364674 5.334241252913218
Ag 4.005484206555829 10.615804664331572 6.357141781108021
Ag 7.46103993986906 7.956020429348621 7.97481272422895
Ag 4.74453194470019 5.190194073852834 3.5119910404054324
Ag 7.4772729081185245 3.4154620704616354 6.219737875368628
Ag 9.914598288643734 7.391643623021318 9.30385666596029
Ag 6.293562611253331 7.482877658741692 3.232616997816689
Ag 8.730985992245264 9.974114468252212 9.392564242494243
Ag 2.890214930928364 6.192321067462121 7.895688976255608
Ag 5.527122550806576 2.7017434717578115 4.404563286551595
Ag 6.506518408777072 11.65935175771584 5.397658722605627
