35
Energy = -74.43196665 eV
Ag 9.237356060053376 7.128085253452944 3.4077333229364486
Ag 7.471091750189118 7.387750249174257 1.280985216647299
Ag 7.5576514224153435 4.9209730340757964 2.640869844028473
Ag 5.731120216922937 5.335128272844676 0.527185847776199
Ag 9.226586733124917 4.719583315890266 4.917688985868179
Ag 6.688401496285375 3.5799789130000734 5.0049047090418854
Ag 10.903915629865734 6.832251591265406 5.675212616049169
Ag 8.444507685275573 3.3920184097340433 7.297371797877906
Ag 6.951214518933734 8.949903028953551 3.5606802202038854
Ag 5.136033178725108 6.885343825597828 2.7795609140165887
Ag 4.865904147207056 4.045464499265893 2.8482085062430085
Ag 6.92412387741523 6.498947669838704 5.047611474747739
Ag 5.717337412963418 2.298840793342501 7.43365654700365
Ag 8.826300884451872 6.194150005514568 7.3721806838496144
Ag 7.48842472635985 2.1692209964878577 9.595516563916608
Ag 10.438304826964316 8.379221328949075 8.055569072843797
Ag 4.059874388539547 2.724805567553435 5.1838676198988445
Ag 6.165464446933676 5.1776817514488735 7.446111902013196
Ag 8.783614321473255 8.725775900430621 5.762692361845563
Ag 4.156397170737399 5.550509067000519 5.107303881881342
Ag 7.96538209175935 4.902332403691586 9.735001072144557
Ag 5.246263448440697 3.8115443406393745 9.825057779898632
Ag 4.656630169115856 8.371669492770549 5.127549336031835
Ag 8.296444763282521 7.733912085042092 9.725943699770434
Ag 3.535044823778991 4.1678127252268915 7.516918345927594
Ag 6.4555828934815045 7.998420298662049 7.443433517174926
Ag 6.488063261182989 10.430728956649618 5.909664822455343
Ag 5.719323182589931 6.684435286657033 9.968476061709417
Ag 3.1236852861753848 5.655925063920477 9.838037930770351
Ag 3.646297319515262 7.0303631315757205 7.437760813662178
Ag 8.269420659073212 10.163816710371899 8.208316117047675
Ag 4.253778493963846 9.821510998810188 7.522062311960809
Ag 6.053888931305289 9.536570096609863 9.872404065464924
Ag 3.488799487551456 8.421519141050075 9.860659800132757
Ag 6.034297799543303 11.84368992305635 8.303856333533066
