33
Energy = -69.26621588 eV
Ag 8.652491750930057 4.707242193194962 2.4324492378993763
Ag 7.167726947303547 3.851591187757455 4.645565375508792
Ag 5.966587100152735 5.496152949169217 2.580576162083704
Ag 9.395694149019638 5.7192095032363355 4.954790612388011
Ag 5.665855489372994 3.0856851546904416 6.857492059560097
Ag 6.838151402341939 1.6902854904782043 8.893336225991556
Ag 4.472185344237524 4.765393778019883 4.868302903499848
Ag 7.591765355565855 6.343290992392107 0.4494867830183279
Ag 8.36772790723754 7.482903217387597 2.8882261400533276
Ag 7.930589340298775 4.8122183286516185 7.26259103188516
Ag 6.324789406134462 4.277856769562103 9.60573384473842
Ag 6.747606306675414 6.63893432969535 5.205903877177014
Ag 4.164025985342311 2.495400114316913 9.183533109461193
Ag 3.0032705085585105 4.05675248351719 7.1900095443020895
Ag 5.915536515074974 8.187637054165647 1.6774323708577739
Ag 10.029270134237544 6.80881437992181 7.446721378826091
Ag 4.335974589086746 7.423084802913954 3.8558827446814106
Ag 5.165870957455673 5.927993389323865 7.476843414269261
Ag 3.598624496491606 5.1875564183258405 9.737048551682063
Ag 2.81786589799814 6.703815806887729 6.1109474987746175
Ag 8.442364750530267 6.072327977486475 9.827198718426752
Ag 6.595535411203831 9.341619899093486 4.13183215123903
Ag 9.048981812211906 8.555386329932933 5.391716275203448
Ag 7.37439928075568 7.7151160199489555 7.730180454469752
Ag 10.55715151621298 7.886283983381549 9.997670850611275
Ag 5.762438166243354 7.03207142162462 10.104051331230446
Ag 4.94252908041429 8.660618277508458 6.37286796425531
Ag 3.4700508833933266 7.8609748147861955 8.704638008000016
Ag 7.973897990711859 8.857504780393752 10.339962095732426
Ag 7.245215142702406 10.397906691848009 6.623013098660849
Ag 9.609091439323493 9.58857627277379 7.9732798183695275
Ag 5.645938544403457 9.64808788014133 8.978714097326016
Ag 7.853530333068417 11.398941141082153 9.15884238123666
