38
Energy = -81.28569266 eV
Ag 4.994597686875553 8.206331896491564 12.694374777247637
Ag 6.524778929785495 10.065925888999256 11.335280476630585
Ag 6.824283559278174 7.257798802293767 10.803192702638528
Ag 9.810806453600769 3.9249943631193913 8.934159460374044
Ag 8.541419252265285 9.24144758192961 9.500381088913297
Ag 9.423376935368184 6.609068171129157 9.56026590658296
Ag 10.40695828971977 8.302447584448949 7.520326945426392
Ag 4.5667227814284495 5.8506468920152574 9.539982720672723
Ag 11.172648825164748 5.596515097109089 7.115959113088042
Ag 4.454474355387423 8.695343914160865 10.017082374185247
Ag 6.167754567614306 10.509315754710485 8.621903523471508
Ag 7.186103996524148 4.8464554679335805 9.416579655476818
Ag 6.407758220489134 7.586093630075104 8.058526668465685
Ag 8.021175483221093 9.498185195715536 6.770515618893697
Ag 11.578222778412814 7.5576950987757066 5.106257348528536
Ag 9.125165740807343 3.2396903829788317 6.294379826513163
Ag 8.468340609992955 5.907415547021394 7.015156512057723
Ag 5.0280254722022315 3.1316744070906 8.624192287501598
Ag 10.155908792811443 10.009372915854064 5.170699931521972
Ag 7.680882401620714 2.2043303125435947 8.51034868229073
Ag 5.322571214598264 9.515648901047612 6.136681792349868
Ag 3.4093969731271403 7.644489045720052 7.679991480747813
Ag 3.4335842444466858 10.452684368376664 7.993132792103767
Ag 9.923581765332107 5.38600794852537 4.5659520753047635
Ag 7.37094880288478 9.93289848918755 4.125321077829727
Ag 5.77380412271382 5.138893350388885 6.851630895572326
Ag 6.793805840467051 7.246551642997674 5.1462239679938495
Ag 9.364625643512028 7.982043174439901 3.4907637433340883
Ag 6.348848291319642 2.2781479730593692 6.146985065448841
Ag 7.287296248866811 4.388883595144237 4.567001860854952
Ag 4.720512301097437 8.688172012776528 3.5130460802985843
Ag 2.685062726161517 9.212792154408469 5.458176972382248
Ag 3.819642068380222 6.59760060155377 5.155040052481454
Ag 3.0920512065110937 4.825675109978094 7.276978264439922
Ag 6.957531446216593 8.084082079773145 2.118618797935773
Ag 8.292516587788493 5.655447945190645 2.344808859700243
Ag 4.465182071246784 3.851802670987797 4.753636637689179
Ag 5.4739244072347635 5.878043171686178 2.969609388134019
