35
Energy = -72.76537783 eV
Ag 7.923401514290148 3.0729587389729014 9.698154144469086
Ag 6.651236253886758 5.495689065553938 10.22617020801126
Ag 8.82616361087037 10.256815331121203 8.385873131554819
Ag 3.8894421348845283 5.1805017353542935 10.580546756456954
Ag 9.003813460902062 5.453434145484124 8.713800816343184
Ag 7.759954794367042 7.87805473096008 9.374937715747373
Ag 4.963235619138023 7.63780920810897 9.735768969719908
Ag 5.261468650158458 3.366319795811339 8.967554638930318
Ag 9.835493037838042 2.9623381290566755 7.644619716725238
Ag 9.76139688903697 7.789178809441561 7.425224746893223
Ag 2.249752535372201 7.031908400723178 9.259401760818168
Ag 7.1149167373247675 2.575141391757326 7.067192435950811
Ag 10.41178864842416 5.334722497944906 6.286078897191266
Ag 4.5552813552003295 11.133238055383956 6.446474453855895
Ag 3.1177692424407657 4.761966533305452 7.899306042320773
Ag 6.0272343634999 9.929235678277898 8.561330106235788
Ag 3.4455020633492555 9.114785077001965 7.910084478469398
Ag 4.370306308380059 2.677883100373144 6.43504973032052
Ag 8.879323901804792 3.302345573057818 5.050147833661376
Ag 10.378921094184161 5.034677131688056 3.4680336013179693
Ag 2.3055343723076875 6.984822692340655 6.4575099606355
Ag 2.640464865628839 9.481359073249216 5.216535589250529
Ag 7.200999085185232 10.505491298748499 6.081587571957279
Ag 3.587862491874312 2.3058684149463198 3.7692367053981775
Ag 10.157270614225366 7.524106186227925 4.620638152425339
Ag 6.2613494372954035 2.759205410775267 4.387685355852088
Ag 2.9063172917210185 4.666729287413343 5.112539323457821
Ag 8.007704786168748 9.146008505016368 3.7929874578125777
Ag 7.615102072936908 4.819683440673185 3.085190472639044
Ag 3.683323574087371 7.168894939158216 4.043241406436908
Ag 4.830986117632807 4.790395801928621 3.110375516178781
Ag 5.296722593461313 9.445998445753682 4.32170695707939
Ag 8.90542288573228 7.090227551989312 2.145750998337726
Ag 6.19177059451294 7.211783663844595 2.8596772731549627
Ag 9.872111387240839 9.99985812426653 5.74920921118906
