33
Energy = -66.19699622 eV
Ag 7.4970979813400085 4.0423524894753164 2.6681247471380853
Ag 6.867794675244199 6.1253727463109495 10.226909854084434
Ag 4.301740696372426 6.962187857531978 8.276356964819515
Ag 5.731431168566853 2.475276313254854 6.807549357401234
Ag 10.979016538193859 7.193706632449659 7.690047223744019
Ag 10.402009450070548 6.9266009326081575 4.858142696970986
Ag 3.903586476224036 4.731707050630247 6.757585207295919
Ag 5.477881126721976 4.139447764071703 4.528623066711569
Ag 10.060943835297774 9.337546849457103 6.127189039961886
Ag 9.942320509535575 4.701334147098826 6.501713065857129
Ag 7.597263075009231 8.503811097733514 4.556996194864255
Ag 5.542516408902048 6.913380693655758 5.761201716942968
Ag 3.835430777480564 9.720124982515523 9.325555625957598
Ag 7.877205969970096 5.561458885866758 4.911521872741612
Ag 4.040795734420707 11.917418048328338 7.5758215280634715
Ag 10.074323427194194 9.182406871645114 3.3231776106386253
Ag 9.248093561250204 5.316219909133881 9.04864907566142
Ag 6.1456178544542395 6.566609251779123 3.048505314616487
Ag 2.481488499631729 11.985507647993789 9.813726973254722
Ag 5.845186697581503 11.708164947016137 5.489568195295922
Ag 4.8104810536392355 9.401412144360497 6.683477935409778
Ag 6.824212510944056 0.768116048229639 8.579540440967023
Ag 8.23165906619486 7.337781184956086 7.123856722392819
Ag 4.583631936945097 7.634623120451061 10.974113108501129
Ag 8.477557147542008 11.178304996236605 4.602754315176824
Ag 10.10044843370138 4.410724246384616 3.6779857891425167
Ag 6.383599500153327 8.63361190221627 9.028199733199362
Ag 6.618462608428561 5.077771854050702 7.582027767515331
Ag 9.02617923226751 8.006684562812584 9.686130644430406
Ag 7.523576089084305 10.10615647377531 6.9773515772690216
Ag 4.692879058216633 4.948298323018355 11.386721382154558
Ag 3.435893872588363 2.4237092752819054 5.2956318716752095
Ag 8.310686318690706 2.9331820415261776 7.976254672002224
