39
Energy = -82.30867831 eV
Ag 7.779205814131581 11.51727352784111 8.569315810061951
Ag 9.904775259816946 9.811059059613646 7.704177128595868
Ag 7.2090535878463875 9.195954802122056 7.26951160198931
Ag 2.9237195850982 10.366516324581386 9.329831309999127
Ag 5.671501515358035 9.887350655233412 9.574469022715384
Ag 4.509125787002005 9.940496579785952 7.013450711440197
Ag 8.42162876377943 9.222264976265297 10.03267487378617
Ag 9.130782085740684 8.150064227858394 5.505435175188684
Ag 6.338092165746255 7.805580309349153 5.005649846598373
Ag 10.97211546211428 8.073962153218377 9.748887609113947
Ag 2.2325339794649217 8.126477091779991 7.756548543552966
Ag 7.651616044078332 6.415484356151065 7.235192341338059
Ag 3.7251235637640017 7.815037275832743 10.122230715610995
Ag 3.416350614739884 8.098445682617378 5.2103949853435125
Ag 6.499103451087248 7.2356216173544325 9.939236141738862
Ag 11.475765542347304 7.583843994909922 7.107676181479633
Ag 8.97835800315174 6.598998929625803 10.972138623501193
Ag 4.693806015893245 8.235370014095869 2.7534663208403196
Ag 11.554694571879047 7.488239556607655 4.307453532948215
Ag 4.659816039456356 5.159294037422918 9.643703964506258
Ag 6.269653052401872 8.203184700793306 0.5125261626835151
Ag 1.9987721017876652 5.727721678151365 9.25505518065159
Ag 4.960163643509349 7.207476358036777 7.515151927353441
Ag 10.059973077882619 5.619284043046399 8.612782273453996
Ag 10.24871231437869 5.473850515840132 5.785773373593456
Ag 7.271317762306684 5.00384512126417 4.771619006186658
Ag 9.278421902777358 6.292977829878644 3.2547458092383392
Ag 4.493274272142401 5.747739826453895 4.335135452228889
Ag 6.5487466650077675 6.263611161745892 2.3583656969964886
Ag 7.46489223522963 4.661683318457714 9.511649046645777
Ag 2.7917826021083614 5.592425433487197 6.553961329104455
Ag 3.13547278876987 3.338551310610204 8.138720636833604
Ag 8.504536883324002 3.7069097851079555 7.071189049881894
Ag 5.697375048882013 4.275950717534406 7.203344560746679
Ag 9.38168983406281 3.1555942909053116 4.437296540153714
Ag 5.52489990257833 3.4980750408583394 3.068487656964401
Ag 8.099109172548037 3.9874358411562447 2.131543512940365
Ag 3.879846446137292 3.233330549108253 5.3860737300013435
Ag 6.690402050936783 2.329226914565304 5.341344223260607
