35
Energy = -74.95366765 eV
Ag 8.493473409153841 12.508054823517398 12.871903190490677
Ag 8.324007813128775 10.58491044390978 10.585120474423363
Ag 10.585498539376113 9.180277751807102 9.614351552240684
Ag 8.492752069980247 7.640152148880266 11.105869959940339
Ag 6.053472066906382 11.244743387105421 9.05468065480851
Ag 6.053668600601849 11.581424791907423 11.920715566067889
Ag 11.842815222547552 7.400764245701577 7.729296707907538
Ag 9.326975549044557 6.792749923239436 8.60975708868317
Ag 6.05391945611486 8.931099608655328 10.780555288957576
Ag 11.125124496931008 6.676560606600221 10.864727463701495
Ag 7.673562166677767 9.483403596966435 13.093417991253546
Ag 12.676263176322804 8.316031665328614 12.528291934021139
Ag 9.327052002005262 10.772916681697028 14.857927913060355
Ag 13.496787673550218 7.947064834657842 9.84483154649089
Ag 11.842711496850988 9.703576055679394 14.771153945376293
Ag 11.124925196346576 12.782233480904376 13.828223350425102
Ag 10.045110197444496 7.887845061465305 13.426279064436986
Ag 15.11632284571645 9.38486860639898 11.740250225563177
Ag 12.846407157611319 10.585135391893122 10.584972911962632
Ag 7.672155375779658 8.964265969745805 8.375141660378132
Ag 10.044771590260256 9.4731416709104 6.829800968158673
Ag 10.584986548493875 10.445353164814682 12.287186391129678
Ag 12.676652536021834 13.402848505033688 11.579423354191912
Ag 8.492866621424335 11.604945549340254 7.776207353047062
Ag 9.327309554575294 14.1909681625664 8.287365217453322
Ag 7.672661754096896 13.308819745480314 10.28583793361422
Ag 13.497674083862668 12.54500877357333 8.66911761002696
Ag 13.496869741649412 11.263634595806572 13.240656071088083
Ag 12.677698675028564 10.036737335224869 7.644862119688613
Ag 15.116467452154788 12.18534444506156 11.04773250982853
Ag 15.116439461294407 10.18444778381156 8.967637561610614
Ag 11.125606521174145 12.295392081197233 7.061696172831632
Ag 11.843224867140856 14.649028913845413 9.256264972618597
Ag 10.044858306698133 14.39462094977648 11.499268722765061
Ag 10.584986548493875 12.128102473036876 9.85594977729915
