37
Energy = -78.53880323 eV
Ag 10.828334775120075 3.3407354391548543 7.3451120471510984
Ag 12.54001058564749 5.458723171999547 7.640329337823117
Ag 8.548854008122156 3.6772217250330637 5.835264786636034
Ag 10.39523418152745 5.831686205704176 5.771282015546789
Ag 6.525633808538413 3.945293346779985 3.969118986587212
Ag 9.133243794756478 4.979504476964339 3.422164621208289
Ag 7.064853829242091 5.306456896720647 1.5236387507643634
Ag 8.239944627370871 3.058681681688057 8.511211790103667
Ag 9.89670983917447 5.5944679035165485 8.65189167038993
Ag 11.22401116622234 7.93790382880431 7.328272417586526
Ag 7.039500290978398 5.463947513921153 7.9476244386385035
Ag 8.548472177086332 7.913023399740543 7.879727448435779
Ag 9.238550983759767 8.638600763913326 5.3089548436997385
Ag 5.982639183113557 2.9556965033174962 6.682335435417294
Ag 7.5650062403696365 6.3984080981869935 5.353772060097333
Ag 8.114393913921642 7.589090098252113 2.871782622134611
Ag 4.470438142627097 4.3058386451585635 2.148401781595012
Ag 6.456393958166591 4.4328770952936445 10.458326598154187
Ag 7.97139497329759 6.790070749813018 10.351564766863698
Ag 5.403641638520229 6.745855002916666 3.256327254430851
Ag 4.402408204452165 4.493323681098044 8.548164934325246
Ag 4.938205287249017 5.503156514649772 5.902072558058527
Ag 3.9360212223312194 3.118557782615394 4.694153032114118
Ag 6.4357740720360495 9.009166462076182 4.639272649975892
Ag 5.740512275375971 7.917928244102498 7.181170391464156
Ag 5.186383185422303 6.908725929630191 9.858641146903528
Ag 2.835057337595244 5.69445382684399 3.942887864347861
Ag 2.392301123688528 4.521057154250449 6.583712643612913
Ag 5.667924874795893 11.64862359337953 8.69182071649688
Ag 7.452732613736157 10.322694983528011 6.949426129270107
Ag 6.789647200181577 9.277746999173544 9.636565444049804
Ag 3.699202595376964 8.196655970867873 4.9675484777995
Ag 3.0406668756144715 6.919816573376755 7.9608190454507834
Ag 1.217353698281605 7.029249655282735 5.824877987787299
Ag 4.659325608595017 10.43992973179164 6.386474696377122
Ag 4.030923693998758 9.390992868346629 9.036767752062026
Ag 2.1138818195680504 9.366513658968115 6.984015632771011
