39
Energy = -83.6145841 eV
Ag 4.679666514143033 2.4369180412080125 9.356393374146839
Ag 2.8138077191269875 2.682488618177939 7.192169146953232
Ag 5.902782863289462 4.856759448334534 10.137998969569626
Ag 5.587297700807982 2.6219780371347263 6.688002973366336
Ag 8.534816540054395 4.425274185408953 10.915625567633052
Ag 7.392897882309269 2.826031058021153 8.808192980310194
Ag 3.6597808522397464 4.9981492559913185 8.50895044130223
Ag 1.4871475800864526 5.093344634556069 6.6862344394963245
Ag 5.120259013075003 7.36093686058612 9.022525168592077
Ag 6.454055492505418 5.346650261523262 7.3628720550276885
Ag 9.33314578934557 4.750247145021128 8.25869669213143
Ag 10.450418162420771 6.461869419369411 10.350216965858118
Ag 4.044482772609749 4.687627106951404 5.585134780075543
Ag 7.826506025304638 6.86912680666167 9.563098379869865
Ag 6.220314343191121 3.6140921842184417 4.099457026306545
Ag 2.831892158345043 7.474489902846461 7.383631674712371
Ag 6.839791517896925 9.605835703577169 9.29825207578405
Ag 8.243118335282027 3.3392074282950652 6.110436893772753
Ag 2.3689942278023683 6.766203310046792 4.5940618740160355
Ag 7.358420765621162 6.096746325406302 4.818075496360198
Ag 4.688873176576046 5.863536111741503 3.098345948831446
Ag 4.977835840003207 7.401479106307212 5.497602678741382
Ag 8.966253297159666 4.051354271911332 3.5266821282137806
Ag 10.097882810440742 5.4748335880841825 5.602643660392868
Ag 4.743187396584819 9.625204900176467 7.428340861569485
Ag 2.8618343455620296 9.52502404090596 5.380497442737123
Ag 7.329716588430008 8.031050381419451 6.979357515201357
Ag 10.15104538088168 7.314323567772043 7.707362192540369
Ag 9.571342492491858 9.108045219520138 9.779649729971617
Ag 7.149444310022816 5.411720026708013 1.930392012026849
Ag 8.714139446464266 11.675059271044342 9.034123249885212
Ag 3.9058518210469555 8.566508904827993 2.9866219258322237
Ag 6.624525532012503 8.017982799462095 2.773069350923191
Ag 9.314311618325995 6.97774807071017 3.074314862757507
Ag 7.15445671570809 10.987719854227267 6.772517219195968
Ag 5.604744271742985 10.034747641556097 4.662963781955538
Ag 10.766858453273347 8.156727693629447 5.130081321026205
Ag 9.71570585018682 9.96856627968832 7.037444991244602
Ag 8.287449457188222 9.26944759653142 4.633017211228574
