38
Energy = -81.41199035 eV
Ag 3.972201875041535 9.59702411627554 10.395461378916554
Ag 6.294583551768252 9.819600801218332 8.682039837679714
Ag 8.542245069308418 9.75991994995156 6.937641685527309
Ag 3.714434481612635 9.631218057725793 7.588172141006071
Ag 5.857983914015731 7.523263653195561 10.400786869911988
Ag 10.625288463975325 8.745830081072038 5.179327733485565
Ag 3.4911883287219605 7.2479974634057305 11.843486686664656
Ag 8.323890417727698 7.884640372767631 9.091233078777815
Ag 5.956011872204047 9.912119868512823 5.839521952270641
Ag 10.787176492451922 8.20811657571319 7.874178085210726
Ag 8.077600596195465 9.017638401010062 4.201501070361463
Ag 5.825995082883262 7.230637396475666 7.556459109041263
Ag 7.287175687265884 5.344394317560786 9.323902791171106
Ag 3.3497424603348276 9.670700922148136 4.829176791687647
Ag 8.54939686835954 6.96649293755969 6.225835285226229
Ag 4.479215107514149 5.019273108811792 10.315542109422008
Ag 9.943982478231 5.553086659457123 8.30915540938696
Ag 3.2398535763021816 7.265932615837698 9.044998811714354
Ag 5.521789572939608 9.082172274986295 3.070290581807714
Ag 3.1119633227915355 7.261556407438163 6.219087538892471
Ag 6.659422039189257 4.750536923568279 6.388600027108409
Ag 11.509103443587486 6.225858958853178 6.013760265037414
Ag 6.015868989350084 6.9322707012305465 4.746339825309369
Ag 3.372290424571075 7.270882816520865 3.43079735807473
Ag 7.422167401797162 7.164357921117125 2.219172501931067
Ag 3.968244952085629 5.020369785489746 7.570521632386103
Ag 9.573903323011102 4.269591055194749 5.67940286596316
Ag 9.789343337837655 6.519274948253176 3.702724540957126
Ag 5.839198681901345 3.0854713381102905 8.689995838613795
Ag 8.514925602895474 3.1718075499610543 8.003107249409553
Ag 3.1310799613211264 2.815820848946868 8.97132593064208
Ag 3.7961575161038272 4.8892972389515625 4.7908128977369575
Ag 7.479910775729578 2.311128641140135 5.485657971059461
Ag 5.216517820440555 5.434222101099222 2.408465644754538
Ag 7.684557684939067 4.604728547603087 3.623259494460406
Ag 4.507319333215507 2.6046760837651646 6.292801010636941
Ag 9.167323840462707 5.232314410035321 1.3407210401750693
Ag 5.4239108877632995 2.9484009372840423 3.6881321622390293
