30
Energy = -62.23836498 eV
Ag 10.273810069858174 10.121733592014209 9.229557236012605
Ag 11.12820279777657 7.698226945284315 10.492969095596473
Ag 7.526157425892629 10.975379730929465 9.400174188855475
Ag 8.386737158345259 8.281774547629777 9.99716867922206
Ag 11.785715391559691 5.396153738307603 8.904649528585013
Ag 9.259871352320252 5.644674241672744 10.01121925036581
Ag 10.487018792011487 7.647837443540858 7.820982808921277
Ag 4.684570700296513 11.301559844836746 9.381207525194418
Ag 8.316376466323922 9.368560589718781 7.281605904025131
Ag 5.8365537305291495 8.788339523275543 8.828940220498684
Ag 10.216854011968582 5.113303756838976 6.5659465045203556
Ag 6.5397556489094555 6.240681689793104 9.690564738813373
Ag 5.984853838273088 10.967033894384116 6.94949171850522
Ag 8.987865434164208 7.413714110045644 5.545736496270284
Ag 9.980488843093092 3.2472151228439854 8.798056313549104
Ag 7.429581204362493 3.581200397084746 10.180169123619073
Ag 3.492078952645163 9.581745521176654 7.541462875489443
Ag 7.706199675650472 4.168994900354868 7.527122684924496
Ag 6.5857108424826265 8.911375269376338 5.1213897197287075
Ag 3.940631362360164 6.8731085886737535 8.240813744915789
Ag 7.857114188815062 4.926840953913501 4.90520013669783
Ag 5.0204727823903355 8.517913154258702 2.895219003309621
Ag 10.164549239834622 5.825967033513339 3.678339869921831
Ag 7.6972236548871775 7.2184787803685 3.0699634166744376
Ag 4.249577069085345 10.40838129553421 4.846275980027526
Ag 3.672902169587668 7.7537899433049 5.4594805768410835
Ag 5.0779690905861 4.261664105728135 8.493892493670803
Ag 5.406496981117796 6.085542580601581 4.117784002517469
Ag 6.360865604347448 6.536278311278854 6.820246530267979
Ag 3.8527016262479976 5.051436499438753 6.113275738181634
