31
Energy = -64.82264876 eV
Ag 5.785939448089513 7.499473767318122 1.687837103985621
Ag 4.7288961077959035 4.917211101333345 2.646852743251928
Ag 7.480609700828047 5.283758816614057 2.2653451958441964
Ag 6.653031839499766 3.8273004479725987 4.5897870744865354
Ag 3.572203670947946 7.372732038265686 3.4580425051747667
Ag 4.099697997518118 4.6828757751020875 5.3742364141720484
Ag 8.3292711220168 7.926518286057104 3.0009320251524327
Ag 3.829851586526206 7.284402851393525 6.296729418798632
Ag 6.0703248587014915 6.6374007952826055 4.397111913330035
Ag 10.525206673975228 7.734620607060694 4.984890109123546
Ag 3.3934326593099504 9.746715862321865 4.9579745997296065
Ag 8.818034118207924 5.644567177255962 4.707853755402008
Ag 5.746002080022344 3.207361432816529 7.182906155644939
Ag 3.9255694493017708 5.062187736863187 8.172420621289039
Ag 5.958703115118411 9.386295514064548 3.8557177951639177
Ag 3.1505901163412524 9.655371555854861 7.768968003709463
Ag 5.652889372157201 9.500211181746115 6.6520550923780135
Ag 7.955190890015445 8.381964250627686 5.727802592469919
Ag 6.503635882302184 6.079248089288893 7.129239095513758
Ag 8.439092655347702 3.8882878544975576 6.842188333586691
Ag 4.709293327682052 7.627723615786041 8.967151313416586
Ag 11.055084243015239 4.8010254932959375 6.2858223925632
Ag 4.815298069751425 2.938925852056858 9.793869240270544
Ag 9.417540479209613 6.665023966745689 7.440509200546863
Ag 7.520802127614143 3.5494298673841915 9.477686856787908
Ag 5.553297841110902 10.18374081838871 9.43331222441703
Ag 5.675302106565623 5.461313828563438 10.45531071261092
Ag 7.569625943108741 8.451111398890207 8.520282251179534
Ag 10.193046819121452 4.358499184035473 8.960104918397153
Ag 8.365008117537473 6.200267070838854 9.989529962573021
Ag 6.544940604862267 8.05793678728654 11.0732644625226
