32
Energy = -67.28357834 eV
Ag 2.385471007882088 4.2327091652589575 8.64236136039659
Ag 4.595894020788725 2.8223345940116498 7.436452847479169
Ag 7.051482104603251 2.122773899573725 6.324871800484685
Ag 3.0514806948818625 4.790359891859742 6.072353284858374
Ag 5.4841756209754005 4.114628592576244 4.961058501290667
Ag 7.596533153785546 2.863868517440018 3.675030652567196
Ag 9.289564110333878 2.213173287339816 8.038387374660221
Ag 7.008764313880277 3.611383122019719 8.748778554754331
Ag 3.604237329649702 5.74616384944956 3.564977577657815
Ag 4.899183878661208 5.3806034651892265 8.486106424016347
Ag 2.722099576606678 6.999552973630497 7.849503021316607
Ag 5.977518485826076 4.774757737578022 2.2985163946980407
Ag 7.1820943742594 5.655592913434323 6.765314549404918
Ag 9.202471093714072 3.850753185580517 5.769723300619185
Ag 4.906000188814683 7.054089102491964 5.9951936538519295
Ag 7.962461302063786 5.67325522615079 4.032603443599334
Ag 3.309679828038404 8.48676874518826 4.194887340933172
Ag 5.097301885661261 8.186818167093572 8.824523431720838
Ag 9.500484242034231 5.0416281760476 8.384642954550802
Ag 3.649337971582882 9.532884172376106 6.8823293746112135
Ag 5.865083566794991 7.4051898230180155 3.354650933359239
Ag 7.274223513880713 6.4550083152147835 9.49919340368801
Ag 7.48389908689267 8.48552612068573 7.078206234444442
Ag 9.755214686138446 6.623186160997781 5.99148680438021
Ag 9.67545582779041 7.884104768316157 8.708002503320287
Ag 5.734037458195908 9.674328183831777 5.04815484514323
Ag 7.37154769504421 9.201610007884929 9.937837724270866
Ag 6.0540200533775375 10.745771495944973 7.844937278003055
Ag 8.27114459020102 8.491598068508306 4.376077780005261
Ag 10.206483744758133 9.330255217423323 6.255959312429199
Ag 8.029308605504381 11.026249963662622 5.756497091389397
Ag 9.009101091887938 10.72281075718059 8.357349191425612
