38
Energy = -80.70048696 eV
Ag 12.113949832192935 9.497591855593507 6.181479702799113
Ag 9.921369380611797 10.255526924759454 4.534829009374257
Ag 7.549810501249474 10.937624348133145 5.900082461069541
Ag 5.3645643974953705 10.459199272620515 4.322420614829599
Ag 10.313830054930477 7.613313912406859 5.28264160771335
Ag 7.695491677545297 8.481678988619272 4.301221281822191
Ag 4.759191256268653 7.8832085892394845 3.7462346685165473
Ag 9.657595904904289 9.979125624340515 7.381469949384711
Ag 6.9843995152919724 10.072179171242224 8.527310981940763
Ag 11.027448763609154 7.6512967219409145 8.092495057685982
Ag 4.907974059179712 11.21615591156324 7.01696340823905
Ag 6.7862196673979165 6.339472558766124 2.696437739176175
Ag 8.397891323860954 5.693307789394737 4.833302756033839
Ag 8.236635088702483 7.47868407784453 7.231896043711364
Ag 5.80245252332651 8.544993040712 6.432992520831985
Ag 3.1573093516220334 9.17966639894895 5.832804948954363
Ag 10.059850286937355 5.264130663971913 7.026210263296624
Ag 8.977934281569153 8.58816452665156 9.79458293289572
Ag 4.269984181457653 5.180350909930256 3.088795932443032
Ag 4.209518927183736 9.065662543710967 8.693121476802755
Ag 8.396293793366393 3.082250833794259 6.027664628424467
Ag 6.4205760904048965 7.415639678452813 9.381466019697367
Ag 7.164806074119995 4.947384312428114 7.7179727635522575
Ag 8.897705659093722 5.805802440611156 9.772812484104604
Ag 2.3895263992339615 6.696520564582503 4.638117749779479
Ag 5.6072813663476815 5.86273064216432 5.593192417246978
Ag 9.34633256406825 3.1834123380271317 8.67904094129127
Ag 6.636214714522034 3.727029397495104 3.875803271842187
Ag 3.390462264582946 6.765718566686257 7.281538351479913
Ag 5.580942446310141 2.852400558744925 6.337552987477817
Ag 3.8598960972063323 6.548566596423082 10.033917562876312
Ag 4.434860774451113 4.384391513001146 8.362176080456413
Ag 1.7548910378861522 4.1368082985812995 3.4949198216759183
Ag 6.141705391534953 4.915958563710743 10.527109859012068
Ag 3.1598570575636793 4.294507743925959 5.882594876635221
Ag 6.596393078842597 2.5377231344169893 8.970440266647547
Ag 8.273170717153297 3.349212923873744 11.191369192471774
Ag 4.106112227282355 2.5059410968229643 3.9340765460368816
