37
Energy = -78.10737572 eV
Ag 5.999855127827989 9.206095300969695 9.77455664141461
Ag 4.986712858004561 7.845846648426641 4.922118764510057
Ag 4.454561864687943 10.54811797051738 5.39389408638182
Ag 7.169338374807251 8.089953801296163 7.368719926515976
Ag 5.382562996454041 9.82770520141364 2.7908156859367415
Ag 2.73298236155313 9.363953283513728 3.2485144043715435
Ag 3.3921891555189734 3.8736396382043177 5.199524715039248
Ag 7.205667374053279 9.686917511665552 4.8795680257175755
Ag 7.547292674473895 2.947118530899089 7.431245278967527
Ag 8.791089365957243 7.3575017487378025 5.124486044372368
Ag 8.012247825996528 4.909538818994635 3.8244529988426494
Ag 4.301286426717668 7.357638662439324 2.0113015791475215
Ag 8.198516177820217 5.638060071310003 8.518161337468335
Ag 9.642452771876671 4.864184921910245 6.15634791461432
Ag 8.784502082904737 2.4538629616834418 4.9120270426764625
Ag 2.5599820179586383 6.3480251100459615 4.035334301398331
Ag 10.27704272155981 2.377799081274025 7.269975067164173
Ag 4.382207340803688 8.768343208218015 7.6083524268035525
Ag 7.468095371171507 7.118657937209981 10.78599387449492
Ag 8.978237558784167 4.787279750059976 11.17809685471182
Ag 10.287799679149536 7.079580760080921 10.283011955997829
Ag 6.557759045111702 5.650142447438797 6.175224355720253
Ag 9.061113666723315 2.4784178023806422 9.750406900927304
Ag 6.0470089870707024 2.984042171515797 5.048058319316148
Ag 7.001506515888149 7.430193496811396 3.012938536187337
Ag 10.221433823651713 7.3077041447104305 7.51571877282501
Ag 6.540441258726996 3.9445394807368728 9.922780287759226
Ag 2.257950279898631 8.553466989429424 5.84515003163919
Ag 3.616690754812329 6.184381151077425 6.748090712417625
Ag 8.785947891802246 9.258549285157455 9.417886936276428
Ag 4.898445964932305 3.844261842094858 7.632028447064402
Ag 5.177626736546794 5.282643342458325 3.6296732082393484
Ag 6.527377901027231 10.8014554619999 7.389966279851574
Ag 10.78314150264904 4.674337986137059 8.892395282951137
Ag 5.401384604786289 6.399048758264808 8.892405256203356
Ag 9.292728434935484 9.81369256577102 6.709379754578972
Ag 0.3932612349062699 8.061742886695733 3.819838723044483
