31
Energy = -63.40448225 eV
Ag 9.322406320085499 10.488817804047372 3.8201348545455414
Ag 7.135380998702816 9.2836951588294 2.5219293677353702
Ag 6.731672000988998 11.237174555469021 4.489152654439145
Ag 10.790941641750209 8.881744962934096 5.533942627234513
Ag 8.786594858044722 7.655640663941091 4.008525829032601
Ag 8.304606926156875 9.97917263519578 6.390828027835068
Ag 4.891151500099628 9.10383023767961 4.219181143762048
Ag 6.213254349447311 6.807227971223613 3.30079876997659
Ag 5.5245931221432905 10.178171864138864 6.738428587766879
Ag 9.544267094832453 7.969121532180458 7.851207091355503
Ag 10.219447937915325 6.1453104032809245 5.84413981425661
Ag 7.902115526896271 5.070751397759033 4.630894864208441
Ag 7.071256656650385 8.908200461614072 8.686849338644297
Ag 3.6227172760524486 6.642877960421992 4.343052634188755
Ag 3.2572238676130763 8.51385593665458 6.398217035589384
Ag 5.213375676326646 4.330112467785186 4.203568999283251
Ag 1.6577387699571746 6.18098175782771 6.231150771281742
Ag 10.400363058813179 5.392334189922502 8.555689493698026
Ag 4.266706440884855 9.182252928013506 8.96802034185019
Ag 2.362112750076282 4.189566862620312 4.289712406625959
Ag 3.3995278044319193 6.564143309944806 8.410737353568384
Ag 9.297858651896183 3.669902275807209 6.579589116351045
Ag 8.316433931707074 6.757564496814385 9.97978224982628
Ag 3.822382239398897 4.479361226048867 6.616892319624945
Ag 6.47949868227197 3.6426423032877686 6.6065025321039865
Ag 5.539987181673775 7.048266464439862 10.155955586048675
Ag 9.660633445319887 4.6172827375278125 11.150449950865182
Ag 5.230478422976822 4.4897088717944795 9.008839755591266
Ag 8.02453372690747 3.8668846706912814 9.099826665264084
Ag 6.792322100605755 4.889549605324237 11.350490956988896
Ag 7.940467874177516 1.5559031215851802 7.7375596952623615
