31
Energy = -64.80250756 eV
Ag 5.466426524236387 9.763856439988459 6.706770211805539
Ag 7.032386274353126 8.925205212462174 2.3314768933269705
Ag 6.440201787074941 8.431680699129679 9.277246120921099
Ag 10.549888218308203 6.627021885426003 5.879712322398384
Ag 7.043599507402114 5.986141097230503 2.760114558318694
Ag 4.940909185639664 10.03855534704134 3.967967936838675
Ag 5.751781634451844 6.777242674574987 7.178150413592809
Ag 9.099881457432454 7.904776178096601 3.9191208584898365
Ag 10.02475720217259 9.407950047299316 6.110774829392766
Ag 3.7047081294325173 7.860805249869552 5.45579660075418
Ag 4.560976393959531 7.503964692997011 2.721875965540475
Ag 7.685327643579848 10.329281120775054 4.896120055597522
Ag 7.918698337150577 5.42133612604315 5.388244707878702
Ag 4.972891377203034 5.352735957708914 4.672337958620187
Ag 5.56045478763493 11.041657516595656 9.104580353834708
Ag 6.668248747873939 3.3207263672095357 3.923789547163504
Ag 6.466461065631268 7.835397078133274 4.7863995974330065
Ag 7.9746873899778645 10.37351817748356 7.75209185386814
Ag 8.14798953433584 2.6298020401545728 6.222321505637272
Ag 4.436467709973613 2.7872788672640594 5.638911529677732
Ag 3.699483006740168 8.22984089914807 8.337051018652302
Ag 9.373914097649287 4.835170984276424 7.665692437664431
Ag 4.412182002611622 5.720454200932861 9.439160392674376
Ag 6.1272401530605 4.099993713704007 7.396412362081734
Ag 8.425721321080253 7.5433933839897565 7.4320537669258355
Ag 7.3327890610203355 5.6957381516802155 9.463121983520926
Ag 3.2872083546818938 5.388374317310388 6.8927064433718
Ag 5.9499184315626845 1.4182205357573825 7.765342976367406
Ag 5.7311577120426325 3.4156824543979036 10.204026089738663
Ag 8.133822579714899 2.8568347813217407 9.063310518989844
Ag 3.6542490844881668 3.0780721952265173 8.384531578222301
