35
Energy = -72.70952183 eV
Ag 11.199476583557688 3.43871675276573 7.320250012532019
Ag 10.8086756105112 6.146112949406308 6.690386774590461
Ag 10.542790838837899 8.771193289673986 5.943699130640397
Ag 9.187751096906785 7.915295466818254 8.244970796694357
Ag 9.51730808884804 5.215562482558187 8.921065307964493
Ag 9.523883161775252 4.157984445795353 5.218722419259277
Ag 8.063029863264646 9.875074231796143 6.477034777605599
Ag 9.434224302085479 6.761647321506371 4.2894604466954265
Ag 8.553080595406296 2.834334530858544 7.722686831741638
Ag 6.82879656786644 9.243907154865955 8.878042037925665
Ag 8.912742031411542 9.459802093534027 3.8155580572066596
Ag 7.210129557984487 6.627346311523434 9.777629826366663
Ag 7.35164799046902 3.852133830939782 9.974033373921497
Ag 4.318053309412062 10.493799522166048 9.377953024838408
Ag 9.767948993384495 1.4868316733820974 5.689159088186624
Ag 4.612412269309171 7.697266386299072 9.537935902406755
Ag 5.4577585227964525 10.630094150205112 6.86015146809569
Ag 5.816628654683764 2.794353707249349 7.8976834390408595
Ag 3.13571837738276 3.3665147767658854 8.129431822232943
Ag 6.204062815176469 9.674119114085054 4.358658933290611
Ag 7.096394314876727 2.6480761787793186 5.312778580330223
Ag 7.186994019953018 7.569967148314438 2.7774013941775504
Ag 2.867970346013774 11.568688154920892 7.159295214221289
Ag 7.618061932282373 4.847077123440482 3.3913384175565264
Ag 2.9391135834072255 8.844174304697916 7.614079617452502
Ag 4.886085622572997 4.967846729216795 9.587845194545615
Ag 3.475801559843846 9.794059780502 5.040903060658228
Ag 5.438374412544773 3.150604365346694 3.1052171042935615
Ag 4.295816802135321 3.0028339911301405 5.596186457215954
Ag 4.43374142771042 7.756062882592195 3.3519300660907354
Ag 2.799353957271088 6.131521737905899 8.070475793483073
Ag 5.4584515208403275 5.6387089683921285 1.8369880213398857
Ag 2.6474380328916594 7.14989499468238 5.4402467701780015
Ag 3.5560335880071405 5.095821283612319 3.7742207665234715
Ag 1.9471148830617 4.518911466190766 5.921717154546644
