34
Energy = -73.07930337
Ag 11.490691016314054 7.133158432260845 10.146672146210987
Ag 13.499991791658916 8.871205750406714 10.950257762871672
Ag 13.33796677486533 8.167415851357198 8.352032053228513
Ag 11.277735308393266 10.022729081544439 9.175316700623931
Ag 13.500084030214106 11.973653103478705 9.894908714684492
Ag 9.827440344121214 6.295938009964515 11.890220639462937
Ag 8.938639686034037 6.808729282193941 9.303978714391896
Ag 13.303823321336877 10.69942664970558 7.377305509940893
Ag 11.43401886879696 8.196894368047687 12.762545488008506
Ag 15.261087575768238 10.821952565590687 11.644112668946212
Ag 11.277676379973002 10.822192070905357 11.669706287007035
Ag 13.33791470084725 12.677445479418038 12.493117150789487
Ag 13.303618089064875 10.145435491743191 13.46785286944658
Ag 10.691754460704912 7.840344983890933 7.479248014487162
Ag 15.261148890700248 10.022845078543586 9.201176141620273
Ag 10.644413567848348 10.422482070120065 6.4692140153317075
Ag 8.687914300517214 9.54242966155687 7.984382094438444
Ag 9.348397297183709 11.748361615815387 10.086910996176044
Ag 9.348241968341592 9.096707117391919 10.757956693176117
Ag 6.582243425819122 12.445004033983228 11.491285390566565
Ag 11.434244618321037 12.648036217663847 8.082482911085162
Ag 8.814505385403331 12.2451355943723 7.399303245222403
Ag 11.490795407656286 13.711786831004254 10.698365233924436
Ag 9.82768834962633 14.549066294284255 8.95469643288082
Ag 7.269087216111728 13.719626320490438 9.302532533749057
Ag 8.687809600976227 11.302594875971456 12.860444749536832
Ag 6.702196011529048 11.013711316086328 9.144319155663897
Ag 6.702037733949961 9.831383337164048 11.700498734102256
Ag 6.582251705723152 8.400113686933402 9.353488354087252
Ag 8.81427034629756 8.599893031990238 13.445551485341657
Ag 7.268886756304342 7.12545372734193 11.542271761543171
Ag 10.691661557343187 13.004612358373665 13.365729610273627
Ag 10.644167180005205 10.422482070120063 14.375772006006015
Ag 8.938694408995723 14.036307640284859 11.540901735174101
