36
Energy = -76.18419121 eV
Ag 8.034380301325589 10.59240382112708 4.965499489131971
Ag 8.318043126407908 9.954704133030182 2.2614990826209995
Ag 9.412534819610695 9.025759241059028 6.807258664387175
Ag 11.737476248240757 7.861647666386982 7.831525642194569
Ag 5.465274725453953 10.72944876396535 6.014902287196209
Ag 10.220617509674387 6.441312957090257 6.012354394677482
Ag 9.195850309741934 8.128280843233874 4.1395496057433645
Ag 7.3866170934398 7.260983169456294 2.2385392151535504
Ag 9.469288427105417 8.217497275482739 9.454197206359748
Ag 7.167458784568782 9.58866951439183 8.393395602644071
Ag 6.759239127082504 8.186569120615397 5.996969543591622
Ag 5.895239398277069 9.337082177902625 3.5014380434692236
Ag 5.245060803319838 10.156656643344038 10.32128557556164
Ag 10.300718111446985 5.631048444801362 8.737616939113448
Ag 7.486872354727698 8.810450376845314 11.22621029954612
Ag 6.7089082670879545 4.56418798447845 2.564066416176349
Ag 4.355481119310023 9.087171310793687 7.934207452138166
Ag 9.26756196775886 3.907859623936448 6.652985248420158
Ag 7.690164006954927 6.156543693115497 7.737969245307079
Ag 3.8612108055742955 8.48002700394611 5.255420895475566
Ag 7.777998092928937 5.666110769543597 4.846067502706682
Ag 7.978944593545603 6.117354064999337 10.629738491903565
Ag 2.2712314057531118 7.367238240878741 7.2706007063414955
Ag 5.1252739087363155 6.621143715512114 3.6822590753756246
Ag 8.404316126239836 3.6502336430405324 9.345271470046532
Ag 6.653970257222799 3.1539223320395116 7.276002378966059
Ag 5.5702089121273595 7.396008385322747 9.793880536357404
Ag 4.967786717807743 6.267992278206751 7.0648851542750615
Ag 7.586087482788585 2.7490412821816665 4.649983190319583
Ag 2.927302227082941 5.643227102538763 5.204975075192241
Ag 5.794341926693447 4.618644088565395 9.466026808355098
Ag 5.241474998630367 4.153665367573926 4.953655647772045
Ag 3.294910563396761 5.7696312027864085 9.30564830567616
Ag 2.8161793803759934 2.79328152025273 5.0723454669748955
Ag 3.893023278756952 3.6722537907650805 7.478010617870595
Ag 5.168525479228494 1.454023758391455 5.676623067956777
