39
Energy = -83.18149496 eV
Ag 7.63571624905342 9.393570656202504 5.761016129985352
Ag 5.8103353483319 8.362165336779487 9.402644162093633
Ag 10.318016037247185 9.837087531911452 6.2850843484517025
Ag 5.325602649042311 10.264930110135847 7.360929729060043
Ag 8.462025314245563 7.877673795305144 10.302496112297664
Ag 9.082092659521827 7.561472357876446 7.576736798046418
Ag 9.451250468568011 9.36809570028475 3.6278741246578305
Ag 3.0394018443273376 9.641382257265438 5.649297553075572
Ag 3.751584937250571 6.619776748741805 10.218202838539696
Ag 5.252392054907642 7.783818233832298 6.058213710797954
Ag 10.50943845701136 7.235021894693552 5.058844186646364
Ag 6.5914758304340735 5.914401029668638 7.880922440959728
Ag 2.4438975528542253 5.5113055781723235 7.969077478483478
Ag 8.99760161375986 5.2430668458874425 9.416610398200698
Ag 3.272182585235377 8.291518345667903 8.079440220375238
Ag 7.118506659260919 3.2725794087267293 9.484072746474693
Ag 6.452778003235209 5.846889167104425 10.653335165669716
Ag 5.408903842377052 10.40832380653443 4.501126916822777
Ag 4.553162716155304 4.172886491547555 9.234635242045375
Ag 3.084799657290206 2.7944311886505915 7.342538519336795
Ag 7.883693925167554 10.015401355357987 8.461672094152606
Ag 11.16454931640506 6.857399673038677 9.647545955829363
Ag 5.848152851481033 2.7049386458211515 7.073220179310852
Ag 4.582533321847254 5.056919037112804 6.0618171810668375
Ag 2.4900156651043535 6.940759660735757 5.532468480300042
Ag 8.444440571678479 3.778580682842885 7.034255443259623
Ag 7.6613005269329655 6.45826045584937 5.3759617346937985
Ag 1.7445653430063945 4.224763821719415 5.424003724008781
Ag 10.600871372658215 9.497422000470031 9.056723929232549
Ag 6.848009131240774 8.574558195833827 3.0680152389547706
Ag 4.120825298928739 8.02139437824159 3.4271610543271063
Ag 10.807706177550664 5.356471911105374 7.181430419384624
Ag 4.132937698466257 2.7191470660782255 4.672946229606288
Ag 6.0468900692366185 5.93324012057219 3.0015442584361116
Ag 8.805109668555556 6.613111770623612 2.8474266126447416
Ag 6.808292535231546 3.8203980231374177 4.653971600325987
Ag 12.143630724448183 7.964261960695453 7.269402599307788
Ag 3.445359657864727 5.242293807921975 3.458588182696358
Ag 9.616434578927937 4.57676386269528 4.645229175282875
