30
Energy = -62.00981924 eV
Ag 2.6180528630190656 5.636446445611281 3.631535827397784
Ag 2.886838560261617 6.843480548071349 6.221635853618088
Ag 3.2523372923825793 8.273751744921944 3.740831246083718
Ag 3.893633598759441 4.126652317898656 5.627039649925628
Ag 4.839845912431189 4.262520661176038 2.8007418609109833
Ag 4.572268736714689 9.119415746913752 5.973404938615188
Ag 5.467597692411352 6.4087237521933575 5.1546187430853525
Ag 3.8446860212118588 8.204444851721794 8.561750025328298
Ag 4.723721194951187 6.834490722405212 1.9258809336589886
Ag 5.643553294162819 10.364295121110253 8.217630754227336
Ag 4.818718840366456 5.577369438388538 7.9592923371841895
Ag 5.838181298154954 3.0154837221919815 7.392170866776805
Ag 6.192956472396222 8.599801196932054 3.5495773510552495
Ag 6.664768916055873 3.715211409420092 4.761020238067911
Ag 5.017771564584941 9.617291590362697 10.775873941286743
Ag 5.945909380408155 6.991891121205756 10.207041123872985
Ag 7.2116256579731415 5.873905920134093 2.9846143092714246
Ag 7.665515366452106 9.189638393439218 9.921203330971966
Ag 6.583691036447912 7.816954977313219 7.520589578934253
Ag 9.284821529449406 4.77681411638001 4.637910292635841
Ag 6.979728907633405 4.483372757509619 9.62434326876503
Ag 7.534197127722207 5.281839499125571 6.975665291090308
Ag 7.274901260248843 9.981991380845741 5.798150190045618
Ag 8.610333830350527 2.745804017259024 6.498984263156252
Ag 8.268383038793807 7.412100893796728 5.181852134970214
Ag 8.705602114835793 6.698257308922574 9.367544483816252
Ag 9.243707257607173 8.785837115941623 7.561499493795784
Ag 10.244956470837302 6.269105759040698 6.945997476597973
Ag 11.201131753048978 3.627994076064915 6.447697993970404
Ag 9.696325088320277 4.202800647460362 8.75150719879517
