34
Energy = -71.78391749 eV
Ag 3.341881665384134 3.956316417010295 5.487436751374211
Ag 5.823698104464648 4.007552656005463 3.9981755839119986
Ag 5.476609406889446 2.618097442474085 6.519411408142016
Ag 7.039986378375023 3.277844763052162 8.579865593946883
Ag 8.32702420123613 3.001304751171184 6.030523205314971
Ag 3.738592410011024 5.7452992079211 3.4264939726699737
Ag 9.493575419988929 4.515729923289489 8.203851156367339
Ag 8.40976448715538 5.060986168446561 3.9786542360651187
Ag 4.277972118929065 4.950303970674106 8.018956815371567
Ag 5.466436721933017 6.553806868680559 10.094465230592775
Ag 6.700545959689624 5.181311152072695 6.375837853275296
Ag 10.539716749034925 4.713131585604043 5.643570135342349
Ag 7.821528794024768 5.000115885597452 10.594984793918622
Ag 6.245225035794385 6.915260076045075 3.8562395539696777
Ag 8.411023494902027 7.330978111310988 5.711692838818717
Ag 10.826365528114904 7.224180864069826 4.480497078865741
Ag 2.969344377055774 6.596899677990299 6.044431018211747
Ag 10.852972029997863 6.897057316667639 7.3850990466197395
Ag 8.897032445719793 9.420906376784071 4.014748213304201
Ag 7.77958006101444 6.821168172883212 8.399457397583959
Ag 3.85181104653419 8.426399197661361 3.9739996058041855
Ag 10.157867982863866 6.537021930404644 10.052438945444877
Ag 5.6523992848382445 7.812471524011573 6.582584767398284
Ag 5.161671843314868 3.832200328733342 10.453509843886458
Ag 10.464658996684015 9.403854841558356 6.273002513112747
Ag 6.211561780549497 9.79098695134229 4.407880233044412
Ag 3.6357522246462257 7.808032268116889 8.501004729684425
Ag 9.469953307534608 9.033401924833568 8.874388545506008
Ag 7.788880441245046 9.943856831912488 6.787850813673082
Ag 2.707528121927883 9.324205768157373 6.357981400219639
Ag 7.870744893865753 7.913213431602142 10.955279100345939
Ag 3.770664507443121 11.171526776557872 4.5452321121231485
Ag 6.184912760411066 9.108089828183749 9.053018191918985
Ag 5.073277188558511 10.579411406608301 6.966512587825701
