37
Energy = -79.04521404 eV
Ag 10.291701801733309 7.143835110764622 3.8811225644568776
Ag 8.275336887880758 8.8944337365676 4.9341893274926525
Ag 10.587747313633612 8.360229436747918 6.469854825367218
Ag 8.40964959543331 9.976183819574327 7.575656737095565
Ag 10.346502035227857 8.867318098258197 9.307002901437322
Ag 11.138500172141427 6.391075234513989 8.528275480375799
Ag 6.04633558396823 10.345555769045085 6.042773521716203
Ag 7.806223355245688 8.933410430820938 10.360670382437695
Ag 5.94267509479975 8.896888192090005 8.414913361342748
Ag 10.264121966214969 5.43628734850763 6.106956198153365
Ag 9.69801673426167 4.279077208228329 3.621515259606716
Ag 7.88554932672646 7.602048584207925 2.4362211273930865
Ag 5.760802068545651 9.103087505197161 3.521428290896285
Ag 3.5929965414573855 10.494998413900975 4.657708641580952
Ag 7.838999153071443 5.953374169799278 4.733774520278187
Ag 9.127831259234515 6.463248811990301 10.522108340544264
Ag 8.33769130734338 7.181512241895431 7.7505479861017434
Ag 5.843792190990766 7.500051960645189 5.93500281550631
Ag 3.538215061710984 9.007716832017312 7.095698813523205
Ag 9.145401203345655 4.438642062783647 8.481366866847159
Ag 3.3518477130274325 7.750661167556004 4.4316651503615505
Ag 6.327302148404072 6.532000086766095 9.989848732472932
Ag 5.393113620121925 6.311054986656051 3.2022470594574064
Ag 7.4620806019166395 4.873250111546136 2.0271223768272213
Ag 8.340229971548204 3.280524675446233 5.947341893338723
Ag 4.073728296607925 8.19034175578784 10.266903780394033
Ag 6.584778791246929 5.074988922933235 7.212149457962992
Ag 1.2458589825876847 9.263390191286351 5.58001298846743
Ag 4.198214171167545 6.472187934148624 8.141657357229475
Ag 4.049774774333733 5.216020104870113 5.433157546403617
Ag 7.467607168479974 4.136664048667183 10.708966740900976
Ag 6.1436658581613335 3.723792694231883 4.236797454827258
Ag 1.8861217492974496 6.693356047666081 6.614015752728121
Ag 7.150290396848887 2.484480801601703 8.423072818122037
Ag 4.970851899389116 4.026765492086104 9.373276570100941
Ag 5.009079634178835 2.8414497263219585 6.641708053361579
Ag 2.7264146966841474 4.152677541939475 7.658470070727246
