32
Energy = -66.90777887 eV
Ag 6.355044781497566 10.539451960231546 5.288245481403129
Ag 4.314923406143 10.664908701657078 7.386679768484425
Ag 3.8650174582644974 9.274033747818923 4.966560553391237
Ag 6.188335074800352 8.722043539569663 3.1652469217672614
Ag 3.466319164922678 7.979633190611487 2.6126931978956978
Ag 7.877813525285075 9.91752177905181 7.469244388804446
Ag 7.912984599027017 8.123940105994809 5.327694229284364
Ag 5.888436209123861 4.122554334688467 2.9457178967223334
Ag 5.557863793767774 8.222786152323911 6.989631622482332
Ag 2.77430311401319 8.242506964828705 7.409151908905541
Ag 7.799212555756133 6.11459604914355 3.437600131293835
Ag 8.806294510110302 9.411431620918918 9.973144305161407
Ag 2.56797696870297 6.689695605872397 5.090388134447935
Ag 3.308251967430131 5.258206066978958 2.729855144104946
Ag 9.534574461226272 7.62802138281762 7.639447510199161
Ag 5.919619019212913 9.806466157015667 9.49781244491026
Ag 5.261277566921253 6.543077664136884 4.519198446967776
Ag 4.0574233868605 4.043607162081791 5.108250665187868
Ag 4.109744054540059 5.66897738312343 7.3155334134136485
Ag 4.410178754670749 7.3214359926445045 9.526078027010962
Ag 7.195157791314952 7.352937765641551 9.149471164254049
Ag 9.570236585391829 5.733669074325659 5.565250158204078
Ag 5.769761272545841 1.885275856206447 4.6050791342164485
Ag 11.30605647316119 5.407794312656958 7.707794900044662
Ag 8.068851494226353 3.5568575734752534 4.627032056063272
Ag 6.931501440632887 5.735209222867998 6.659310672510235
Ag 5.585132215481364 3.0877200410837387 7.167632200345113
Ag 5.972841957948829 4.848860283009801 9.294312632393671
Ag 8.818983562187013 5.11857207471095 8.829980410788643
Ag 7.7262694594441435 1.3891149484208432 6.449795143938809
Ag 9.706348163798275 3.2504503921185313 6.918768505109765
Ag 7.694576150614845 2.608021607186438 8.924265669414133
