33
Energy = -67.62674398 eV
Ag 9.574803713466657 11.426950663185142 10.684438393898178
Ag 9.804939454418097 10.634160604071358 7.899019515023188
Ag 10.369396734526358 5.361184662765003 7.386174132467945
Ag 8.682574465445567 3.2842767340476633 6.344237668216745
Ag 6.942989951093153 5.738274814322489 10.300434822036156
Ag 4.4859486500603145 9.12395398028579 6.701385988082484
Ag 6.850613281124528 10.936839103851884 11.626389424075967
Ag 3.547030795299779 8.169499549301628 9.290196705407508
Ag 6.86979376524973 9.03589471063739 13.639204485917459
Ag 8.892828104943307 5.890040988294902 5.03107254641415
Ag 6.110339823363312 7.631352969000829 8.500457408250682
Ag 9.723592226768634 6.3828262834686225 9.885111473738107
Ag 7.402208311927221 12.070547945795248 9.031810146739517
Ag 6.848222458387275 7.679771775380606 5.724202895371924
Ag 5.3087021349159755 11.976360005297803 6.913642998268301
Ag 11.083523004939533 7.617888619468398 5.899796896121607
Ag 5.2502758330157615 10.315345857396503 9.249887283877094
Ag 4.770308614411109 7.626428268453407 4.019808742437302
Ag 7.2842266548978225 5.393002891254226 7.409172006554569
Ag 8.012270698754797 9.239715423968118 9.872212874310216
Ag 8.78010169932198 3.813778211487536 9.18230187195373
Ag 5.703680681461023 8.195979186214101 11.22309501539091
Ag 6.064686050634372 10.13160438747947 4.58675235255633
Ag 8.963964616754 7.849949860842056 7.639088408582197
Ag 11.246524945146504 9.11831316690042 3.534289616107977
Ag 7.192729228813723 10.055245069694363 7.144978761587803
Ag 11.012994358074204 4.107224495682018 4.975298060618986
Ag 6.207963357654216 5.220398924961178 4.722487679570429
Ag 8.417317604821278 7.4644442072332335 12.049802889664791
Ag 10.717187976604524 8.924411035289705 9.96461135796
Ag 9.008684137154424 4.664244107760158 11.90700749579188
Ag 11.236892463209081 6.397851252288006 3.473595755397859
Ag 9.052745497000974 9.449253029024996 5.182742999961265
