38
Energy = -80.99593505 eV
Ag 2.915877599457374 8.733409506766751 7.642647528772731
Ag 6.234257091822103 6.4861161547613655 11.508876095115692
Ag 4.476264575335687 7.638828152127509 9.703780752810392
Ag 5.656127070336089 9.088613371102078 7.586711937854349
Ag 7.631675949046681 10.856107309967772 8.47351959886041
Ag 7.4701535756536765 8.093249207205462 9.606027683350264
Ag 10.077676746332711 9.471042621794092 9.035303270703677
Ag 4.166950886498614 9.889720251135756 5.297171941591009
Ag 6.880390656240855 10.68571227484439 5.601822513215823
Ag 6.516400266717714 3.740156118552676 11.692548451293401
Ag 9.582781094515994 11.07355027989188 6.299496754821851
Ag 8.192920267798002 5.333596216894635 9.93952037782063
Ag 9.961336122407582 6.725024834830605 8.325259152925508
Ag 3.009499733210417 5.967378132709336 7.931562793024019
Ag 4.528232719250472 4.787307396721371 10.00971252643299
Ag 1.8005475974434362 7.108402123996217 5.606456513251286
Ag 4.584452939781086 7.124305395191277 5.740643670836991
Ag 6.141662362632494 6.096751025126809 7.8997862101957965
Ag 8.385212273800871 8.631321149070065 7.040586546866177
Ag 7.296805858983319 6.816814404509644 5.355804879192347
Ag 11.122015726774809 8.773241159255564 6.4492251071753035
Ag 4.377530197254014 3.6051012267983116 7.464436970996304
Ag 8.526682261019486 4.603534991191912 7.153883649530902
Ag 3.3621395008688917 7.8489918173293125 3.3721438938455424
Ag 6.212166665660118 8.81339715890123 3.6337327193855704
Ag 9.002725450043675 9.021263038593139 4.364924951020363
Ag 10.035540769294112 6.423706288553462 5.444534020413664
Ag 3.24194941505286 4.779389828999381 4.953070210292608
Ag 5.98023251168063 4.450384672855559 5.3082793271395206
Ag 6.690638723775786 3.2097939023713558 8.979357445244757
Ag 4.509135315735531 2.126082751751833 5.1175704081271265
Ag 5.572594248902889 6.200839517071082 3.008826518826406
Ag 8.39313876339426 6.7192892388478205 2.8307882837698664
Ag 8.679797413231771 4.249933559974286 4.3554242265242635
Ag 7.113513490486322 2.223174984934876 6.432667300080837
Ag 7.362359800575544 4.274610327747668 1.8854995041746432
Ag 4.714837205063375 3.6161395352950105 2.745747120212935
Ag 6.967350827169029 2.1335833031205773 3.635807359375832
