35
Energy = -74.56984424 eV
Ag 3.1564877054991354 5.7346496157516365 6.1284313199503355
Ag 2.392507349570481 7.571619560490041 8.070334271354298
Ag 3.058785336477646 4.968717924737167 8.787790999096448
Ag 4.094728933878899 3.913452240311581 4.135847138704782
Ag 4.39985418937866 5.086357916684468 1.5347093275210901
Ag 4.259887375173493 6.704182005151819 3.7756185227452974
Ag 3.543606393519136 8.570467758175333 5.733903142134214
Ag 4.49718902481037 3.3321883560334022 7.011115314477956
Ag 6.381626979246184 2.4813619260740984 5.008272077902626
Ag 4.506958896414608 9.351894906321755 8.402934704738533
Ag 4.196151746839941 7.209287867990144 10.183731013237564
Ag 5.703796939924604 9.062395539743155 3.8925504914624547
Ag 6.049770763107903 5.234082834444329 5.722396745484463
Ag 5.897499568093735 5.297918201201311 8.636096044742532
Ag 5.489638236825897 10.634889330649859 6.187526400110996
Ag 6.690119886603196 4.565827745167463 3.0415503127883774
Ag 6.187077216714924 7.86979069822934 6.543978048439762
Ag 8.27273835118156 6.100079123883806 7.197039025864653
Ag 6.328169220311934 7.105739788259747 1.9392035944194208
Ag 8.692686726975507 4.112880303634742 4.982632705731542
Ag 7.398889791558807 3.202048783753611 7.4965100071549635
Ag 6.308035508307593 9.039871583011168 10.474077020539237
Ag 6.78146043552714 6.3735127426995115 11.10504209259627
Ag 8.057571315384333 6.811946724329947 4.287792867603078
Ag 7.470995070877106 9.908821399164127 8.109949307385284
Ag 8.197567425256533 9.059613278358427 2.646215280277599
Ag 8.05233985279287 9.813679865299438 5.338341863505895
Ag 8.604913203911147 4.821672400973145 9.651528496974967
Ag 10.104450149440162 3.8579169682436714 7.389945725307674
Ag 8.627673636991185 7.763600852589164 9.56209290257664
Ag 10.622359340467893 6.105075970254282 5.656332199620983
Ag 10.798950567232898 6.33183116799435 8.506190002654703
Ag 9.814174759333333 8.575775186884533 7.12458200207682
Ag 10.34964686449077 8.514913151562258 4.363041096071445
Ag 4.671744062804269 4.565949527151085 11.026254909575337
