35
Energy = -72.95135914 eV
Ag 2.995245609328859 6.2908747332496455 6.80788672849562
Ag 5.422594828614027 11.119167317904742 6.195394831078388
Ag 3.6223338854228504 8.918392255696483 5.978616012323714
Ag 5.475224385356823 9.39646428244895 3.9330162784144598
Ag 10.463402414800331 10.531586502345933 6.1122562084501855
Ag 10.200148579124914 7.022080622181009 9.53228877730951
Ag 10.177751074721424 12.37186963451347 8.119181343273159
Ag 10.238934001307051 9.705079916866238 8.815541069055119
Ag 8.598538623717014 4.6883551275299995 12.612672377686987
Ag 5.543475395037277 6.501150758418201 8.176850355260195
Ag 6.775145055795109 2.0520947436352075 6.59468608943545
Ag 7.9561322366511895 10.8015049688504 7.541062435521605
Ag 10.262466501571776 8.70252824029264 4.1132452172362015
Ag 8.01313261789398 10.447318982598432 4.687075534744536
Ag 3.2665603412272946 8.137664003683412 8.984074601236317
Ag 5.113004547082349 6.760532127847413 4.971579457633318
Ag 6.6968606077032105 8.597948510332785 6.345664057064883
Ag 7.0171533570502875 4.144722160912356 8.329075933079542
Ag 10.019021807233925 5.135881083352924 7.482753504445484
Ag 9.734209221649847 6.89104794865579 2.130355422921677
Ag 7.764906860850074 8.217560805729304 8.949852107489603
Ag 9.590033598506173 7.887077464416173 6.766377252232448
Ag 7.676553717350286 7.590687424722603 3.852864933890843
Ag 1.2022711870993552 8.44542893651087 7.240794975681325
Ag 5.052276036935046 4.339447584234538 6.370616912346747
Ag 9.147211380606173 2.4526312823432668 8.257145104196729
Ag 5.462438131913145 7.769125265869034 10.63656765364228
Ag 2.9533057167912697 10.725365200363601 7.910954071367871
Ag 7.508050783202787 5.879915162896498 10.41788020359354
Ag 7.638946387171184 2.9197136409488644 10.711962471948082
Ag 7.520736786551339 5.877663894561701 6.158071075226704
Ag 8.866807400186143 3.487087923647179 5.585837667258456
Ag 5.469660827694688 9.798001280656337 8.662910493803302
Ag 9.925364316624641 4.38019567082861 10.159760004348584
Ag 9.96103336560201 5.925196165108086 4.710910193502817
