36
Energy = -74.87422782 eV
Ag 5.8914234299810095 9.879446327550527 6.016555108044017
Ag 2.492247480389869 7.603058319963382 3.3969463879523305
Ag 11.191294432053585 3.6467546158167528 5.356264559587335
Ag 6.13240572235425 7.147599318354763 12.597567061940875
Ag 3.8210749783800835 8.494005421720841 12.27544361154269
Ag 3.103696802569387 5.325896918726179 4.982202760546782
Ag 8.069281459690716 6.608325872573437 7.188396230710885
Ag 8.534169823681438 4.05880305896845 6.109472017594982
Ag 8.638108628095141 3.7845835834281347 8.9927368475346
Ag 6.172841858599434 5.163531213352765 8.800368490646106
Ag 3.70567239053696 5.866806943083757 7.666382232634786
Ag 8.308241101731968 11.489668279023634 6.13530447343883
Ag 7.1254057737978185 10.826073252939059 3.6943385074078696
Ag 10.735365606184127 5.041186400708445 7.646386587252801
Ag 9.775304307609336 9.10868521704836 10.045605589923996
Ag 4.645073146188009 9.420540017447596 3.5317932830452228
Ag 7.7755761361678015 6.034273274310907 4.1429061375049665
Ag 8.896216759935102 7.4088177980567185 12.248891480839982
Ag 10.510121833642925 7.979960005616936 7.521364110397353
Ag 6.460676668017781 2.7651877263548164 7.487214385956898
Ag 5.882299133553164 12.6011927316792 5.376215058479504
Ag 9.63192238786402 6.311825130373986 9.758943730865232
Ag 7.521368727986955 5.100617798626624 11.297319058793851
Ag 9.748866369182238 7.592167802680642 2.854485588488943
Ag 6.301237584305114 2.7930351001987233 10.279739823696177
Ag 10.331137245145248 6.299284692863998 5.21497987438078
Ag 3.8104133471559063 7.987138855288354 5.780767550863659
Ag 8.695939796510666 8.737057429145029 5.190891142484877
Ag 10.395950973578726 10.774918047701675 7.802239666970546
Ag 5.592637898730518 7.891730196245704 7.8668380142754595
Ag 4.5448428300884585 6.819215406530608 10.279741488036494
Ag 7.108160742392014 8.315247317676253 2.721925101301311
Ag 7.980500128708187 9.374190339412197 7.9040431359413015
Ag 5.823812564381641 5.1107044890900815 5.894909119274467
Ag 7.226306191582272 7.760283099702274 10.068681169991835
Ag 5.112030667688465 6.5698129262000995 3.563765540112873
