31
Energy = -64.12998067 eV
Ag 4.432883263665334 10.352675324761003 6.56841457570893
Ag 4.6101649467562815 3.529135660882292 4.855074939174949
Ag 7.129498852767971 10.583764342734288 6.197467913429421
Ag 6.294167167711547 4.294564231370579 2.6999444778491464
Ag 9.3456814441005 8.965087569371223 7.057157778330553
Ag 3.970234826987178 8.09703288756226 8.350648462505694
Ag 8.558154249570684 9.134575778095266 4.37270850181104
Ag 8.957117198254013 6.405216789576631 8.23015524221017
Ag 1.9062355641021342 9.642514298824638 7.3470310277294
Ag 6.1783952841540755 9.067566113358955 11.306663352726353
Ag 6.362247429352591 7.144079761320997 9.357737298200572
Ag 9.205681443984657 3.9624819744061313 6.5894133931078205
Ag 6.784422897359644 7.625060661084534 6.530084925484768
Ag 5.129308665219615 0.9838900474579835 5.9027462269143
Ag 7.455279331259989 6.820260570493509 3.2730971125238635
Ag 6.779289447850894 4.673988734013722 8.234260322744106
Ag 3.3016717848271173 8.041314995174968 5.563530304652441
Ag 9.023530956435797 4.383955335878667 3.662638307985741
Ag 4.773612278177815 6.290217888925704 3.9815302439307376
Ag 6.922638950010488 4.980895553923596 5.392781016400082
Ag 9.371668401335263 6.615708066628751 5.371625636949058
Ag 5.677680790833716 8.975618525455673 4.318813657974625
Ag 11.338870790157012 5.625438632877289 7.03850930851912
Ag 7.208448753359296 2.1743276178508215 7.213171023211473
Ag 4.520369783179773 5.7856266342075156 6.72580363449144
Ag 4.231780356954625 5.351059550361927 9.399667609515872
Ag 6.114366010283797 9.976775262789625 8.739666214649617
Ag 8.530253721394462 8.773609249352665 9.758605959910765
Ag 4.514504949360771 3.0740852698543684 7.673542836990214
Ag 7.284926191722184 2.2958407146102404 4.4697326572871745
Ag 8.619133370216403 11.230751282334772 8.489440372418294
