30
Energy = -62.29642741 eV
Ag 11.020653169306904 4.204096741698428 8.511674849037076
Ag 10.283895268985251 5.28466182044736 6.098469337201172
Ag 9.906608006949785 6.78260644768723 8.5088728455715
Ag 8.821290621400333 3.0668398905433865 7.212518572135038
Ag 8.488008415459538 4.631304821101739 9.548043326275124
Ag 11.031734200736192 9.179409831172354 7.736301067129622
Ag 9.47742064324323 6.428091264284108 3.7077622766495297
Ag 9.14587362953745 8.004175975586339 6.053656797926473
Ag 7.328280900015955 6.050010197807681 7.156286319382379
Ag 8.752341142522608 10.647120394694387 7.320714906981993
Ag 8.047954600227836 4.203711948248928 4.839668192561726
Ag 6.472595324556813 2.066974656835277 5.99412771497902
Ag 6.1521909164484585 3.707501060693464 8.300012522383344
Ag 7.604229779413595 8.45444827637205 8.63566503892478
Ag 6.265309345933571 6.2196639826125635 9.758183936599025
Ag 8.046756388443411 8.938073105679083 3.52200205624006
Ag 4.775294960934582 7.2347146278608445 6.226373868850299
Ag 2.3305949169569287 7.72357089926519 7.56035370653292
Ag 3.7824894295516542 2.9310328420835856 6.9650426613260406
Ag 4.745729656275573 8.341372848359631 8.862863251185503
Ag 6.681341003574752 9.347457453786467 5.993296431643153
Ag 6.827761977911255 6.710510193703395 4.428287928255939
Ag 6.030437089085033 10.803571853897669 8.23432149309618
Ag 5.018187207910213 8.903669195407781 3.822215485584537
Ag 5.359364833140989 4.5515566088276715 5.484325761646704
Ag 3.99913789286168 5.5007940514757925 8.329745139062727
Ag 3.903716848164724 9.917001655063663 6.558655344641745
Ag 2.595560482594234 5.392454322576436 5.843494777060671
Ag 4.177950943650713 6.227589148127078 3.556669547082388
Ag 2.481932342746922 8.100655822639864 4.785036782593651
