30
Energy = -62.51834045 eV
Ag 9.209473870851566 4.036297793773317 4.419076542228913
Ag 7.1355037938860315 2.797122898915859 6.267345103702071
Ag 9.683632160306935 6.401246059475596 2.871031373936487
Ag 9.823836324929841 3.7152262051336713 7.138862975424883
Ag 7.120591561344934 5.633124331472225 3.6139334111982833
Ag 10.129436057405133 6.527084372723394 5.649879972198866
Ag 5.04501494679444 3.6476961767390788 7.932644972619375
Ag 7.439217305229443 7.766760248645793 1.8862088166170685
Ag 7.687165802974576 3.602810539243175 8.933920422444185
Ag 5.088892644283067 5.051194966833818 5.4577154411941295
Ag 8.664823350486301 8.564248449805492 4.338934414923525
Ag 7.723845727615953 5.432430658621313 6.422581713617711
Ag 9.253329818839957 5.977912179817469 8.773509798116951
Ag 4.91967272009421 7.073110463715799 2.960337489174322
Ag 6.173101422283776 7.628141201980557 5.709854599101902
Ag 2.758586197357115 5.049920346170089 6.982969425528842
Ag 8.567122242195946 8.258799110816838 7.219830618895405
Ag 6.113729313005633 9.645636844626832 3.5188542932043814
Ag 6.3269829467230805 6.20213726570403 8.639369319732536
Ag 3.1490898770025604 7.131214717947277 5.068496394171455
Ag 7.570526033802181 5.671926501042602 11.090972068299703
Ag 3.351910429820031 9.355849229919437 3.313653641556166
Ag 5.568929028168294 3.7743756323286646 10.709304398533474
Ag 7.188668215334645 10.33972985639923 5.967036846988828
Ag 3.9727641297980902 7.4783897042778795 7.722122670468711
Ag 7.973762684149255 8.189953027061334 9.990359546398683
Ag 4.397336993251772 9.724041575715574 5.862382976831937
Ag 3.679050125418638 5.440580103375267 9.614567693310752
Ag 6.049661144955341 9.212326399586411 8.261761937171439
Ag 5.2365617245257186 7.643905922886108 10.648163711380976
