33
Energy = -69.22742998 eV
Ag 8.017302525402778 9.053577009067721 9.479360790512212
Ag 8.295214729743751 10.297699723564431 6.900169964837692
Ag 7.044829994833073 4.378133598267143 10.398950044782438
Ag 3.0111981865164448 10.154600803175938 7.905099328204759
Ag 4.088912852082889 8.732042198562207 5.663919619805984
Ag 8.209495068171051 2.848606557908842 8.283772654979762
Ag 3.4220133604137937 2.7528208736824684 7.654374698130234
Ag 10.420338927586224 6.064791029595594 5.182206745054588
Ag 6.61293486037587 9.637561407350317 4.754357555558646
Ag 5.679659315155425 2.2027328181555506 9.207163694421817
Ag 5.50735585379849 10.915122573272534 6.969380132141124
Ag 8.546523855497 3.8414267831002813 5.703986556058556
Ag 7.3345861957261045 5.545856168966117 7.723936212883009
Ag 6.314341970425261 4.465376978096602 4.010965073973266
Ag 9.956291102172004 7.094698129464814 2.5827524076925052
Ag 7.3131329528066455 6.106421024164873 1.9609349068731874
Ag 9.314060149182295 7.645441149597561 7.297115961377053
Ag 8.897886505383996 6.434896212261031 9.914052693072762
Ag 10.091071695805404 4.930769562017645 7.772881842880004
Ag 9.18935697965819 4.505623759114454 3.150049137787702
Ag 9.46945444335915 8.887916725941983 4.723185451496346
Ag 7.671048387852426 6.712955784033936 4.972612517206318
Ag 5.905422212968994 3.291514846591358 6.557118768988379
Ag 7.761547123392545 8.762131065680153 2.454613799070367
Ag 4.9890169487087785 5.997662206500799 6.053300321963143
Ag 5.356927554085727 7.356812120703206 3.5419659319527454
Ag 6.153266273198715 7.036327138966635 10.079850269581735
Ag 4.736839970202476 4.857380869956187 8.884294895568605
Ag 6.451133539686769 8.199841541676522 7.274387387698913
Ag 5.276038770089835 9.660954804386405 9.527006622400915
Ag 2.529147306433147 5.348120550889085 7.241799363267198
Ag 3.8599315424755707 7.499482376577557 8.441617750145587
Ag 1.6848102454549945 7.954192283268012 6.796653702876615
