31
Energy = -64.87521705 eV
Ag 6.724531942770461 5.250511457109316 2.3998905719187267
Ag 8.945245430657032 7.058626967467655 2.513419434234142
Ag 6.257656023685163 3.4511769343541188 4.522507956576516
Ag 8.284004947979685 5.476308852779874 4.743251553934403
Ag 8.615769055270345 9.524570996530317 3.9089352800929227
Ag 6.493952607667671 7.726670077041313 3.652389762873352
Ag 4.470470675225958 5.771494932164812 4.098352409088803
Ag 10.243454960814704 7.487737103169031 4.987158433669181
Ag 7.927817534283391 3.5911881252551128 6.920630862979516
Ag 3.6232982308045045 3.5817909193354494 5.578453571523135
Ag 7.449798344826789 7.8736098445566896 6.4374438881234335
Ag 5.585812473090886 2.0655630811124213 6.856449250099429
Ag 10.758579225525171 10.281283081351926 5.41557111506559
Ag 6.14474991394749 10.304017694234709 4.808728207045313
Ag 5.919452765955636 5.511568843887125 6.484726716342141
Ag 9.558466115743036 5.9024429933005775 7.192406329132508
Ag 6.4755338915538765 2.9103575733550153 9.353433512358862
Ag 8.242096969898995 10.635661816574645 6.648550994832041
Ag 10.14029348747568 8.643925448641028 7.539151078611976
Ag 4.162478260961192 4.059499416152347 8.323430234018906
Ag 4.66198144574975 8.106294360600923 5.697169155628767
Ag 3.0403433184482713 6.065533837436839 6.6710143428800235
Ag 5.3952823690060825 7.356299645679439 8.647283615358925
Ag 7.48004750703436 5.448571313440999 8.988505302049079
Ag 9.566068350576504 7.091544972223737 9.762157420345709
Ag 7.754706779392238 9.074692108166277 9.015065526594524
Ag 3.065691395788492 8.658718977786329 7.895224688726756
Ag 2.90730853197576 6.296792857926828 9.466876692704815
Ag 5.58573722501898 10.040982402094842 7.536088675306283
Ag 7.011733414974007 7.285333319787671 11.050338721274128
Ag 5.214433737696185 5.1761402215829815 10.648319768579734
