31
Energy = -64.22286401 eV
Ag 9.636582975926887 5.598364979341923 4.168814021412206
Ag 8.60460993882493 3.1922695251076294 5.1945974811974125
Ag 7.075937982333907 4.934082171990221 3.3797798888417803
Ag 6.008345060885944 2.6108752379315434 4.593472326081064
Ag 7.968977309415514 7.645916799411105 3.3290155092670797
Ag 8.37561280062361 7.329022571305844 6.138847788517807
Ag 5.266388963137482 7.236241336138583 3.0762476905089855
Ag 9.915116706274908 5.03658486759517 6.862379366240932
Ag 9.435136679153729 2.4491109270548135 7.80663267553319
Ag 4.500869089506025 4.997610748789505 4.511396258341012
Ag 3.5155114425246277 9.035103676620208 4.29992421795004
Ag 6.697586593649401 2.479738518862186 7.388885724535831
Ag 6.659202386611548 5.076217454913192 6.3311309118299866
Ag 8.912122415198372 9.840314601623689 4.869703056332781
Ag 6.195537089588295 9.660875119395056 4.319324932280319
Ag 4.102182822998595 3.0775070035247976 6.595930170368748
Ag 7.88018607158922 4.528382570319571 8.94159108653031
Ag 10.55161126834253 4.415204082505589 9.521959131572377
Ag 5.2727897416478955 7.5429186148106835 5.955478391332157
Ag 3.3040202497167788 5.697983014281064 6.950583636633576
Ag 9.865143639024705 9.41847629323874 7.442501869135279
Ag 9.467391460943071 6.92775613716871 8.871184627048237
Ag 7.1426793108258515 9.83589369131382 7.002029290620359
Ag 2.5785109238442074 8.360577375457297 6.84715240460758
Ag 4.441878832123068 10.411789420322032 6.612743892030235
Ag 5.131793318042885 4.6633356444480745 8.775715807189846
Ag 6.621847065715519 7.0948475599804 8.467460474732503
Ag 3.8680759287387723 7.333407129277968 9.153310959616988
Ag 8.105337848600467 9.265739506614272 9.589595932747516
Ag 5.431391090393457 9.679829513577443 9.179980708396236
Ag 2.7771698468227797 10.0352067779407 9.00334887674326
