37
Energy = -78.62601079 eV
Ag 9.505028480714344 2.16152437858987 6.010704260087077
Ag 8.930607712639388 5.712524229395392 2.125750444025015
Ag 8.208019380928679 3.898102958610312 4.139479960903467
Ag 7.150238000112081 3.3127333971196755 6.7075518672276315
Ag 6.254121632723106 5.629297054096181 2.880933492330133
Ag 9.832070001953056 4.866142059635594 6.360115225085377
Ag 9.020379846277901 3.4670865412377863 8.709578178769362
Ag 5.23206704227864 3.951761676216504 4.804372024828965
Ag 9.654881600437344 7.019752596794769 4.425098861087815
Ag 4.520393074370698 2.4246689616287598 7.055816749056921
Ag 7.576377107926269 8.116087122388825 2.776193989578254
Ag 3.505243870182892 5.894903900630952 3.7474636798148757
Ag 3.414625416919976 3.559310564427775 9.276713418641267
Ag 4.853330080388389 7.9105022071723265 2.000311772779029
Ag 2.725247197450958 4.43031052567475 6.114223483044848
Ag 7.236029832058397 6.008804467257833 5.677151729474418
Ag 11.642187736278126 7.006114387926937 6.402237928366409
Ag 5.348349114517167 7.782211021849662 4.666555688784458
Ag 8.006886098252968 9.263912160485052 5.267803426530995
Ag 6.21619192580733 3.4322170316495035 9.349199190166484
Ag 10.41735803200138 5.929324139664068 8.939427015195987
Ag 5.071006428351917 5.274622260587499 7.415624836604962
Ag 2.432187221219088 5.994048398451831 8.56150568611651
Ag 7.550140164902966 5.9190443932122525 9.003300033704303
Ag 9.141498608936098 7.623979326596524 7.173429176664415
Ag 3.1014207023345666 7.285059641664621 6.210202618126354
Ag 5.894673298564774 10.285940514078519 3.6914546128587467
Ag 6.6089685668851175 11.481726667906324 6.16306041468532
Ag 6.3429478203482015 8.034038169130133 7.4130517679754915
Ag 4.867382045826663 5.913467862258969 10.12977109872794
Ag 9.100456951036723 8.2599688214003 9.896290751950762
Ag 3.910125527255662 8.318292126879944 8.75615387201903
Ag 4.386953298868034 9.808477940561852 6.298525547005137
Ag 8.369110335428873 10.191726835069431 7.947905313320625
Ag 6.3330907213733125 8.270130076616276 10.28617198662001
Ag 5.699065336443374 10.56405965242461 8.74094945563293
Ag 7.799688184387938 10.644561052293032 10.636779493835315
