35
Energy = -72.68522085 eV
Ag 8.195460286090288 12.088131018630545 5.198301304984618
Ag 9.501110821409492 10.31139309134719 6.893763228666374
Ag 5.923427648057646 10.786829387950933 4.255934452341224
Ag 8.348880578156631 9.411279829365357 4.453044545740274
Ag 6.725534842530531 10.361069190101365 6.923870759213824
Ag 10.74753522041728 8.480598328366195 8.519731109790307
Ag 10.076567684802134 7.7495351694512715 5.912082369408283
Ag 6.2197518615933705 8.192748121152931 3.0999048874833317
Ag 4.186288105343275 9.549847472709711 6.128869093762874
Ag 8.009595827568322 8.793372285852799 8.849727157745695
Ag 8.435914162727222 6.6680307705186 3.878908541635138
Ag 3.712505210721915 9.37951252584619 3.4152070972946844
Ag 5.2857925027715265 8.557163602038711 8.532574259389442
Ag 10.280916502894502 5.096952884593201 5.220897781197877
Ag 3.7996768917102512 6.788591174688048 2.5654345916211594
Ag 10.295908971868496 5.7528586891183275 7.945513667713062
Ag 9.41932377910643 6.917884577508638 10.374638887502874
Ag 2.597023787955043 7.428817335506007 5.055374956051944
Ag 2.6489780559418694 8.005905492515138 7.811917679476656
Ag 8.971227887019316 3.4539318601534865 7.014493932999099
Ag 8.482832089238968 4.433292860818396 9.60357214525808
Ag 6.67567738463126 6.56751371807188 10.006274736458765
Ag 7.882917804657828 3.946650695009732 4.463332592055762
Ag 3.9584774308537494 4.158898025111892 1.7547730304666687
Ag 6.260210278465127 5.422159988256046 2.7126854380720564
Ag 4.053847902160038 6.126934473549414 9.281391527265596
Ag 3.0168676331777005 4.7154111104085406 4.309290644612997
Ag 2.6354737958489594 5.375133113051179 6.953355588587317
Ag 7.560107969297482 1.9491033916403135 8.831877554049397
Ag 5.755005980595579 3.912633349962149 9.662754461994046
Ag 6.557559701091832 2.156688285695592 6.232352135932993
Ag 5.29710363254673 3.0822368791145913 3.943667538963797
Ag 3.8475733058860295 2.912957453661645 6.299222211063358
Ag 3.140744363286102 3.488904442193867 8.921853390512037
Ag 4.909891145912547 1.3952303447356615 8.38099201555889
