30
Energy = -61.54082919 eV
Ag 10.473836495072888 7.585817855011167 7.797683432360277
Ag 8.185305925066093 8.558793160570357 9.11770909677161
Ag 5.738131686859989 9.50270153853221 10.048900634852345
Ag 8.612304551085574 5.828996840448579 8.876427367514625
Ag 6.472777847794427 6.815141656315906 10.483430989996572
Ag 9.024927972286392 9.63204365878855 6.6729836779257585
Ag 9.794133374933446 5.275752157956784 6.364334735630862
Ag 10.294972642217173 7.672536737602449 5.011895324261237
Ag 6.338115081621799 9.962138596635356 7.384165662656718
Ag 3.8171001482773383 7.696665636703338 10.755675127444688
Ag 7.915952141808591 3.5317887278340994 7.513774454732592
Ag 6.821046269242716 4.092623334583483 10.017557803582992
Ag 9.814606132937183 10.302176668181463 4.112077355110411
Ag 8.87911842881353 3.07965103820529 4.929270841625979
Ag 4.284016815551214 5.125350547231163 9.784341264364398
Ag 7.130932498636432 10.024897982817693 4.695588990437197
Ag 9.097013157157416 5.552516861681956 3.633525214950273
Ag 8.527079333997857 8.222773170000224 2.8832986704267953
Ag 5.1821119360358585 3.0010274491304374 8.059301380869
Ag 6.395973171815314 2.0232194155938408 5.693666171878551
Ag 2.1327676255294823 6.709426724858424 8.798753707958806
Ag 3.892905731098268 8.738956155973936 8.069290975149245
Ag 6.6196761177221735 4.13315968539951 3.8031334488184436
Ag 4.639296446636274 8.895726542755389 5.3554410644238475
Ag 5.7558486060391365 8.711930433342577 2.737241930843666
Ag 2.6879421903939766 4.236162293657213 7.664009040758453
Ag 6.879236057674962 6.211318842457083 2.0247450145650108
Ag 4.500119184714116 4.143529530921881 5.596715056661041
Ag 3.3774959361686507 6.61442665243193 6.331097964487584
Ag 4.982817619547511 6.385365715072084 4.052514139212051
