36
Energy = -76.81081481 eV
Ag 7.263903203789061 5.104318741550516 6.048633756135177
Ag 7.301151873210463 2.3983081010662213 6.673182769311583
Ag 7.355818566301045 6.352375199267834 8.552016265657505
Ag 7.871025768224233 6.152234100512245 3.5070449920580673
Ag 9.263693202077002 3.616577082680081 4.890164876269758
Ag 10.541431114423848 5.410908195047034 3.1806904274176055
Ag 8.57195397225761 7.407719317650299 10.958409194028583
Ag 10.227034824568777 8.932494399616383 6.591484863632577
Ag 5.173820664140955 2.319394656457925 4.86779599471341
Ag 10.132701203820764 8.047544394084456 3.824432073443958
Ag 4.85204847562207 3.8678902880481174 7.1256143853325975
Ag 4.584182312463132 5.6063127091991865 9.32223305923827
Ag 7.6980409262766845 8.84897150835088 2.7474845049772942
Ag 5.847844025831753 8.101103619983483 10.114978260982243
Ag 9.200611577088699 10.554313162290285 4.365698043012971
Ag 5.472915174596473 7.704037183378471 3.8272105859486194
Ag 5.256991299698499 4.986776526216616 4.0804529980185
Ag 7.680993983662533 7.956992830235043 6.012327635685366
Ag 3.0085335696072586 6.654339586401168 4.597132018390296
Ag 2.8542904274127823 3.894656648816141 5.082376713624157
Ag 0.6003361354235812 5.5578084354803785 5.460263051962563
Ag 8.159701554025425 10.931441633264503 6.856025805075235
Ag 6.34109059146611 10.200510560513548 4.829853053867127
Ag 9.349027284743553 4.06790149585378 7.714318179768948
Ag 3.8597221123834062 9.132223967531878 5.6664375037054615
Ag 10.03492533473518 6.14473402954317 5.86424048355887
Ag 5.135295741875614 6.778047536807325 6.665716042048937
Ag 1.4577915570244115 7.98532522388142 6.604815561858613
Ag 2.606156937925464 5.590718549228436 7.392002247094211
Ag 10.121846427859559 6.83486217989415 8.56665047171267
Ag 5.8318991187201075 9.517929262955423 7.661894611528843
Ag 6.505576551819331 5.521849682134279 11.267129131799942
Ag 3.483533370950093 8.144420765096054 8.53923400958507
Ag 6.8124317191271 3.612289861758073 9.16363892742115
Ag 9.103965106845441 4.7561860391286945 10.346067825016943
Ag 8.369886550840324 9.089240453300077 8.833396856297357
