35
Energy = -74.27486445 eV
Ag 7.269928033078364 3.5051052117007817 9.563443242158781
Ag 9.739576343188004 4.707971561478323 8.922458029577147
Ag 5.121853080110498 5.029238746669829 10.59147961748038
Ag 7.638633147503149 6.2049523943392035 10.179622280268395
Ag 10.000483002167924 7.474357156118639 9.39511967286466
Ag 7.2212834726720505 2.43476245357861 6.955638954426953
Ag 3.1271579512397096 8.283935241706434 9.149815674071533
Ag 5.506646710724059 9.641358128635165 8.544428843228017
Ag 9.683197495561735 3.671748688605719 6.30804203431655
Ag 7.7030916902384305 8.978431217283909 10.190184227064014
Ag 4.945377738712884 3.88611642336408 7.99544239630104
Ag 7.493527104427884 5.223691779990613 7.252116113921583
Ag 10.142799480325086 6.483756985916555 6.716209088432442
Ag 2.8746747756771436 5.478103184836476 8.974489320169528
Ag 5.355956414398503 6.7964656127814465 8.428209661453149
Ag 7.770492588703328 8.02406430324267 7.610714910239491
Ag 10.305828822320988 9.260261055560024 7.234623312655195
Ag 2.7766525230394046 4.622147503384069 6.255759606631534
Ag 4.953691135845337 2.9311142341349834 5.383951813197761
Ag 8.008529202692104 10.806026967801078 8.003099682964713
Ag 1.64549567825576 7.095027925529582 7.083818642462252
Ag 5.218526241102443 5.855729015811885 5.6433985522054355
Ag 3.9107559614713265 8.67452252394217 6.458090887942197
Ag 7.4289030420832685 3.9943737146767937 4.55075855164922
Ag 7.652117816948656 7.048737946674422 4.988869842526711
Ag 9.827150331540652 5.406874432889367 4.1261729795859425
Ag 6.303191128952532 10.03133607596678 5.847213712020278
Ag 10.061887844181955 8.374967465373699 4.547498513602499
Ag 8.965631594031693 10.866561602872142 5.389691484675763
Ag 3.836075690331212 4.618369706835782 3.5152147936824907
Ag 2.7703466492595714 6.9551686837749545 4.555674264394503
Ag 6.221154750144156 5.8842584048531865 2.856125278858059
Ag 8.657576070510999 7.150070377508877 2.348379766942302
Ag 5.152434301957134 8.2815605665208 3.9577013153669065
Ag 7.621212453787481 9.484804818779661 3.419379129873522
