37
Energy = -78.76150584 eV
Ag 5.821219648222701 5.9967497586224905 10.963038805866644
Ag 4.776206925361754 5.12756982688954 8.639841220860106
Ag 3.5016189805175513 4.088909225365535 6.390399998069388
Ag 4.851046165547671 2.194068827669669 4.796350850426912
Ag 6.155680523958332 3.244184889851825 7.071438972026806
Ag 7.569120735855852 4.466514614687238 9.275217295423879
Ag 7.509243030599031 1.464558975947634 5.314296162511696
Ag 8.542124681047827 6.382600904006595 11.145096241312602
Ag 4.5606712712697375 7.989848828945778 9.340235750712477
Ag 3.1095033828812433 6.823679601035455 7.135297710080158
Ag 6.614259122890764 8.610959155006825 11.239988673860882
Ag 1.7891311464823327 5.733482108452871 4.854978912465375
Ag 8.866820356398527 2.6666208805002976 7.520146910126034
Ag 7.144712353081593 7.191182441854083 8.459429898257195
Ag 5.6743816021483395 5.970820137163092 6.007836023902993
Ag 4.25653744766581 4.788781531437992 3.7489559194560247
Ag 2.8976607940957497 9.562098385137096 7.684236153478701
Ag 1.5189481032080143 8.442715723829972 5.443334038780927
Ag 3.6613290796239255 10.226738639631852 5.015238633721267
Ag 9.147625475279668 8.889067391351526 10.213605844420988
Ag 8.335932700470657 5.2743574654654095 6.5828114821017785
Ag 6.926236519403334 3.9965200605624154 4.171673526539792
Ag 3.902096439293149 7.53308001930545 4.247513556874692
Ag 5.366514183444519 8.779375437666166 6.689425727137688
Ag 9.910565024808307 6.564502643119642 8.688212109564343
Ag 9.562855947230076 3.326901278959988 4.811530666929754
Ag 6.86397803890767 9.983873729164205 8.789651635897547
Ag 7.790609503525914 7.841964974028902 5.4956610921998
Ag 6.335804859855477 6.573503856517353 3.1523916791879163
Ag 10.954030897921806 4.575186740966303 6.97616678871016
Ag 9.360718944165237 9.196877751840265 7.524163526691143
Ag 9.058691214389102 5.853453694354738 3.7685863150287338
Ag 6.042506433377112 9.357826782415577 3.8549489210850143
Ag 10.527035404656646 7.148862659553178 5.915312296985238
Ag 7.414236304166667 10.642282906380073 6.0503093791051015
Ag 8.417814333039153 8.360378629581064 2.7383444270281814
Ag 9.8253738266808 9.66959850009677 4.842405942263115
