34
Energy = -72.02838425 eV
Ag 7.887172279568302 11.75131205083465 6.969123517758744
Ag 8.70770905329114 9.676772701357802 5.076626302806321
Ag 6.2760066489272335 11.056403177272339 4.793812684522416
Ag 8.984256330047678 7.195403389492005 3.637203597260198
Ag 6.5012069346134025 8.548813840244923 3.6590024045936076
Ag 7.11776952531866 9.984082041142559 9.273553853309108
Ag 9.393269373306056 7.314020093841519 6.403069073470749
Ag 6.6902655392597445 6.016490645267258 2.437099922016536
Ag 9.152159855958658 4.622101721915762 2.3925420361297367
Ag 5.284970237915193 11.008507159049165 7.416078212155167
Ag 4.406595449366393 9.048102308968 5.546922430534902
Ag 6.7616170880199515 8.38422503872849 7.014677442289626
Ag 9.538476325845698 9.757481256483883 7.782234631733934
Ag 8.601120507557775 7.508513174606927 9.161574664747937
Ag 6.7904952044719975 3.49693673788815 1.3262735907989482
Ag 4.4027343506743755 6.742931912907286 3.9115349861288276
Ag 6.893868771696973 6.079240829314098 5.379527968847987
Ag 7.697008447476379 3.248366999054347 6.817981369359998
Ag 7.268703835777359 3.3655380246550273 4.06117262698061
Ag 4.687483004275222 4.059678262254826 3.084636920373292
Ag 9.515869476292663 5.041095140612281 7.967923503794599
Ag 4.259042639447061 6.48229857152308 6.713796583655331
Ag 6.097400799609101 7.554193536564826 10.358241596071707
Ag 2.7141996708480116 4.768496459576938 4.993568946312454
Ag 4.316148362671942 8.679840144451902 8.497850290899924
Ag 6.673687689280856 5.668479921075398 8.21427905355517
Ag 9.464362090948667 4.749628223165884 5.1522243973699355
Ag 5.126689333727564 3.794638528260126 5.882607536255135
Ag 3.8402169345000035 6.119052005254487 9.485788039487788
Ag 7.959262551799561 3.4480239892746236 9.614074149446823
Ag 2.9653482767120294 4.104761137046211 7.705244882783561
Ag 5.878788628925345 4.773381421215506 10.893695664230023
Ag 5.424742958493677 3.0596110603928146 8.618248847543132
Ag 3.3928643350803034 3.5433202177839127 10.419231787999003
