38
Energy = -80.58551325 eV
Ag 10.16384185284382 8.683121819754017 8.629590393709796
Ag 7.935609839798003 7.533766424364219 9.918457902952175
Ag 10.165823847484242 5.966699979779027 9.05526610396988
Ag 7.925579699903461 10.416946576946742 8.608157547358518
Ag 5.689205935158988 9.118593334116968 9.731107801848768
Ag 9.632614527887304 10.136038065106787 6.288104578822769
Ag 3.5837900078218077 10.835349489426601 9.146609580045226
Ag 7.609560200028798 4.798038355669201 9.348659642636923
Ag 5.323977018713906 6.352956755152592 9.822742988141506
Ag 5.4737018365818955 10.275575504999358 7.149478692798415
Ag 10.401796059891284 6.978499828254336 6.355175102888972
Ag 7.884260483135015 8.183928054820669 7.052808400713884
Ag 9.866656723976563 3.225265993362505 9.461373090343466
Ag 7.0952710685077305 10.099280816694032 4.935542226831355
Ag 3.2635219986059045 8.042679408694138 8.78035752359687
Ag 5.104394011368744 3.614466679351424 9.3567399286051
Ag 9.09595642849868 8.375284489846685 4.2033358099650515
Ag 5.333792975801222 7.278328952288698 7.074406461751787
Ag 2.72708788970089 9.843440545454172 6.6897766089710675
Ag 9.28923007737711 4.271367391396906 7.023399955262682
Ag 7.508542553092466 5.942165621840494 5.4909815743424915
Ag 3.359750368148257 5.326942871087929 8.009899298697617
Ag 11.421135637065207 7.093762719787742 3.62653531565676
Ag 4.517271152250711 9.052925361340112 4.7454347562503205
Ag 2.720989161900859 7.133450801123901 5.928579938088814
Ag 10.455154689723607 4.763060898134336 4.630411317322623
Ag 6.626476334970254 3.3975961504194867 7.011828634937589
Ag 4.754276850072589 5.049065684784606 5.496838687653864
Ag 6.512362570649306 7.732477586014087 3.3452591278107393
Ag 8.726874944248467 5.968591588766703 2.8455533351712297
Ag 3.8760116293281777 2.715150253060608 6.986858274190083
Ag 8.04081297321805 3.3986844437390435 4.54907120270798
Ag 2.040585493785855 4.406069216079106 5.583701284848061
Ag 3.8871046277271812 6.713158525624386 3.3563816264387216
Ag 6.142915316127337 4.909068968311784 3.042828162350145
Ag 5.417827870023191 2.4394964257454412 4.589218496128217
Ag 2.676719086116617 1.7233618115057325 4.679177615492044
Ag 3.480132889181608 3.935959237869929 3.180967641412696
