38
Energy = -81.04848772 eV
Ag 11.520396584431115 10.53582523547377 5.491123397205395
Ag 10.085092705549684 8.554725033699423 4.001024279514217
Ag 10.636092706468148 8.1979017820516 6.738185196616485
Ag 9.34393173087137 6.151820706084637 5.153594199178542
Ag 8.403458792020551 6.680350622172347 2.560846672683854
Ag 10.516741937025708 10.689840540766438 8.118326430312461
Ag 8.78718492726646 10.242969463590693 5.916321977246357
Ag 9.74721165027947 5.873617191391991 7.938656895422469
Ag 6.682495416505061 4.863467335358519 1.2058932115858088
Ag 8.006830798255224 4.102429552857558 3.553398045643747
Ag 7.2720441503606565 8.582650071916538 4.222062303685159
Ag 7.699315066983412 7.750211304035215 7.039750992047555
Ag 9.32868807909284 8.424581117502509 9.281935089807597
Ag 8.73637861409801 3.622196308419643 6.27515557081515
Ag 8.90482114300807 3.5577551301419037 9.212985097676437
Ag 4.943291646397196 4.418907111546196 3.324806223430809
Ag 5.572469957764431 7.047504308625511 2.5879382829704265
Ag 7.643332367034989 10.533669176500236 8.49571362087369
Ag 5.993299584293123 10.014524621142945 6.235308069266083
Ag 6.931973023404426 5.036698272173667 7.991070468886542
Ag 4.539157275343413 9.269700679177193 3.987317665748722
Ag 6.457067223366203 5.82512228816803 5.240222404264215
Ag 6.887495762301754 2.1343419227638134 7.870123286260071
Ag 6.4814223274052285 8.298232035509768 9.674368836493025
Ag 6.229007412929696 2.81972275300023 5.256425705259192
Ag 5.01743268168513 6.919591298044229 7.430960063358409
Ag 8.188657885466034 6.07820844820166 10.30957907424191
Ag 3.6867203139776152 6.782196374325579 4.6901145659785435
Ag 5.3682250945791745 5.862129431246824 10.274651158667073
Ag 4.8123833621279966 10.29505602582873 8.692916246812635
Ag 3.9895533122116977 4.381800944287086 5.982376784599577
Ag 4.688612437082671 3.5359514514613526 8.961503514526465
Ag 3.3488181258600904 8.988755682682983 6.568631302778202
Ag 3.3921844338042892 8.03529089003115 9.377327430057978
Ag 2.2621251494084516 6.3786628787889414 7.132822422545405
Ag 4.224503713833138 1.7700905966058682 6.90132383682406
Ag 2.726005842701714 5.37620962443775 9.693285024331468
Ag 2.069952798576699 3.4916678237581316 7.73633068615569
