30
Energy = -62.57066391 eV
Ag 5.747781285246251 2.7159198263164694 3.6152606353805203
Ag 7.978040514697541 4.353393140827157 3.0886363785638027
Ag 4.125471448912084 5.260466522424638 3.361930551667018
Ag 6.790488270733421 6.887532459026111 2.886225008008217
Ag 6.255262421513716 2.4112275463094353 6.412673244158582
Ag 8.737076836284295 3.6904184496495507 5.644200241373191
Ag 3.7749405336652453 3.410147213176583 5.461576496405733
Ag 7.5607678746501925 9.031581723662987 4.663744301230776
Ag 3.663579605062761 6.102044078929714 6.2745706427157755
Ag 6.146026480556283 5.020715744344309 5.132668657261161
Ag 4.698694701219134 7.878450581977192 4.413860636227306
Ag 6.4979810594645135 2.3825110584596243 9.179135737294526
Ag 5.939839803835552 9.538454218313206 2.5199510303236807
Ag 4.427922175152233 4.047240897639738 8.079346258213736
Ag 7.126731089845704 4.80869224478512 7.77658962031252
Ag 5.17592061731831 10.590272950926408 5.03927921781365
Ag 3.9040906854948103 8.864126073651082 6.997711095890074
Ag 9.088661607854526 2.8647572665587244 8.195491512099771
Ag 6.022649490405133 4.9145295897709325 10.297666460450463
Ag 4.600823155439494 6.8086098706078815 8.855762660629194
Ag 8.577747497030717 6.431098455873578 5.072781999463006
Ag 6.3409561774975485 7.386050354845533 6.71089642578053
Ag 5.71998013700351 9.37805751508196 9.063638075664707
Ag 7.5637089774236035 7.176067782017151 9.286223150482085
Ag 9.749183310886131 5.656758395733851 7.58743283309697
Ag 9.013194809556975 8.439949422841416 6.985963997327956
Ag 7.195152284881356 10.593917098251158 6.97318092708479
Ag 4.62548218936967 11.490852766671296 7.6221453688955405
Ag 8.485716533663249 9.900062472600561 9.339838915633852
Ag 10.323467620270176 7.7830116206334905 9.300708687793467
