37
Energy = -79.07377842 eV
Ag 4.495020121608157 1.4255675382895978 4.576112327868033
Ag 4.553340279214079 4.078758850646217 3.822651562659197
Ag 4.410910398746611 6.711161042904251 2.8502132022985687
Ag 7.018534400787358 2.67246885064595 3.7218905266701174
Ag 4.066107500379981 3.3739229032677587 6.6195853355784
Ag 3.1931784999953976 6.023454826909986 5.263425456822463
Ag 6.940084533616203 5.495933852786975 3.0858520054957275
Ag 6.516045297474264 1.7095716520864057 6.412948804217993
Ag 6.351559387806999 10.92023958141894 3.9895239785032914
Ag 2.2372066045249412 5.623284651498437 7.841956602412675
Ag 4.186858912953767 9.082714582523025 4.401934230050407
Ag 9.16097190624596 4.487140641685958 4.483807070092995
Ag 6.670947282650105 8.368529431115839 2.8732686416420576
Ag 6.673258185280122 4.426409870803616 5.805961603286884
Ag 4.003349844334305 4.207745052468951 9.557398453665286
Ag 9.055121770028396 7.209501673059662 3.8454150703934324
Ag 8.895759858281822 3.1538111007354064 6.997342556133401
Ag 5.897051882605777 7.093470416902672 5.306140946431157
Ag 10.759245869461274 5.227188557970476 6.639810968780464
Ag 8.354534218260275 6.598000632103131 6.681453298551391
Ag 5.038124357354036 5.775769496051051 7.577141440127272
Ag 8.954152904050721 9.953965284566351 3.1732458151735656
Ag 6.550146341636355 3.5063777760436765 8.556567304579305
Ag 3.4807374814205354 8.189517948352606 7.003719481039738
Ag 7.866448019244408 9.230332928775756 5.581263542869503
Ag 8.89771635662405 5.046215111725613 9.088067232035366
Ag 10.621758066501174 8.133670469890722 5.934029210805912
Ag 5.393235303823273 10.372685241223039 6.597212203824028
Ag 6.392910868546066 8.13306226842957 8.042540336015442
Ag 10.745197280302612 7.154471697761796 8.62903759156862
Ag 3.7727449715581334 7.11372247238281 9.714886784857352
Ag 6.336150203700021 5.783152511852199 10.190984866952775
Ag 9.123498886648672 9.292435940350465 8.003917678743596
Ag 4.193010633076848 9.851845950410656 9.111907936254418
Ag 8.424714877463392 7.636945407112044 10.147191723363532
Ag 5.895188390014828 8.496711571223967 10.901650877328644
Ag 6.932204164837059 10.550628643117811 9.124696634882321
