33
Energy = -69.41326494 eV
Ag 10.585213729052606 6.358736349080179 8.468654037991712
Ag 10.116842766522922 3.829503483735211 7.054412689386216
Ag 9.302148808964624 8.07423382803931 6.5928520055438
Ag 9.640323776229513 4.168017627653234 9.856001553655931
Ag 11.020333693016031 5.9566507239516495 5.6632089222987645
Ag 10.481450270712058 7.99497998838341 3.9062734469946148
Ag 10.010263986510203 10.48612762151909 5.149013388328525
Ag 8.307284555795507 6.689660571680316 10.177742049022848
Ag 9.69367282262561 8.91715731746064 9.239151066498279
Ag 8.07853989338088 2.4233863103174085 8.270115850734
Ag 7.867787482426402 5.5190438264874455 7.636413366051646
Ag 7.688683152581859 3.404199338552381 5.671126036350361
Ag 7.361178211376681 11.48735457685303 4.973618043163262
Ag 7.901401597611539 8.90363657499533 4.180147106803202
Ag 8.445141661949199 10.664906034914369 7.426721655434313
Ag 8.331011693145836 6.116493586587099 4.816294759339604
Ag 6.882883116853303 4.18015391724912 10.185028473149368
Ag 6.386991670328464 7.657936087798183 6.425373573672253
Ag 5.595094527184744 6.481186075882172 9.389384902672907
Ag 6.9098817641201835 8.886895231456107 8.956539933806377
Ag 6.909074510818892 4.437484639704676 3.1358718298823085
Ag 5.601050368909373 3.550370819782025 7.654082068197518
Ag 4.1973261517088485 8.527115914055544 8.156090682304697
Ag 5.225102087256689 9.661361224356217 4.368428686199861
Ag 5.669163754624248 10.575739956381002 7.015318189355904
Ag 2.7169405712031325 6.693150968401659 9.674287672713493
Ag 5.4611675469662115 5.107383634293624 5.379351846638794
Ag 5.921899602809103 7.091599560037495 3.4914584745140598
Ag 4.08490950965553 4.2181118857988045 9.898598837240865
Ag 3.7083849616941937 7.3785117953020825 5.2052185287848385
Ag 3.0210965100656395 9.96046239243541 6.086458518753447
Ag 3.5938460734612008 5.516966781126263 7.348366485489219
Ag 1.7240893476382948 7.659466596599851 7.177014930444663
