36
Energy = -74.9608856 eV
Ag 4.386619987276512 7.5532658812695495 11.299379044076215
Ag 7.2083160079606605 8.784622648933974 8.684802703580875
Ag 2.938612366510442 6.9898294232453715 6.638460559396881
Ag 3.4436582266855327 4.174500154390479 6.078055242462906
Ag 5.024143114713201 6.907331897370096 8.642524713942425
Ag 4.396967377157388 6.888108216438386 1.5080884138610093
Ag 10.185703584542846 6.480547358345106 6.395405023802427
Ag 6.034706404043682 5.421033505179058 3.1119226043864376
Ag 5.5265395577512635 6.156171795201321 5.938885284953974
Ag 7.044835924331194 6.770705976880487 10.671343401960115
Ag 9.704677217104605 9.17731156240992 7.496376363030577
Ag 7.628177544513204 4.110138044262419 9.786379222843792
Ag 9.409710803983275 5.34882201071451 11.492004860320646
Ag 11.913439088654853 7.493979703098837 8.268347481810624
Ag 11.722667202003207 8.694028026893333 5.664934031833321
Ag 6.046701460110076 3.478606643503186 5.21434182160077
Ag 2.920050437436258 5.020518363128803 8.726985198429189
Ag 5.314146782633747 8.113004796164969 3.810495878786444
Ag 4.583761566011163 9.579087311867683 9.233725047119306
Ag 9.836279169221543 7.494554199215643 3.8694145961889155
Ag 5.521028608303594 4.060282008360864 7.933865774551075
Ag 5.001478685104202 4.86006126002407 10.662283956475356
Ag 5.203250239492223 9.019961885796702 6.534075363939711
Ag 6.642149729927154 10.412718660868679 4.188513039879212
Ag 11.924728361864847 6.194465812380027 10.726783718470104
Ag 2.408008291887587 7.754409995819719 9.324144689604594
Ag 7.893278773842284 3.4124848508922145 3.0448139473561735
Ag 7.473018414697993 10.80662419750878 6.818619368812104
Ag 7.6525384684579985 8.080384704032308 5.580594002453497
Ag 8.190976729650144 5.352592425410636 4.929667227164801
Ag 9.546518476181173 7.631589955530304 9.829222194505066
Ag 7.717987072270366 6.055653417266213 7.750899758597064
Ag 10.178136613801675 5.095703671244036 8.799216747543747
Ag 3.410376482789473 6.028513785804672 3.9951972437822554
Ag 8.21701674585135 12.591414518621551 4.7590473851915895
Ag 9.48733805434905 10.18284004973511 4.854941062237364
