38
Energy = -81.183627 eV
Ag 6.706402254120355 3.5190326083107006 10.475419908274855
Ag 3.946845194779653 4.306768971195229 9.478511905155772
Ag 5.5643347601788715 2.1296533061500873 8.39679494970432
Ag 3.9876079238316997 7.040288942551369 8.652841815547632
Ag 6.098498802097721 6.270784544883421 10.423401300803347
Ag 8.298639828623157 3.0105034245761892 8.061068432383378
Ag 2.1017278492721827 5.359461050377691 7.483827657099125
Ag 8.108096845532225 7.89803868536367 9.180391129071678
Ag 5.63111079028794 8.98017734155861 9.747749203684654
Ag 4.048234005997866 3.5462081097856797 6.506288345670595
Ag 8.770880345930738 5.275294881675396 9.841560462387038
Ag 6.11780491301611 4.880375263818827 7.950976396842449
Ag 2.213979826944741 8.19594872866806 6.771636662900972
Ag 6.618863680540438 2.3896613574366214 5.844671856485626
Ag 4.532685892182515 9.700039037564215 7.225875358847316
Ag 4.062013524869378 6.332431893618314 5.704403461059544
Ag 6.25265937135198 7.516622423685212 6.843745529644706
Ag 1.660389435728353 7.513878887639725 4.1654953450433965
Ag 7.213872487188073 10.376834756352963 7.885798148512516
Ag 2.1469077515155433 4.735888726423756 4.6374417425572965
Ag 9.188823390772852 3.695897850591008 5.37830785507382
Ag 6.612021782323958 9.919914684669303 5.173566027142336
Ag 6.591501057296073 5.139178609025396 5.1851639744996705
Ag 9.985691849158611 10.065266308670703 8.389189052916613
Ag 8.755624726772348 8.432187992568377 6.450347888516797
Ag 8.635278829132634 5.721156919611826 7.139630851254878
Ag 4.034977027389468 8.927920501183396 4.559806829093763
Ag 7.420251228812405 3.1256153159874125 3.297979518088695
Ag 9.095595354876219 11.108439669755558 5.801181923503968
Ag 4.655219346510988 3.736930474316342 3.7438239158930906
Ag 10.672304514904269 7.267116171155763 8.18312599120658
Ag 3.873727869368342 6.439643492932087 2.8818508524410187
Ag 6.376231539378891 7.60858429780499 3.716426549947032
Ag 8.687874702938585 5.856072083931669 3.4323523904962303
Ag 8.985793248430538 8.706234837521208 3.785540237102676
Ag 11.288338413013038 9.200088629668873 5.969315718855847
Ag 6.259227051375862 5.348728012809348 2.0750886298590046
Ag 10.578489418487878 6.493425424137292 5.324639015503126
