34
Energy = -70.8704572 eV
Ag 10.961630132544807 6.323832274487136 7.237317486166454
Ag 4.740688588490302 10.217950881172412 6.350880203053578
Ag 7.532118685066977 9.993408007222314 11.784156819786729
Ag 6.535508622563178 12.408201307466763 7.088972789761109
Ag 6.00145085608971 8.320159032629109 4.755199244595369
Ag 8.144652693175818 6.895848225173069 7.434724494664579
Ag 5.8467631733952645 8.636381803508073 9.830086047660792
Ag 9.057285299534431 4.516439117356261 6.282316021390102
Ag 6.590962118213808 5.894647358224864 9.410276980609613
Ag 8.972955625230057 7.25693977849319 4.757492723005274
Ag 10.309728767345769 9.307134429790821 11.70920501301155
Ag 5.284654051752543 5.337358431977633 11.744846937381208
Ag 5.347054436695797 7.384293885310429 7.2978378097068894
Ag 9.74422694729519 10.01010030714236 4.531474129710383
Ag 7.927096664125302 4.53363184387112 11.491180140398034
Ag 12.120814424418942 5.399133986016244 9.623911518870523
Ag 7.2595162762456 9.570566584821844 7.336616202148742
Ag 7.1212843505219565 10.878417733583989 4.818517282156174
Ag 6.568148353618866 5.670629038789202 5.434316471184719
Ag 7.747374533586895 11.440355615852392 9.426727920214343
Ag 10.084393234805797 8.95722192385708 7.039671390444077
Ag 10.425526563805482 10.708122973500307 9.262416094834732
Ag 10.038561213256283 6.522685290722914 11.316815721790881
Ag 8.645853705874446 8.510034541404195 9.652495142368306
Ag 8.594868486801508 4.676548135263371 3.6066807446627522
Ag 3.396642274868561 9.051852303909232 8.480418448250324
Ag 10.604835998282166 3.799029974696714 11.305534001294415
Ag 9.332492407139155 4.893875748770524 9.055977903536451
Ag 11.475049298368473 8.067768391757072 9.446540885592688
Ag 7.322872734793194 7.2466663682956565 11.859236396673747
Ag 9.256273500170925 11.631628037691144 6.785570699981222
Ag 7.850592800145503 9.046640220626537 2.771538851477884
Ag 5.003642635898959 11.248970363285961 9.04628980663763
Ag 6.698998734279907 6.5169334484529475 2.7796171044107334
