33
Energy = -69.50751695 eV
Ag 5.3744242044881565 8.167777969813244 11.346014591307108
Ag 3.0264642073562347 9.338835416263873 10.419030200560835
Ag 7.64981890166784 7.97947286994522 9.707309836232174
Ag 9.898879512197174 7.673001022999346 8.024883570483984
Ag 6.144827652864877 5.635466160030922 10.562322098572318
Ag 10.660684907061336 5.0539867340013584 7.09875373188116
Ag 5.2897851875842266 9.297256633593811 8.743887445114296
Ag 3.615714055468739 6.730679020005103 9.625884921609835
Ag 8.4442394620639 5.313724750757553 8.879712593879267
Ag 7.526359732991245 8.987049689963284 7.044123067457685
Ag 6.8544633494012075 3.1229133772829614 9.64545930446054
Ag 5.956410100906202 6.627341976012471 7.816900024672482
Ag 4.501144990063196 4.2528559849505285 8.644543353644282
Ag 12.114592541118776 7.354338892969651 6.295951245282665
Ag 8.21753725634653 6.246447928029745 6.142945035489085
Ag 2.7077776382761227 8.678180946446938 7.731389422548422
Ag 6.781143348741686 3.8762519301749023 6.961381508817939
Ag 9.072443862598485 3.650531003314457 5.23565031306257
Ag 3.2302815855556504 6.020996269049207 6.872394071524749
Ag 10.567886039532294 5.953047459014719 4.432305198444171
Ag 4.912453793211234 8.658876045507562 5.989046871165066
Ag 2.343457727471295 7.9607281995487975 5.050848624622805
Ag 9.757999106234807 8.548133141016036 5.3556574802199135
Ag 5.603207521742071 5.804986090411698 5.124257738611893
Ag 7.137706176852944 8.305357986673748 4.298442164747296
Ag 6.452692407973233 3.223150939970644 4.24145637891751
Ag 4.5087175572815115 7.709479712478853 3.302232762535429
Ag 9.361895977366459 7.752068617241414 2.6420905479151835
Ag 2.985200908603079 5.364790233128923 4.0570079791751095
Ag 4.145803877066273 3.5122419597226813 5.900468690270991
Ag 7.94867314795845 5.428991223353953 3.320305919256351
Ag 6.7505350454047734 7.409728839041007 1.679259318077022
Ag 5.258064755748022 5.062130980833195 2.411687126841666
