36
Energy = -75.87467201 eV
Ag 7.799647301504538 9.73344650907471 5.607348458760524
Ag 5.396370170196222 5.876113958992603 4.751133960302265
Ag 3.8603752566654514 9.032907717616434 7.548857082339468
Ag 10.149675202629757 11.076719157615585 6.293577994405908
Ag 6.74272798514262 5.648009809952056 9.007424776968584
Ag 7.550127725272254 8.581302380668403 9.031466059699717
Ag 8.079250673431988 11.040437795109206 10.480960620350054
Ag 7.739489290524864 7.368748697395348 3.9846978828945336
Ag 4.666470479073141 6.345338900175514 7.39426629326293
Ag 10.404323059020752 11.418666407950967 11.898169059299638
Ag 12.314563949845715 7.658442137280885 5.998898802286175
Ag 2.9738011462593303 7.316411981133813 5.446778570578726
Ag 12.067374377312277 7.165678258391593 8.75837132904247
Ag 8.960721096147617 8.735379338641414 12.03840856869534
Ag 7.835821282025346 11.467444149759082 7.7963660622996835
Ag 4.953453515098046 7.740980833101373 9.838032286456771
Ag 5.3571877962089705 8.612087007725172 5.146168021391097
Ag 7.768236906707568 4.566291796661501 5.255873524166464
Ag 5.533807408790218 10.5565151788019 9.243994912406707
Ag 10.411737028415729 11.758707016030352 9.005684034421423
Ag 9.826422787415893 8.380133823365558 7.372559967147504
Ag 7.416673502968301 6.9414516115214395 6.671575593299177
Ag 11.24975817573119 4.61136157105004 9.609032396316767
Ag 10.772457931652449 9.290326360290452 10.083674570159467
Ag 12.23248601967525 9.886397512014284 7.761552837592224
Ag 8.594728839465995 4.285417263918412 10.509775174251347
Ag 9.178812020718746 4.87909629262638 7.721181074523273
Ag 10.005837182787218 6.170493724209919 5.298279809552469
Ag 7.109703824031827 6.683118640628475 11.520227976090837
Ag 7.993172329838714 11.04788526093351 13.284541887736014
Ag 11.930975609738562 5.0416175559050735 6.945659940893169
Ag 6.2465556227413686 9.364554357701193 11.747084274725198
Ag 9.690516109439729 13.033117630316678 13.995098973983868
Ag 10.220620562927058 8.835841103682217 4.531917036736925
Ag 5.455331858451965 11.053601483089766 6.464666944045293
Ag 9.51761974921811 6.802790553741902 9.96352701999267
