35
Energy = -72.58632809 eV
Ag 8.232686966071284 11.172325606601586 6.812548027966922
Ag 4.49576746427551 8.450739339811738 6.246995493855903
Ag 5.720967836392001 6.665453318660222 9.440099549724861
Ag 8.88701386594287 10.635138881954013 9.477043708295119
Ag 4.759957189500633 9.06576968223498 10.4571589259875
Ag 3.596742650718375 4.33219390554745 4.802518304235531
Ag 10.271001553023101 8.192961974197273 10.187409081489932
Ag 5.622506496743137 4.153390327082406 2.823451156367507
Ag 10.711385180135586 4.5240946002332825 4.492601753338092
Ag 7.54881599955793 8.408987381422971 10.503534341782263
Ag 6.972603234268767 6.688445000464868 6.914260814299121
Ag 6.603352428920639 4.230274862864397 8.438649186827822
Ag 9.035589807611814 8.523707567992892 7.689101576320145
Ag 7.455415908056952 1.9415708368857818 7.136752876137786
Ag 3.7460845650778896 10.40120760088637 8.155085996290026
Ag 3.1777450980314277 7.463378247023808 8.632478731994947
Ag 7.732962875972195 7.757433021002175 3.0206961395075167
Ag 1.9900735129083968 9.454649052494096 10.070436706211426
Ag 1.595233879406394 9.050097172543008 7.031849675988034
Ag 8.673965847510674 6.083474063216821 9.176969078107781
Ag 6.424907920884952 9.605240622390887 8.256087668359351
Ag 9.112859485086119 3.2458168799370024 9.07895744574394
Ag 12.454385192473314 4.994262293609956 2.4536636231173055
Ag 5.476903746090593 11.130760280490264 6.086281778402889
Ag 6.322180159040787 3.9511583173311937 5.491734525790235
Ag 9.285884844832498 7.050145736046583 5.330592772615911
Ag 8.939774336889963 4.55313298596207 6.668278445789529
Ag 4.585595488623778 2.635681367448402 7.066882856984111
Ag 10.2549116894217 6.566750731610466 2.668717479985495
Ag 5.537421709059491 6.5446789230894495 4.456672661048939
Ag 4.450942155754153 5.4726974953280125 7.184980367357724
Ag 8.64463634946546 2.5646286804092697 4.660080927340904
Ag 8.066054893536375 5.11237684405443 3.688766348028873
Ag 2.370803856006501 6.669833174177117 5.849173135562535
Ag 7.153955866783924 9.019530487938624 5.394582605616461
