30
Energy = -62.50407658 eV
Ag 4.017309552604222 6.89671584895396 5.009181568119761
Ag 2.7406629218895984 7.82470156751136 7.403190988861968
Ag 2.8106626865758186 9.43850943756195 5.0890502481823665
Ag 4.014244145067433 5.183965620993418 7.314161933295764
Ag 5.4508327146320275 6.075604905709165 2.6764227390173425
Ag 4.218006425015399 10.324323249136762 7.317918076504686
Ag 5.548108004690337 7.7330630626949075 7.299187888295883
Ag 4.12203355149732 6.730990383754836 9.618176058720586
Ag 4.157310030616179 8.557660553969047 2.786897620390363
Ag 5.5912905215547815 9.268413785843258 9.568996300889475
Ag 5.3702700055066295 4.192365575323452 9.635919728228966
Ag 5.413887571339056 2.6958393166926453 7.250402228493294
Ag 6.949868800898439 6.71671804081386 9.66262831779186
Ag 5.625176199620735 9.633996379622987 4.928054902092844
Ag 6.828732341207913 1.7646071099095328 9.480876852512115
Ag 6.853405540826586 1.9408512333059753 4.9957142688895955
Ag 7.0151858763711 10.225813059047823 7.291585464923724
Ag 8.344459541825179 2.586438111632053 7.276278327790731
Ag 6.928255196448506 5.1835485183501415 7.287252119116025
Ag 8.436054696982522 9.28364256593835 5.081326293806975
Ag 5.377453807673579 4.359325097408221 4.982639407485664
Ag 6.914528030453226 6.911693291258489 5.020735103766827
Ag 8.259229790265703 4.212884314603646 9.575820749683349
Ag 7.044832282957637 8.552692684263803 2.692100057867659
Ag 8.451201273563392 7.6964361740017155 7.473767031992848
Ag 8.55592261900375 4.2253288190346465 4.965879191929704
Ag 9.753984572506218 5.081257793109607 7.390393833739171
Ag 9.784363411031427 6.775900009422816 5.154843816043667
Ag 8.332282489890833 6.060760805323107 2.803753071418428
Ag 6.879777998293374 3.6106898031661054 2.76417299748939
