32
Energy = -65.6811608 eV
Ag 6.084340333695924 2.5055194825554152 8.608862714906477
Ag 8.58400389645658 3.0334063310053114 9.815827567118491
Ag 8.347017085732237 2.2639912580809956 6.944788446108815
Ag 6.302163593060365 4.772162073477753 10.43880096158363
Ag 8.893457938467343 5.864915743968788 10.064123836209435
Ag 4.6723965480441505 4.957531665438318 8.091391584254913
Ag 5.882128180339476 3.4717628113472423 5.885200455004118
Ag 10.196220186646721 4.211775393723588 7.871992472044562
Ag 7.496293699082481 4.727012102378611 7.805537334190573
Ag 6.853914069070173 7.54084429580018 11.186610340922384
Ag 4.3309366644109435 6.73971741862014 10.26115410850902
Ag 8.375761863995631 5.105743793245884 5.186940694403604
Ag 4.122300866287201 5.664799845310441 5.463853911722025
Ag 3.019680686416846 7.191198849733563 7.717833291304894
Ag 9.295373208550364 6.797113658532534 7.444104173484234
Ag 8.793962395752239 8.718315939695218 9.499112624493202
Ag 6.565169696197961 7.286709666357659 8.459854883334755
Ag 7.904865901733759 6.931165370457033 3.089549796531676
Ag 10.33402013623733 9.355183829140849 7.146914195444031
Ag 4.638080112336758 9.218791865841373 8.95941683021822
Ag 9.858088016575065 7.589381926597424 4.916316976495506
Ag 6.024718699305137 4.907008990696597 3.5650789709411765
Ag 10.879109223940297 10.421574984794763 9.593710486636565
Ag 2.6168527270230806 8.042297392101545 5.0189999885477645
Ag 8.516690230800567 9.663665596967231 3.758857126481033
Ag 2.8787062159052925 10.019507775912531 6.980028609446371
Ag 5.825470426528924 6.469479487657521 1.2209535936288511
Ag 4.933377195651169 7.564799444394898 3.5514525206189167
Ag 7.705923352265132 8.86177059336838 6.329848437361795
Ag 5.04512120631161 8.334745396819734 6.2920473929635605
Ag 6.598353315110636 9.074859529557317 1.8623934393603032
Ag 5.853775014557519 10.121520172909447 4.3967149222178685
