38
Energy = -81.13681143 eV
Ag 8.182886436296782 7.242761127172317 2.136869216714911
Ag 9.71175408223598 9.264832070686376 3.6330562978633436
Ag 5.789392174139605 6.034652704966824 3.2073440859040394
Ag 7.70916653139212 10.16201794624265 1.9521787572409939
Ag 9.612194319920196 6.591661921916647 4.500741299620966
Ag 5.567968884715135 8.459737481046218 1.9434015490394614
Ag 5.252991453647966 3.6936609521394748 4.635963761101271
Ag 7.989775112420864 4.35733949991465 3.5195529983686247
Ag 3.2391757323906165 5.615071943935145 4.129716643837313
Ag 7.114245867627691 8.292047671365337 4.468932030332824
Ag 9.895563101709753 6.142777651891897 7.380532395505909
Ag 9.273178650731461 8.658455638188654 6.378727360610892
Ag 5.583060329872926 10.600204193564693 3.716941427913689
Ag 9.936070249330367 4.0345995640507795 5.60210823431417
Ag 7.940502322608128 10.847195329692846 5.343075422979824
Ag 7.288187532079748 5.709173002164307 5.773552779561685
Ag 7.498520735943125 2.8016772755419472 6.045219898153421
Ag 2.6685900883474405 3.571343490958695 5.878120088979255
Ag 4.168743597872405 8.183553546573494 4.447925332212685
Ag 4.813616354475145 6.680643049066876 6.8452704206526
Ag 9.283105543685117 3.571032439065606 8.30136893401502
Ag 4.853644761487027 2.4652530560613193 7.1589037841964585
Ag 6.540647038116174 4.549518962677568 8.209307385131408
Ag 2.032748387995588 6.2443907454082845 6.56887514876878
Ag 9.642107299350561 8.35497286406546 9.172119928601031
Ag 7.263556195640563 7.357148716547471 7.989453650618846
Ag 5.568735136908776 9.716849996582562 6.410952456495108
Ag 3.439902529243165 4.606178280281479 8.373405901897
Ag 3.0090167150832228 8.876402470554803 6.957337735017533
Ag 7.1377986452055415 1.7308014997746821 8.615260925417674
Ag 8.73502751191042 5.843980283999879 9.970801669458057
Ag 7.592476128839996 10.122163512678455 8.246124054485072
Ag 2.758721858118806 7.191763642158317 9.178510988840747
Ag 7.722169212840341 3.399759742428679 10.726361622723282
Ag 5.062228797662832 3.1778934357582886 10.075075138325154
Ag 5.2598374874726295 6.204293922637191 10.036421947469861
Ag 5.004135822026651 8.88482052043272 9.036927285904014
Ag 7.211438047986663 8.166877893250396 10.65755352076596
