39
Energy = -83.50616051 eV
Ag 6.3244383120108 2.464259627332185 8.854992546982514
Ag 5.277332566378364 2.0788115598846333 6.051125346849417
Ag 8.06611017767885 2.2630918652936214 6.741838529195346
Ag 2.8769377080022447 3.577737368981239 5.6524267916635935
Ag 5.155226598205148 4.035694876372354 3.9203333741461424
Ag 7.8983574642577645 3.7448214333298036 4.466396448749657
Ag 10.142461077857087 4.054976726029784 6.269343346232068
Ag 8.450579352093156 4.344873094944083 8.567558236860384
Ag 2.8693191706418686 5.822984682243362 3.8636370572559198
Ag 8.216562598353715 6.270055252377873 5.925106924324654
Ag 3.9185861377291213 3.5794323950100875 8.3389680281543
Ag 0.7959193986418497 5.776718787903726 5.684856064375035
Ag 3.5273966980473843 6.038537393390247 6.758187238073597
Ag 7.513029959135827 5.989101834738922 2.960041980869726
Ag 6.083702806649518 4.564086107932128 6.706797556923148
Ag 10.116994698966025 5.61166928600991 3.8799456077386716
Ag 1.4128047963421813 4.625018461350275 8.139529212212604
Ag 12.216168724347533 5.950497021584665 5.718304545186018
Ag 4.923804388994707 6.182122509968459 2.027222022503439
Ag 1.2791771644874816 7.394757179687623 7.944217554726973
Ag 5.465779778512657 6.76224891754861 4.798596853276654
Ag 5.966918092148534 5.115292897252601 9.748794148762537
Ag 12.001145675984958 7.595023777586225 3.3608513566922724
Ag 3.418742884601885 6.238433939857454 9.536316199967414
Ag 10.361190935609523 6.314839539717561 7.889242285535856
Ag 9.244039695954642 8.207824841454702 3.02794021397134
Ag 6.116258275770486 7.228537223821377 7.501887454276918
Ag 3.666998485417073 8.463598955807166 3.094325767007748
Ag 6.443895982688307 8.61706820340174 2.8801015397592606
Ag 2.326691715291377 8.250842235651358 5.475588271144627
Ag 5.565970866968025 7.946615683984641 10.12034380173735
Ag 10.407336904250563 8.076945163454454 5.563939674702201
Ag 4.893835898797764 9.532210806136943 5.408538369868653
Ag 3.766829216336253 8.7522013309205 7.945440557718105
Ag 8.190822899174059 6.819162641892618 9.747680828660119
Ag 7.66727667261465 9.067431573426393 5.310289726572326
Ag 6.327429461584273 10.0018167080831 7.791126291715363
Ag 8.839341476753368 8.68226576915424 7.7705820740459774
Ag 7.858611790384068 9.577738383832221 10.167326593375016
