30
Energy = -61.6239842 eV
Ag 9.323771606497573 9.8471523738893 8.203953442889217
Ag 10.735066856921597 9.977356493897455 5.75508087196464
Ag 6.5856344574013574 10.22971881953785 7.948246222464542
Ag 7.9867027270201945 9.648119346523833 5.660317522962563
Ag 7.110532301383493 9.292877113850796 10.478407559668785
Ag 8.032570306220808 7.413131685861959 8.735741022267515
Ag 9.651379074867926 7.525384526925833 6.4637993954655535
Ag 9.611842121070522 8.318563279115903 3.7288478237722
Ag 5.399334877334334 8.693415843329625 5.96002233408068
Ag 5.109814486236359 8.037617723359338 8.722434812467736
Ag 6.752511661705409 8.079655947324039 3.6497382424657627
Ag 6.271726812435018 6.619881954654079 10.816698804365933
Ag 8.214211721429686 6.715975882871323 1.7799539511943925
Ag 8.23115824984273 4.8507447606361955 9.874857105887251
Ag 8.4768781287175 5.1370730527369535 7.173594181004607
Ag 4.154062340707293 7.206282008221091 3.9459848364390777
Ag 8.435133779824389 5.901360785875121 4.516808723811403
Ag 3.5559282054796264 6.752685573493867 6.704589532662999
Ag 5.39821025225705 7.098967683820604 1.3405054437763333
Ag 5.843446528025299 3.8274448568109616 10.817795145566436
Ag 6.183758794040347 5.1618332383306935 3.0888929222551638
Ag 4.360586140258471 5.3927868987362935 9.035617868232311
Ag 2.2011985183658256 5.416222542685076 4.634905517102804
Ag 6.805977336236181 3.1394639984287687 8.213653467908147
Ag 6.824908086322487 3.7655904373968356 5.3984652312277115
Ag 3.4781953819079305 5.188118981079084 2.114535013423847
Ag 3.177706750753363 4.008213936159525 6.840599654276963
Ag 4.233537533260487 3.5418339457864456 4.262060807300864
Ag 4.1631535997116496 2.5756782042899733 9.037138498900617
Ag 5.015759098141525 1.9754721354119915 6.437794651287457
