35
Energy = -73.89547898 eV
Ag 10.489954022648133 6.942705722390403 3.710098079125412
Ag 9.040120834398635 4.7778921856377075 2.474771461550872
Ag 10.150721321080868 7.311599202269045 6.496468985991258
Ag 9.328799091957247 4.9579544532523405 5.217787057269473
Ag 10.231556458477993 4.84467886970993 7.856960220503993
Ag 8.958414081374364 9.086600158476065 4.6563268606603225
Ag 7.868783630910003 7.258319628557556 2.838432140174908
Ag 8.763983978719018 6.930705120599995 8.909914283338537
Ag 8.011648299250572 3.371418393222743 7.012757062882944
Ag 8.388868623403118 9.26412296103708 7.373196926291076
Ag 7.502963227198684 3.0700585677376204 4.240335402291506
Ag 8.111806818941483 4.289242842882574 9.646675840797835
Ag 7.2639828872116965 11.128685794383953 5.6286349335184225
Ag 6.24689357314422 9.158488860520226 3.9853794043631163
Ag 7.029536865963605 8.969224801180296 9.777470258765591
Ag 6.532626912337518 1.9977449243937095 8.949503013226835
Ag 6.364857276018991 6.3492242236849314 10.327545630165085
Ag 5.6367925972594515 10.031288083564519 7.621391588365004
Ag 6.26865461253844 4.957624981190297 2.5149118571839355
Ag 5.1890989457268395 7.469658781694685 2.070741050412648
Ag 6.075973801553925 5.16628155337721 5.536936558347071
Ag 4.329144229591718 8.221077511054183 9.408492420114447
Ag 6.2067986646857305 7.160971223509916 7.480565415815551
Ag 5.691177156443487 3.6794648452152834 11.021943200832059
Ag 5.51543926702221 2.3386217751558847 6.342773689070693
Ag 3.717434029616608 5.5482386716125545 10.409777421550404
Ag 4.43403632047051 10.813558718397857 5.239813235943981
Ag 3.475826678522164 8.467649516887256 4.028877486790003
Ag 4.702691551464774 3.0638461450067913 3.8040710053869016
Ag 3.766939466122745 5.687078745119128 3.6448223948006175
Ag 5.37472519228588 4.4400244215709455 8.278330726100315
Ag 3.282249565502001 8.779741570088818 6.794835289440773
Ag 3.2794154959725788 6.227206336328356 7.803513694728332
Ag 3.366911825385006 4.169982984649109 6.020229605526304
Ag 1.9302012131814057 6.63273577235611 5.470501443071725
