38
Energy = -81.48039141 eV
Ag 10.337294908446536 6.299105096438157 4.655522480981267
Ag 10.359513550646744 4.541302728459865 6.917708231305993
Ag 9.013933637137056 7.877507765472474 2.631190888917037
Ag 9.608419621326155 3.56983867336835 4.3813000194478215
Ag 9.907666412186924 7.419020675443645 7.291233306025491
Ag 9.3530322061351 9.101292783056946 5.152721211504092
Ag 8.018469942665533 5.3163268541441555 2.924048254670791
Ag 10.09401582060563 5.683842051197204 9.593059393911442
Ag 8.029251988034169 2.9171412049524084 6.551357330058352
Ag 8.891929051241192 3.186126646664785 9.24422560534583
Ag 7.893130191545418 5.4739456728270355 7.815847161648824
Ag 6.788153028831313 8.97837037143245 3.852635185815575
Ag 7.724017422540749 6.739341005280651 5.343175987725603
Ag 6.408236795326047 7.360623780539615 1.6223318067931116
Ag 5.806157206605065 4.772115302948501 6.013016889612132
Ag 8.330655965931866 7.8654634208433505 9.587769669078433
Ag 7.243406439321128 5.180896074513293 10.479665411913015
Ag 7.51316390535649 11.26459639918677 5.297901380799494
Ag 6.774486688996585 3.047854739433897 3.978568189201806
Ag 5.164561225822437 7.525808215164739 5.881408513777795
Ag 6.081286112871766 3.3831716386857007 8.625939720944814
Ag 7.308234203098572 9.072108438482678 7.120223641102228
Ag 6.156392917966971 7.560288051492358 11.43934018280821
Ag 6.185761510740514 9.743378051600118 9.707941972360054
Ag 5.241661668137516 5.39738633750511 3.25815324565808
Ag 4.8050796531841 10.286126130945016 5.271848776102838
Ag 5.810688632948196 7.094852861291478 8.605438305290756
Ag 5.90270642956223 11.546794796626164 7.544068455696305
Ag 4.190415862150374 7.99708299262013 3.3140481239654958
Ag 5.3819173972272765 1.967365389323497 6.327372380596155
Ag 3.9040118728122817 3.204405940369632 4.371196198391548
Ag 3.512263198795626 3.880769197964256 7.367921150168837
Ag 4.125678658056648 9.35545714686466 7.83132409002827
Ag 4.333788869348963 5.128119033538178 9.874335001226859
Ag 3.0699577719135545 5.758985019279294 5.068932265056503
Ag 3.6879732356008983 7.9494546969319675 10.242289952318012
Ag 2.549747113676322 8.483675179857478 5.617468441321453
Ag 3.0666216031032523 6.643742355150409 7.7711538983267
