37
Energy = -78.98483219 eV
Ag 5.093849202401763 2.6357696012490663 6.086023821968983
Ag 3.8923967584376444 4.743721611059712 7.449568201466185
Ag 7.588108083684823 1.8093095423635532 7.007754148491276
Ag 6.093255545829025 3.563873943025435 8.62450887476348
Ag 2.859797418064581 6.993005144981424 6.236752549424924
Ag 7.4080175582301235 2.9232059263078884 4.412306928625075
Ag 2.257576447390888 6.512939057914651 8.909247064797809
Ag 2.4150210713865428 6.821687235843614 3.451769436655224
Ag 6.111791275464148 5.293180723541537 3.060210156982863
Ag 7.3462935816105865 5.048733266648999 10.704829002470015
Ag 8.81995964086547 3.272796969216671 9.088327007253573
Ag 4.828278487279635 5.84765647686149 9.787080854922038
Ag 3.897202289152025 4.805264701580067 4.675563116179842
Ag 1.643390103536666 9.037663580645678 7.717674667365034
Ag 6.502306616953252 5.112207832281357 5.875367889531849
Ag 9.266301471963578 3.928418062114387 6.351841617111761
Ag 5.769310473752546 7.416739273089044 7.18764059471055
Ag 1.9075159461020827 9.196157973405692 4.850762187109662
Ag 6.529987666836294 9.712381457641184 5.288516084065539
Ag 4.104900095526225 8.587627441203342 9.163447417648026
Ag 8.777911606433591 5.308811848227877 3.9433873476239847
Ag 7.3739076412105655 7.828522205436452 3.117736384134679
Ag 4.911564594349497 7.568260223018018 4.416114777220541
Ag 6.735840241274916 7.848332966691139 9.970508569607013
Ag 8.34333563988891 7.560462521515678 5.771159080138471
Ag 8.0316913995752 5.938612389021164 8.120443691326237
Ag 4.084738467579615 9.619033107369471 6.48985644806731
Ag 10.732856472136 5.25041741543252 8.447859360607016
Ag 9.38637791269815 6.979963958566673 10.421706509519344
Ag 6.373553352790543 10.046503300332336 8.1623984442247
Ag 10.208819801335268 7.601132002159279 3.41747898219111
Ag 8.952923381655767 10.013637216180754 4.041370518952608
Ag 10.817636661765297 6.237762495619366 5.825071844166415
Ag 8.795103381394922 9.684293293478895 9.585016766486103
Ag 10.297366323353423 8.006659846721295 7.9917734946432235
Ag 8.854076687733459 10.25941517594456 6.861415175992104
Ag 11.102052107969419 9.100855620922935 5.602526391167571
