37
Energy = -78.68138706 eV
Ag 11.18077272149779 5.153799465039125 7.906595663027874
Ag 9.127934364335081 3.3203678936337493 6.871635693732276
Ag 9.851721686129986 3.5169552409845606 9.747684766120761
Ag 9.622905052469594 5.951016433153233 5.757239445816087
Ag 10.23960244483581 6.302800534454225 10.393692093291659
Ag 9.598073385030736 6.952917340270066 3.081320760549512
Ag 10.11492385484133 7.867067985408786 8.050973528511644
Ag 8.412775298479525 5.5896921070428025 8.344368369035282
Ag 8.053492002345132 4.101385908994472 4.382537716922318
Ag 7.200112864188931 3.121860206909321 8.964890964996176
Ag 9.880707113951646 8.67922907220667 5.370457549136594
Ag 7.092961043507916 5.341193819507143 2.036511434572082
Ag 6.344876014176883 2.8459486727392074 6.279420163771725
Ag 7.765355809138509 5.088450041222983 10.998251943420323
Ag 8.834637901094109 9.902698358410438 3.164516721789787
Ag 7.361022494057889 8.096634975302557 1.703583252248995
Ag 7.585793499387976 7.978363872601661 6.88917465633878
Ag 7.777066592489092 7.823864167895624 9.871069487010773
Ag 7.842460208620291 10.577372631656615 5.81709545538899
Ag 7.231570094928613 6.854810016915128 4.374927717044511
Ag 5.274838558788124 4.714182464783797 4.115981387591693
Ag 4.868040968268325 7.117702561385658 2.7291311907060063
Ag 6.139556011567042 9.548515945826077 3.816648138934777
Ag 5.128953857256925 8.03617715943582 8.149002926625132
Ag 5.401688963864591 5.902834389154599 9.84046269041614
Ag 3.5883710943378193 3.7354420172235567 6.01891421730086
Ag 4.549359834152215 3.559472606537824 8.559296014943452
Ag 6.005497209217019 5.543656845962728 6.903712393701444
Ag 6.856393458484912 10.188213165302503 8.561073552610537
Ag 5.353737256602159 8.832352923589932 10.778849960690081
Ag 2.74441809046787 6.109702401566866 4.838740501701394
Ag 5.052000577522129 10.367228787562972 6.334342688747471
Ag 4.8207200660444185 7.723045254116419 5.417956942341922
Ag 2.8969730409830095 7.797153981352141 9.748297553047522
Ag 3.1925425842127555 5.921722064159073 7.694939966365736
Ag 3.8068081800542024 10.376418529274144 8.847558344125797
Ag 2.629562148834006 8.569726434828231 6.9032659583152025
