37
Energy = -79.06720521 eV
Ag 7.126242367413098 3.850441413576168 4.1087483660140816
Ag 7.555777891412806 1.7511201619316836 5.861059648022543
Ag 6.735351479184309 5.970623341665758 2.349667286615349
Ag 9.24370427073038 3.9448285576329543 6.123396106508549
Ag 6.139546126165823 8.349783309901078 0.908980563722894
Ag 4.135276484219061 7.000204812225373 2.2506951045215895
Ag 8.831188212129067 6.081169884868373 4.3158775291566
Ag 7.994608742619513 8.441935110657413 2.955847139698336
Ag 5.288664614353483 9.277326292485434 3.4716257514429296
Ag 7.506532088311606 2.828905428906808 8.484547128506927
Ag 10.712769976806094 6.295584790705777 6.484479093547759
Ag 9.959993168711618 8.619982190700187 4.901441223803918
Ag 6.101297192709435 7.0366479333853285 4.9855468553796
Ag 4.505338814698529 4.841597353371768 3.94217256288815
Ag 11.932535167048284 8.820754036856911 6.868790307622149
Ag 8.133913918241824 7.401963271828283 6.898501035090584
Ag 9.437926132864867 10.011482522020488 7.282498740879604
Ag 4.924412321045268 2.7272332128902956 5.712294254438977
Ag 6.627226864571177 4.880580939214792 6.7582565096596445
Ag 3.2868834323952347 7.326829720829079 4.865914939043741
Ag 10.288794155607707 7.780289246925299 8.877643256144012
Ag 5.691794556845907 0.7950176285769361 7.655611330888637
Ag 4.695931617025 9.384990366092923 6.234381962363179
Ag 8.956299804661231 5.2570702630098625 8.633141978726584
Ag 7.347991887146547 9.769149969547277 5.364913228335615
Ag 3.686077159417757 5.126274008336433 6.6177390375005665
Ag 8.915628922333529 9.98243484456132 10.008206416673916
Ag 5.458997991803925 7.192960439746262 7.900674585815434
Ag 4.658239435786152 3.208284111896815 8.4999417952588
Ag 7.679769002572034 7.5290556652279 9.847478508611461
Ag 6.330175418705107 5.08512120059074 9.75139457982701
Ag 2.6501999416480144 7.610896192673567 7.574336889807258
Ag 4.13852745586111 9.549610886164887 8.99810053474303
Ag 3.497227943416233 5.554334011936517 9.429070439943525
Ag 6.77729075150527 9.782589899038078 8.186381847384686
Ag 5.0691878729776425 7.493410048849704 10.730354451048592
Ag 2.31306126657402 7.900548888780364 10.362368261384788
