30
Energy = -62.55129135 eV
Ag 5.870062077851454 5.665614638350478 8.028910708184606
Ag 6.400185316066832 5.466187854845542 11.122245632944459
Ag 4.224779641312568 4.910806566231819 5.54567752049308
Ag 3.9028146059892896 6.708380049265242 3.316963391978468
Ag 4.289619090372567 3.128934772873141 7.740980404006487
Ag 5.027898316154299 8.531458116157763 7.971851435239725
Ag 6.168993827757482 3.068209208686072 9.739991288434393
Ag 7.045386906913815 7.7627152507317225 9.718117217446387
Ag 9.012724796756038 6.514007562262431 11.244742442023966
Ag 4.677054193845479 3.9681192269027004 2.9204158335918007
Ag 8.37330844272566 5.699973360665084 6.502896369479496
Ag 9.586089840467812 7.24244389141469 8.57094935029298
Ag 4.309226890781158 7.03471867868543 10.196718803485133
Ag 7.061736308701415 3.256976397167182 7.0949058943742465
Ag 8.332712615338862 4.764250294157473 9.18221574074683
Ag 10.504115515151918 8.510967905018292 3.1376260615255833
Ag 5.247384354049167 2.3231215900744564 5.198318280030748
Ag 7.621720905714813 8.555767890736746 7.0386450049075515
Ag 3.0725746278699897 5.676622572294011 7.990978124033908
Ag 7.024099127589845 4.336252332175718 4.4319774506278
Ag 8.023833535794868 9.223910174835703 4.282357919129849
Ag 10.087022463843518 7.866383338330302 5.834264646690588
Ag 8.787917514300194 6.411296822157422 3.7699386089424403
Ag 5.665462583631854 8.788776359821528 2.7895993581682603
Ag 2.337439053089595 8.254500672068703 8.49664345766433
Ag 8.16549997235463 8.197496655684683 1.6636002652834714
Ag 3.4048576054761113 7.67211718791139 5.88637704220716
Ag 6.144300300953255 6.990318661071955 5.1236351493583765
Ag 5.484199654003357 9.644541128295131 5.447721610581014
Ag 6.447514112147467 6.051561220990426 2.2440838352253962
