33
Energy = -68.61396151 eV
Ag 3.4156750149461286 8.250023406021237 7.822388353840698
Ag 7.508812742580259 11.379434367598872 7.1207806782338805
Ag 11.371654772896964 8.780416661649483 8.437570649584755
Ag 4.893797968897579 7.0630539112336805 9.775425664689584
Ag 4.829167179392609 7.832757822641275 5.519785253578321
Ag 1.941446205912536 3.448456285992786 10.2296914586824
Ag 10.720989481640869 6.73793242299306 6.51942167313089
Ag 6.858500038584119 4.303592899663369 5.217603365275218
Ag 9.267387210255777 6.9880128765375344 8.81593021348624
Ag 11.586649330395066 9.268603606268323 5.4629863840389605
Ag 6.84963189553903 6.83661622295672 3.7792412140805927
Ag 6.9473155102803705 12.241244245290453 4.587326839716489
Ag 4.905567899721364 5.505073385832851 7.182238211524768
Ag 4.515199970465419 2.8654725806542327 5.454001271802152
Ag 9.146134471618698 9.15060818195829 6.847050663563832
Ag 4.650081415144148 4.227905313897631 9.94580785985061
Ag 9.335418438674477 8.198647351928935 4.138110373969041
Ag 6.955617400343684 9.486033187567427 5.028521962259095
Ag 6.226145638084512 8.919898074002312 7.9519881583596534
Ag 11.753891982872632 6.8058281242233 3.9845767252612125
Ag 8.543036111382674 10.072853991047 9.335178541415447
Ag 9.300599203329728 5.428463619308727 4.484051217231003
Ag 10.117383529442364 8.545215095129409 10.975688004798334
Ag 2.524257065465346 5.7697154430250635 8.831236677349459
Ag 3.2142979558603555 3.240113884011289 7.790849049367935
Ag 7.021164480785078 5.393754592977409 9.189321573228456
Ag 8.821326875704544 4.50409676242787 7.247011679174727
Ag 2.492955489183248 6.2223769936994175 6.017622715459013
Ag 7.373696488334638 7.858536741619448 10.61904119639735
Ag 7.5011305872112795 6.843244058943233 6.481054565321994
Ag 6.259351124650962 3.1239518223294898 7.727728777070118
Ag 9.402235903544994 10.964674851120078 4.754844603585357
Ag 4.461157277206364 5.387626781843773 4.218778177659522
