35
Energy = -74.46382868 eV
Ag 9.385089297863859 4.971206838582866 5.144917310122824
Ag 9.77375402287666 6.282468863403726 2.676554398402608
Ag 8.29838706526378 8.635964584077524 3.150934383667048
Ag 8.576877197572546 3.770627975298973 2.691298528167423
Ag 9.582820605173023 6.510945797021458 7.5401557516103255
Ag 6.995671536997101 6.057981297044333 3.026828343586453
Ag 10.238467511279863 7.678110321042918 5.075835519557008
Ag 6.726146911768531 10.835635786563515 3.932093186379702
Ag 8.71930924697141 9.946408337118749 5.706918936545723
Ag 7.924250605972408 2.5603074338281093 5.151785240413225
Ag 5.869130486402006 3.450124058903151 3.273223060535094
Ag 5.4682897101605095 8.337201754069067 3.6356881376843786
Ag 6.358858696292181 4.847821183192248 5.713068329205386
Ag 7.517550782548887 7.42045786588481 5.668982828316081
Ag 8.450874568316696 3.864085487737872 7.608822649142366
Ag 4.26379089724795 5.7406124361617055 3.8155904931440197
Ag 3.977410004033565 3.390218925690227 5.354072157377717
Ag 8.841855768954368 5.33090479178083 9.973609509350506
Ag 5.976418984470432 2.4471461752884576 7.197984029177794
Ag 8.020513906161046 8.83484751175412 8.18064493173105
Ag 6.785233753815657 6.232449311569323 8.203093187581313
Ag 6.002649411191048 10.000906581691051 6.525857481197492
Ag 4.791994242173676 7.173629749388805 6.346524781823331
Ag 2.7782904788585956 8.06095574298173 4.529795415830376
Ag 6.399316465160073 3.7778397510617494 9.65144651324212
Ag 4.026974842714174 10.557642512751466 4.552549264375177
Ag 2.4474129635110287 5.662907437787231 5.977422153782333
Ag 4.252545049697842 4.5968907335077835 7.9392468125891815
Ag 9.1725615260102 6.700889542824031 12.35671915619212
Ag 7.259246544523621 7.689896988888632 10.620684618225111
Ag 6.856006588672791 5.252907137636012 11.98651211740315
Ag 5.241141254545817 8.64303057575487 8.916599602430129
Ag 3.2838804778499533 9.459468252351709 7.040252890505684
Ag 4.810665781443867 6.134849012994214 10.294325151698867
Ag 2.8797319193762205 7.045697287506702 8.45635064782509
