34
Energy = -71.04544189 eV
Ag 4.759947503012904 6.870941359299783 6.752611387972188
Ag 6.515667773219424 4.808682325659143 7.586530047085416
Ag 3.9069050551554354 9.231654429971382 8.641489256613106
Ag 7.637755984681308 11.718203029301222 7.847058369051351
Ag 10.855429387269751 2.675527918666382 10.631432523707886
Ag 5.843084218902418 9.339535727228466 10.886583730547152
Ag 9.027199663555308 5.7268567117551585 4.350197374327565
Ag 3.550310620543278 9.167495835883852 5.8210224785086195
Ag 7.856826031869393 7.0953726510222905 6.509767453848479
Ag 12.665110562991522 6.3163766444159615 7.379785068154568
Ag 6.313273065444797 9.250613144677162 7.364329452190848
Ag 4.636468258568416 10.975875043240189 3.992042576113338
Ag 7.164748434099304 10.797843918365462 5.181992554507218
Ag 7.4596750381389505 7.019906200886471 11.531921308449508
Ag 6.180399000239307 5.40395665382728 4.785087404594907
Ag 9.234123929587067 4.742024392333884 11.368407212934635
Ag 4.865696454260388 11.56535832071326 6.696227766209602
Ag 3.6376351486069103 6.707630832311634 4.254625672414976
Ag 6.651899018087119 4.574190799955592 10.323888204445023
Ag 5.912037889376108 7.120417285469754 9.201689651079246
Ag 8.602638322012966 8.576675194728855 4.228969684049821
Ag 10.770483689385584 7.998831909712201 8.517394262838302
Ag 5.864341377168366 8.360944838912587 4.43479476658416
Ag 10.176636547409675 10.854539362576261 9.147624126281677
Ag 11.246830692225906 5.157995164095633 9.445592538564231
Ag 10.760598029552503 7.545443803357631 5.697867779166577
Ag 5.288820477230769 11.592436076556986 9.42551435561689
Ag 7.852971213827438 11.52212825222922 10.603343880506438
Ag 8.884150860412865 3.42896853398302 8.684794941146587
Ag 8.274545416028863 8.944738742077536 9.516311007184783
Ag 9.237422217649435 9.654091268638451 6.790710484181161
Ag 8.632233761146365 6.232990692492764 9.070888158203367
Ag 8.155273906552953 3.526010538019182 5.843840270993382
Ag 10.232894404915992 5.075417251667767 6.8104764420688735
