39
Energy = -83.44940023 eV
Ag 7.743024681593781 6.200746235176952 1.436234063419802
Ag 8.201682178635176 7.419006600947452 9.883311070844647
Ag 7.694089990256019 8.810801762522665 2.524946371371984
Ag 5.338867683108296 3.6381761079491697 4.640792320333546
Ag 5.178853085046773 11.830306672685985 8.012567638372273
Ag 5.459495152251469 7.004039157641739 2.9495128381454325
Ag 9.180443768516094 9.6577540733847 4.775716347899852
Ag 9.580411635317557 7.012371664442298 3.463654489279342
Ag 7.98466289019117 0.6285403617771637 7.219384253762847
Ag 5.432908889647724 7.749555651112689 10.543273303558536
Ag 3.9200242914678896 10.216873393593142 6.084232124354219
Ag 6.865537566952358 9.952849864610505 9.229944351474836
Ag 6.784144877290781 2.8058921889184547 8.433818689296984
Ag 5.858502908048789 5.200900010766976 9.498653999143219
Ag 7.527910548963946 5.087643045106814 3.923945690328388
Ag 3.661071663226421 6.586980802090736 8.485785277045547
Ag 9.443863343916815 3.22624782683861 7.655944378804603
Ag 9.819862541496125 4.9621493683998965 5.457426592409877
Ag 7.108879428787828 5.896136199056818 11.935265843930447
Ag 5.468391431208648 9.628490628891111 3.921937685269283
Ag 4.403838426883753 4.041477082738811 7.4193095906360345
Ag 6.777898735864004 10.26143815155576 6.3549469835683885
Ag 2.2888557103494196 5.5517726997191 6.213055810857152
Ag 10.804556883493591 7.582282097644474 5.876878301050055
Ag 9.91524919848464 6.0952868867627945 8.029442386131446
Ag 3.3220700199428865 5.211698591319876 3.594063550572062
Ag 4.046515536500472 9.389813318934655 8.768751368179487
Ag 5.586949471488036 4.395202469722401 1.9596436910102444
Ag 3.125408848865124 8.053378671272617 4.321895416220351
Ag 8.503577827407645 4.591300284119159 9.89486175064027
Ag 7.203587612267018 5.156789868872252 6.826094421220192
Ag 8.871261268838408 8.725372246231933 7.505248282440776
Ag 5.3475117043170854 1.5283248476901325 6.430327877761664
Ag 6.236159119001439 7.65946090921382 7.809727556992701
Ag 7.29405593385493 7.705973635449175 5.183440956885727
Ag 2.1448936329926074 8.268476179859297 6.9274250233772845
Ag 7.848335434061389 2.7320758225523845 5.447767395259921
Ag 4.898632373900253 6.401493240325966 5.716268134190624
Ag 2.8563421129682744 2.8612497875056455 5.372832581364618
