36
Energy = -76.89439635 eV
Ag 3.47555467108864 8.014618825441191 10.778370356220961
Ag 5.570375294238462 9.275259259670612 12.11052129418791
Ag 3.804598929213282 5.654988994193802 9.22737303494746
Ag 3.1695140691238692 8.281774675860886 8.039853197026712
Ag 6.022297586390035 6.9377927455564485 10.553562161089454
Ag 5.397955018257663 9.497630824905391 9.290909234502097
Ag 3.324911133370694 5.884621791713209 6.4174742172889285
Ag 4.256755702716647 3.428663954826377 7.5019120278979905
Ag 2.9350009360735547 8.548154720478236 5.326491339692526
Ag 6.427817763511606 4.5818273690482565 9.059370389931658
Ag 5.179988459932206 9.714353714264309 6.499743559708559
Ag 5.788958154988167 7.065542190749208 7.6709972800414565
Ag 7.894364745072126 9.038809598782418 10.498222780028424
Ag 5.548259504313685 1.8260350961298046 5.382015533446431
Ag 3.8868727941031644 3.8796406012653795 4.511489420236341
Ag 8.856165684301656 4.355690505101751 7.499769138263664
Ag 2.819578002328071 6.311980902092644 3.669933677054012
Ag 6.249778747062003 4.646458229827079 6.029941178785839
Ag 7.008549709980053 2.2837592986291178 7.633224385114681
Ag 7.724801440695744 9.36341502597699 7.678726634525439
Ag 8.404324930805405 6.637252928792559 9.079218109009508
Ag 8.095389237007629 6.798970021005316 6.041639482391484
Ag 10.195110314268101 8.820607781633552 8.895576769359153
Ag 5.415336313485194 7.093578235840187 4.810533524371654
Ag 5.016807886550664 9.602771367678502 3.690940448829651
Ag 6.23636211839321 3.100962709509135 3.0636129408849673
Ag 8.250508733643263 2.8864458561115507 5.093568478615403
Ag 7.550688411014528 9.364264039197378 4.8600955700855
Ag 7.805628653508518 5.3176928364311795 3.527978228796169
Ag 10.690249422650574 6.473215886035156 7.434953420159872
Ag 10.056467421705973 8.975896338575199 6.106050697481548
Ag 10.184710737896914 4.968977634677034 5.0597860557579555
Ag 5.19239606043918 5.575881980622529 2.4355597500535167
Ag 6.941779707061237 7.813566580798648 2.564524998588819
Ag 9.533834861998164 7.5999561240252085 3.678477115591184
Ag 11.944939379414071 7.157862432352954 5.076100571043348
