33
Energy = -70.10137155
Ag 12.178032107884334 13.045320234446208 12.967974953623525
Ag 13.105870619207698 13.933980142945048 10.116978311890367
Ag 13.046281701194422 11.01720254117659 10.82141893283119
Ag 14.83681809503194 12.775787560618681 12.059649862088888
Ag 12.209268793376587 7.281060663581005 9.172416283367166
Ag 14.154855858977083 9.31683626345704 8.917740043395662
Ag 10.776694779216585 7.233052399235555 11.62498316571074
Ag 13.556076934605587 10.668669139709754 13.55951470508019
Ag 10.776568154797394 10.08052023273416 12.214178121018906
Ag 12.137354582076803 8.337979615499318 13.973565822928409
Ag 9.41581356294214 8.337421846551498 13.973375079751882
Ag 10.776532815488899 11.129895556836496 14.681548514748746
Ag 14.980381350022434 12.028770419931556 9.162257726832246
Ag 13.415126952887702 8.244696146455153 11.512545035911876
Ag 12.159179788954981 9.256245030314604 7.012323544922774
Ag 15.553531499490225 10.074151905188021 11.36542350401984
Ag 10.776568154797394 9.737009588306067 9.408774725172277
Ag 9.344342450632217 7.280933017882635 9.172266386412815
Ag 7.99704438790039 10.668269782297774 13.559449881882498
Ag 9.374766095727864 13.045196440853704 12.967935921754174
Ag 10.776522607234519 12.448729628623353 10.45522749086575
Ag 8.506788372934727 11.017049313517823 10.821386544396987
Ag 9.217629623751701 11.869237270525332 8.051969675339807
Ag 10.776424732832607 15.015513486716895 11.42918015706924
Ag 12.335380962713865 11.869339655516812 8.051996718554848
Ag 10.776461878617843 14.28511674600223 8.426514131844753
Ag 9.394369193575951 9.256246345439795 7.012160588613823
Ag 8.44698904386447 13.933755882126167 10.116954701495006
Ag 6.5725643589313885 12.02845233575217 9.162212307378171
Ag 6.7160872327741155 12.775434936805327 12.059609017669171
Ag 7.398609118980915 9.316641664912382 8.917534392790712
Ag 5.999638582112269 10.073737067540977 11.365205413490276
Ag 8.138222684771163 8.244475831269275 11.512323258838357
