33
Energy = -69.62625427 eV
Ag 3.7518629304956566 6.203993224653136 3.1108986078860354
Ag 2.351798291812618 5.42027950759457 5.471359058882149
Ag 5.2617128378327624 7.019390646618726 0.8558471454714517
Ag 3.3068144679109497 3.055998408428124 6.7112849727912645
Ag 4.884117282928482 4.160390015151915 4.698819549651936
Ag 1.8849491299292591 4.729763968352031 8.42580421099314
Ag 6.466052288857776 5.357621909771648 2.7108227856319584
Ag 6.133786044033971 3.28242966904184 7.151509608800627
Ag 7.675099958325887 3.8461804418609375 4.828513403358954
Ag 5.773778362110631 8.23065024204654 3.3204567669845737
Ag 3.9852634363711466 7.745844002976404 5.42912414151861
Ag 2.1837805943600554 7.318608285406077 7.601312144290849
Ag 4.529976420228344 5.597577593917742 7.3061332681536255
Ag 6.697681096232477 6.422876474839143 5.472358528805046
Ag 4.254224238618174 3.5543047450319274 9.343039508402898
Ag 7.901973841055818 7.6120131470128625 1.6139320038873266
Ag 9.08079446991682 5.9980615436868945 3.5290611305906845
Ag 10.394528865962327 4.441258267205545 5.42649165109622
Ag 3.813331702099388 6.366129363609012 9.928232249358421
Ag 8.450567508590526 4.7827602338602055 7.412776645982296
Ag 6.500881531076529 5.163774288210795 9.38740393702718
Ag 8.442900819198659 8.757563802989038 4.1620128545003015
Ag 6.321141239494821 9.260800906222812 5.884262087477217
Ag 4.713597584067399 8.342791046066656 8.104942817022042
Ag 9.731884920809026 7.069656554535762 6.053048932937265
Ag 7.464037414742776 7.492531625950025 7.916963145553284
Ag 11.122232982491404 5.449996886368076 7.963916516812878
Ag 6.262443675083424 7.8038325474786605 10.42856121059059
Ag 9.11142467585637 6.245374183069657 9.800612925133708
Ag 8.99328451590489 9.668121378090781 6.839710579513774
Ag 6.734577681459241 10.178918063839289 8.522260647586418
Ag 10.811397476203085 8.154538148380071 8.405512074569991
Ag 8.796176136942263 9.072091734410266 9.992144790666128
