36
Energy = -76.36314193 eV
Ag 3.1046148541576546 7.315282869236556 5.600636133365952
Ag 8.727904727941588 3.260177136010288 3.7099640311597786
Ag 8.372566425782544 6.411956808796356 7.079540701987025
Ag 3.610151110704131 5.60913151403215 7.822264159856617
Ag 6.269364626105859 10.673667751781078 9.438314626779155
Ag 5.7127014017740105 6.879583855708334 6.46859255807052
Ag 9.14691209661065 4.78227562785534 9.239844036491563
Ag 6.911147954321529 8.032957779131097 8.759319365523835
Ag 11.06367503839691 5.827994014672876 7.301413472558334
Ag 4.458963802995453 4.494537045084678 10.177075468761602
Ag 7.441645764298845 9.84506083169159 6.7654369998302375
Ag 10.235237745326248 10.656074544832975 7.055443472910354
Ag 6.822041000038096 5.879549782451749 10.517697902092069
Ag 6.935049981435254 4.591644664339239 5.287364776930031
Ag 9.08477330688125 10.278708919005913 4.4833996565072285
Ag 4.181436728248707 4.660269034332425 5.290039051560845
Ag 9.752939839983624 7.829174702321366 2.9993342242435683
Ag 5.7219684837070535 3.908673499738026 2.960433133645865
Ag 2.2304611682052786 8.075693692978762 8.216519376137136
Ag 5.249803536121901 6.658040523337885 3.6211237529822418
Ag 7.57386627275751 7.912979958416652 4.638883503960973
Ag 9.203561931184915 7.385298790654091 10.380366868371295
Ag 2.0662985054246716 5.990990979812497 10.07116733675434
Ag 7.81751487696044 5.785424163857494 2.7257833670775375
Ag 6.406327755781436 4.5541097808121265 8.0540168187321
Ag 11.628180306732993 6.149238894285067 9.990888505376692
Ag 11.118404178197013 8.446700201213648 8.535209520892508
Ag 4.454468488233801 7.4737198765913 9.985228660524076
Ag 9.145074097211472 3.6783335314882373 6.647786465907359
Ag 4.65751272734185 9.289748280717696 7.704658518395121
Ag 5.113831582044458 9.248430233079569 4.933125681289329
Ag 6.824289265866549 8.626797567822964 11.391158608228341
Ag 2.5730062360951944 10.031734808946794 6.114065404954409
Ag 9.83578049284178 5.606371945846378 4.7161990281584
Ag 8.922117083711461 9.98546741363394 9.38246484648832
Ag 10.253804732687465 8.160550310902623 5.846595220491036
