31
Energy = -64.79030103 eV
Ag 9.576905669565368 6.035419613488296 9.732215200672915
Ag 8.54773959314859 8.482857392478742 10.417575162772467
Ag 7.210788879854054 4.636346081991034 10.36545359856035
Ag 6.079944202962871 7.186637813318604 10.033972339607867
Ag 10.262082589386127 5.545743751803883 6.967339287530231
Ag 6.2778020357664355 10.009553217568483 10.182560847555752
Ag 4.769855585567188 6.657460097215928 7.4195546447749114
Ag 7.507033992466145 5.908003663973482 7.766733224840558
Ag 9.47710874668865 8.095544956336306 7.793174285344537
Ag 4.5409062919654914 4.8701366398946355 9.528554106562268
Ag 8.502552072967001 10.608337198230105 8.500759401881421
Ag 6.301393051048187 3.30840180631809 8.032760835214775
Ag 9.05017204019068 3.5345847108355084 8.492944385705366
Ag 6.57828806678272 8.765675747957676 7.572140657742947
Ag 4.089091375100628 8.902783448352372 8.887544604128893
Ag 5.8686871684071855 2.3381901418725115 5.496568713625674
Ag 8.354172831811923 3.8970738975805506 5.649241989344766
Ag 3.8845833499989193 4.041665028294696 6.849336589562787
Ag 8.504106667153593 6.961671292820517 5.341513390364943
Ag 3.6270288019994004 8.863417773358579 6.121674219900057
Ag 8.448196818608485 9.785445571257581 5.788774817549698
Ag 5.996850916549759 5.256719664560985 5.298156767332149
Ag 3.8829520317554116 3.698644427417004 4.047937166768558
Ag 5.968292494416121 8.08948491807282 4.744608853556407
Ag 3.2743575668347145 6.260804985475686 5.075436294367729
Ag 6.6783064506705285 3.622355717844285 3.1656165188900833
Ag 7.5035885570535505 6.216349414806706 2.865697426114021
Ag 8.223422248681272 8.881202967463967 3.205727609773662
Ag 3.5229210307556826 8.422369052972352 3.331572062138762
Ag 4.757945687813234 5.919177494667621 2.652002173980363
Ag 5.87486580044375 8.295695657804005 1.8014479614662553
