32
Energy = -65.96323187 eV
Ag 8.41862299969337 8.62778628929437 11.880928250255687
Ag 11.045225792914373 5.535982088149595 5.907503458869602
Ag 7.160174846290789 7.573484208567322 2.1396256691890385
Ag 8.810625516153308 7.1563451013673225 6.6140281733358215
Ag 4.717963675051349 7.56402858732809 3.4400423459141547
Ag 8.012076590775498 1.755270176605918 6.093209169938217
Ag 3.49521455346804 2.997943411905911 6.542580778535884
Ag 6.287315371757102 8.447132502776705 10.16083369974817
Ag 2.8961459047316587 7.9049499059665465 5.6622788197291
Ag 7.738159436772317 3.357005176200131 8.33336586002726
Ag 5.7567605979001115 6.955631904357927 6.104068712033286
Ag 6.982012110593656 9.029328287351172 7.504005608150048
Ag 9.396532049004884 6.836514965438351 3.8761650217165715
Ag 4.30254913866158 8.747772079315842 8.054057315094814
Ag 6.657545419409885 5.532039269122337 3.88353392742339
Ag 5.049661830395629 9.767596497224549 5.540095761475375
Ag 9.716294613872671 5.320011430995599 8.444523721483211
Ag 4.9818648061200985 3.95717841604116 8.918845493640172
Ag 10.335515731881689 2.97022104054916 7.0747775928226835
Ag 5.653940553684303 1.5670665538594146 7.5906570713955945
Ag 7.568672377791901 8.788976219132243 4.738457852383193
Ag 3.202442173973027 9.808542256640948 3.466450767570992
Ag 5.9717055777642125 4.050895006019793 6.209079634759822
Ag 5.984126493638194 10.067562592174152 2.834985370832864
Ag 3.855883625942937 5.251884368777553 4.675506383184977
Ag 9.088874553303947 9.4220625934039 2.5287709200374757
Ag 6.861376219950578 6.0625519864934505 8.627727469851298
Ag 3.3730749409642784 5.657733940484639 7.34326351717313
Ag 1.8425207775235641 7.603666543290401 8.434829227618554
Ag 8.91183801537048 7.85939375916503 9.344028729223231
Ag 8.594579189123158 4.467093173427706 5.517319406980493
Ag 4.229189164742612 6.5516504807730245 9.76732726538907
