36
Energy = -74.90772218 eV
Ag 4.623840314316867 5.433876955787428 4.10614886430678
Ag 9.959576693253537 6.926264930384353 4.9532527446760355
Ag 9.176663985389474 11.184322652820052 9.763180074307263
Ag 12.165645211052405 7.66667579018795 6.4557268595107375
Ag 2.6760183649527964 6.284115488466292 6.007508464011542
Ag 5.711509899516095 7.771900474210015 10.25213914178587
Ag 9.291862579720721 4.302914622636698 4.063501657456308
Ag 10.112870505673 9.582498868971879 7.32834866162387
Ag 4.983616118515867 4.996081854228072 9.595209103199794
Ag 10.006871022104974 6.864742257314658 7.982960715278124
Ag 11.225393134140264 4.885280624315095 6.328139283100964
Ag 2.60439759300443 9.111802349952587 6.90897599061254
Ag 5.221451164932808 9.601880523097151 7.707614601698658
Ag 2.246758927839806 4.151741069019706 4.4254298354918244
Ag 9.062025099718419 11.388828413298086 5.219099705281909
Ag 6.6407837457675285 3.686099722706427 4.882526728376403
Ag 7.656089187163651 10.868184913418583 7.5703208898945755
Ag 7.245170256541378 6.3892792744645925 4.259608751680237
Ag 8.49084897938618 8.952261207967538 3.857136245498964
Ag 7.926117591349749 6.66347906270802 11.600851581306818
Ag 7.1701288800661125 4.02495758670638 10.98356724982938
Ag 6.933886741130425 3.3177319226631004 8.204131511655103
Ag 6.380014651449806 10.512728755634548 10.123393657262058
Ag 8.63964817239401 2.2875321004467346 6.158285031630679
Ag 3.7317450056126784 7.140209587602153 8.422249949884394
Ag 7.523529835891156 7.904055277381892 6.745391787975257
Ag 3.550396129639854 9.553885042206526 9.844887653709804
Ag 8.45000039657202 5.025029667345286 6.566139073058276
Ag 8.30052771340816 4.639749947853825 13.370826055961398
Ag 11.081502468452195 9.509458371339809 4.669478981161889
Ag 8.357228623192748 8.600348006506897 9.471205061686302
Ag 6.442952281216167 10.19285634607824 5.214620059761406
Ag 7.503972446081589 5.983123609255996 8.965386241437688
Ag 5.536409020069917 5.55925411547559 6.8384416070220935
Ag 4.838189716688287 7.94270559256124 5.516947538246537
Ag 5.888412361839364 8.450197833031043 2.993423458663129
