31
Energy = -64.90122097 eV
Ag 10.033257837107195 7.895707235309805 5.276262789750379
Ag 9.623227695932837 5.1716991245629655 4.148359382750449
Ag 9.875275779171174 7.6626993779805845 8.362188682366941
Ag 8.50993798186988 2.9644119594199227 7.334539006016001
Ag 7.2534764512511645 5.093878940762947 2.473392355909005
Ag 9.350008385735867 7.430802486041242 2.453238706964065
Ag 7.86057006858468 8.89023824733363 6.785862835030915
Ag 7.0579016129952095 4.274920545636068 5.221967933112076
Ag 8.707454713573963 4.90148166400699 9.49850289175401
Ag 7.959964202765994 9.668364563203212 3.9688567652291376
Ag 6.5480340405974635 7.87153506457087 2.0441582163971446
Ag 8.724780724142397 5.834423435992051 6.79489531822668
Ag 7.539109664452977 7.015586978139047 4.4583150523581345
Ag 7.1502904480617975 7.264209769904876 9.042591272254597
Ag 6.760682485451837 2.4265840156634773 9.503472441992328
Ag 6.124196698158223 10.837892490964311 5.841566156754611
Ag 6.388619870092873 4.674422632360451 7.989540214950322
Ag 5.663995501720333 2.2935749177644955 6.784514648160196
Ag 5.144229119311776 8.783812342094226 4.300677092789819
Ag 5.276555942122004 9.167140582237943 8.005961281113457
Ag 6.071168077435525 4.932569035297008 10.69950733802952
Ag 4.903215915920921 6.017231827671929 3.8157375292489903
Ag 4.031343875838569 3.65417571372637 8.910052234147027
Ag 5.731999195151646 6.87110784327547 6.502867811580581
Ag 5.08188100454706 3.1958832715241536 3.789855193596076
Ag 4.045968108375051 4.4975603595494515 6.098325769129731
Ag 4.411016333419721 6.588991088027532 9.147544580116357
Ag 3.40183950158032 10.04420254575212 6.089235053625742
Ag 2.193313917763444 5.57508740839933 7.863084265833149
Ag 3.092781628614503 7.18849332470718 5.684888580950907
Ag 2.497830550733344 8.382071838135179 8.17160273496037
