34
Energy = -71.61481908 eV
Ag 10.471848715625836 5.711491665139638 5.368236807983316
Ag 10.856463050658542 4.6064507063868225 7.931615540430114
Ag 9.818063651024376 6.804867213470935 2.8264173480703527
Ag 9.124253671670182 8.210333379438001 5.20234818527615
Ag 9.548078228389837 7.080871287212303 7.787834297541723
Ag 9.043556828892573 3.3354255939498305 6.181651190678549
Ag 8.516646618600529 4.448442256220545 3.6253518588084876
Ag 8.4270845865229 9.187553288448463 2.6657681237679127
Ag 9.855413787825638 5.803423999017958 10.27700254341638
Ag 6.307439633220774 3.2567484103053688 6.713402448021847
Ag 7.62119098773088 5.762757129184543 5.933010483491322
Ag 8.10893020106792 4.47700825649336 8.573835812752112
Ag 7.028268395106011 6.780248172001251 3.023582960576267
Ag 8.158689632579922 9.468260824352873 7.545393393299395
Ag 7.442403968397138 10.556896474084601 4.9216443637378084
Ag 6.685678566377725 7.174629515659708 8.317750281864619
Ag 7.117437886536039 5.874846581165057 10.802301696346438
Ag 6.209106131129681 8.168659848931789 5.701927914366373
Ag 5.653165897823527 9.203142776397746 3.079714202498537
Ag 5.300171288960611 4.614013305767909 9.015700401700673
Ag 4.621422047811835 7.056009317648312 10.226850752780862
Ag 4.821764152029761 5.803912516963497 6.416763688942949
Ag 5.7604671924575275 4.459567730550839 4.046138239627201
Ag 4.4548392903971035 2.1527504704227574 4.945285611500676
Ag 4.045473658385543 8.298940501902116 7.762133140953389
Ag 3.486904236688508 3.353231807936892 7.311060831423836
Ag 2.769960574419557 5.878570302816749 8.459841512609634
Ag 5.649337008775468 10.50732386578861 7.107276650323066
Ag 3.734722752075843 9.382981197727476 5.132915445183336
Ag 2.296270710220906 7.06868166561818 5.818274438917416
Ag 4.254555038608779 6.891625174397752 3.7232817123984354
Ag 1.0567404777339608 4.682626644463282 6.628168245189737
Ag 2.959648881608905 4.57034924662928 4.549393890601918
Ag 1.6949281620176138 2.248712993709565 5.461724227186347
