34
Energy = -69.49882095 eV
Ag 10.131194305146972 5.076720389392699 10.563834377852594
Ag 7.680582108485239 9.499961334089445 3.3664608567105363
Ag 5.109850007287372 2.564114283674215 8.649446564375156
Ag 11.263494545476474 6.309922076085502 5.227205696168574
Ag 5.542403225875017 6.965940044047717 8.00421463414874
Ag 8.165049039154377 6.329775482869538 8.91703563189494
Ag 3.795434761936589 5.179514322773066 3.862690312140854
Ag 9.41333790374842 7.686328748916208 6.689795035629168
Ag 6.774079880521683 8.29321495687518 5.695502082437809
Ag 5.761306635926536 7.401167878707294 3.0909789598247785
Ag 1.945439288961839 3.1798302337126882 5.032287565683812
Ag 5.771029609765227 2.515726108826843 11.32692089180545
Ag 6.651746929303984 11.39559793759403 6.601993561458874
Ag 4.786097666534235 9.548243974534563 7.294903587387219
Ag 4.15065304529365 7.488091645411844 5.40719358586623
Ag 2.4836436255662635 7.941044582690941 7.568534489597605
Ag 10.507896628392364 8.750773715725833 4.082484056101793
Ag 7.813884361041272 12.080192560260796 4.156293449248616
Ag 3.1368645360159566 5.652020170397289 8.949777502385118
Ag 10.733510759229647 5.5839286783718345 7.945716993027107
Ag 6.7459781317923575 4.365196496721169 7.468345676358405
Ag 8.54521162756784 6.795039085412995 3.804544519756081
Ag 8.993033443398755 10.250302269021224 5.870999866609453
Ag 8.90435369333419 5.006146938087688 5.9057932819833
Ag 5.601379396444433 5.054239536392796 10.040211746206841
Ag 6.343623472710966 5.479088165121115 4.988953324545437
Ag 3.247246412704959 3.3949024350736834 10.57471729124922
Ag 7.566542685067832 9.159144182101981 8.188541853799112
Ag 2.2549137345314096 5.553740058812488 6.274291115616064
Ag 9.729979496504283 9.82054059501638 1.6388834617309964
Ag 7.943996773122183 3.6090373327590037 9.941579786391005
Ag 2.4444571021158454 3.128160977197486 7.835895908224041
Ag 4.529936050873428 3.5689940474031348 6.052942522653258
Ag 7.794303707783701 7.793168148648087 1.222667792708191
