32
Energy = -66.31997806 eV
Ag 9.4567096933645 8.516984847092196 10.484649884857477
Ag 8.099237515702885 2.6779103186292255 8.904950227165186
Ag 9.026022554152018 5.3139303805910725 8.772311020701544
Ag 6.849583045166891 4.4626955553367775 10.696827203047974
Ag 8.987030624288973 6.020675172767017 11.474386114804993
Ag 9.025248951978812 8.036667151717383 7.788220859414478
Ag 7.715062128248836 3.510730924476393 6.236762756083697
Ag 9.925915951047251 3.6058126589815758 4.4449474094219426
Ag 9.67921657820513 5.857527081786594 6.04391948921731
Ag 7.361205632488794 9.91342408145781 9.370728546939034
Ag 7.682318481884159 5.280072602140988 4.049703079722269
Ag 10.338622561297502 3.3125305116118753 7.214499609841606
Ag 5.761814515280661 4.13097654741511 8.180225494572525
Ag 7.033940716217546 7.141238789041425 9.706159128163351
Ag 8.276104809655505 10.517939265017112 6.63832119814465
Ag 7.057835675101591 6.23439764067879 6.773173267975991
Ag 5.3586874231914745 9.28983190588296 2.3382711544583805
Ag 4.507003567394411 5.882894867392211 10.052537958850804
Ag 8.277798215913256 8.13965137376062 4.996808990336191
Ag 6.100671039477577 8.871883559027356 7.139358826382307
Ag 5.203263029511318 4.589906747188797 5.369810971467749
Ag 7.331287637281265 4.84911753574198 1.3407340630172504
Ag 6.227742870813952 10.300890383761965 4.743716600671984
Ag 4.324363795000803 6.4515682657449345 7.3631520210244465
Ag 2.3183053047494417 7.428404730847808 9.064191408535331
Ag 3.0864925974450315 6.462558688307486 4.735026823517387
Ag 4.679703249461987 8.71402183431201 9.505147959231369
Ag 7.365887956092871 7.411608763422064 2.3908209308697903
Ag 5.055543457963514 5.560260719587396 2.7598370894356368
Ag 5.525674434408298 7.578508300807589 4.656362373491677
Ag 3.2241749040301735 8.851547787778566 6.811249654557859
Ag 3.3127636255757706 9.25906355008729 4.12842042646937
