32
Energy = -66.63244176 eV
Ag 7.11883665751852 6.274020629423838 7.898096869054179
Ag 8.064681157207142 6.388806362527985 3.408255624751327
Ag 6.881678957367624 10.773519004510867 2.8769227026290087
Ag 3.6511982523077275 8.028742856240195 8.60010020812485
Ag 9.938341144958894 5.991832137364561 7.862936365289298
Ag 9.675412435525377 4.094554000212062 3.6745421585063642
Ag 6.997377786999915 7.094459249945165 11.721276398735665
Ag 2.7428505362824187 5.730887964128666 9.872092457667005
Ag 5.9397684503547294 6.021366551958718 5.372957987842466
Ag 9.094376674199426 8.914159015268663 3.849164004445587
Ag 9.425957225677145 3.245951593248347 8.37674790700798
Ag 4.3449994498510005 5.423525466495049 7.632340102681248
Ag 10.99775474931577 4.018753384391709 6.147310479653059
Ag 8.214023036735718 4.348384379875511 6.0341971499471025
Ag 4.659846217902554 10.678793181576623 8.071996567130295
Ag 7.572967230749811 10.521813101611178 5.517355373504118
Ag 5.454601071242642 5.296169117080415 10.268993157547454
Ag 5.33376639989197 3.3990665054983245 5.908672493590412
Ag 10.315304558889679 6.543487700581613 5.0586866764019485
Ag 8.8025876634322 8.244587207550465 6.60953099398367
Ag 5.354580174945528 6.1836303892976705 2.6787339298614294
Ag 6.190731415696208 8.44170451349649 4.017716874789951
Ag 7.674722641802218 10.3356031197342 8.260416906343131
Ag 3.6829597297253898 7.607425687458298 5.801792306940573
Ag 4.21850997372935 7.486835305922868 11.439041792877624
Ag 8.611851361944657 7.93788245648822 9.519866920270182
Ag 5.960781878011915 8.575775457044015 6.943237491101875
Ag 6.857002606850941 3.8871723199760613 3.6095557282988797
Ag 5.969472683848949 8.993719509238625 9.941638998995135
Ag 4.7907549523672905 10.560555083644871 5.208879998806364
Ag 6.5809256725573615 3.6168395652587204 8.392058672284577
Ag 8.337174984933334 5.137758834626258 10.166863829468587
