37
Energy = -78.66713116 eV
Ag 5.423088707383875 10.72240789870933 10.388996482954562
Ag 5.940951819407037 10.82952302443754 4.763748508816342
Ag 5.533317819862761 10.698827024117618 7.5813075388146105
Ag 4.228090004791361 8.675939143271542 8.869241046358043
Ag 4.639122642267423 8.6746106137926 3.129020094661512
Ag 6.872025831587582 8.372075982421896 10.127009845725654
Ag 7.91428020676661 10.773034793416079 9.057007294744338
Ag 4.4702963309527 8.745963145659275 5.885682644078556
Ag 8.08803745749998 9.882966750560465 6.39540123741456
Ag 7.186576992437612 8.398089209822015 4.2329081702029185
Ag 6.620637756956534 7.570411772636574 7.378358494628956
Ag 3.5640289539415946 6.523079116999181 7.187286686639491
Ag 2.4918934717500423 6.599082950310038 9.723113176740373
Ag 3.637065346454232 6.422486950299129 1.7316876966893033
Ag 3.0355254758241177 6.5751275282879185 4.4090681443091615
Ag 5.649712770282965 6.052971465644484 5.22245836030206
Ag 6.382287479208947 6.499563837668234 2.301346520269737
Ag 5.240185630702717 6.156063814459475 9.586562954609214
Ag 9.336798389492396 7.500209271636796 5.756402857214243
Ag 3.497115578463339 4.1024380006177035 5.7562273906581725
Ag 9.220441433810473 8.261148269413576 8.513093083207842
Ag 4.749020109288396 4.342077823122687 3.218296095781667
Ag 3.4169991964283266 4.1458196244355765 8.673201370963948
Ag 9.127539088609055 6.768256160863282 3.032553440125951
Ag 6.254851904776636 3.7840860425063223 8.48199420452315
Ag 10.34377088734379 5.024683000241154 4.886093399642938
Ag 8.022475110625319 5.861794325591806 9.373265733156229
Ag 4.462941825286492 1.9337748467254365 7.365083782527524
Ag 7.914740659108072 5.12971403689822 6.564266334017876
Ag 10.41231010800351 5.763930768934926 7.785859455237525
Ag 6.112945062102773 3.091793149275576 5.452287093416567
Ag 7.731292781065213 4.515187892561755 3.7177178713297536
Ag 9.086675395104098 3.3204328254806263 8.456583659184236
Ag 7.247878739275158 1.416399815967663 7.40594228806533
Ag 11.369366669711043 3.2748656578568434 6.854158460439602
Ag 8.962170262106213 2.684815989743379 5.583150499042059
Ag 7.417224075474659 12.510029449766828 6.757300057659
