39
Energy = -83.69225968 eV
Ag 5.716551879191892 2.987748060900201 3.6466051910527737
Ag 8.12081923953903 4.028244139238196 4.625073832790104
Ag 6.622551982869605 8.359183648094092 2.5835349691681015
Ag 6.112535378612556 5.7293236432618135 3.492741887789544
Ag 9.146319902867674 9.402188354030516 3.271322360319593
Ag 10.983605162403032 7.951225841967723 4.909429487283382
Ag 12.768166063087229 6.531961013360755 6.545217265867681
Ag 10.531897447605347 5.175513313351492 5.517963633704811
Ag 8.668050963288469 6.726934352068076 3.9396392206697333
Ag 6.3033037888432695 2.5516238507455915 6.359837250478795
Ag 3.725313688440649 4.766424810109242 4.5751907178598366
Ag 3.9966986779674007 7.547004398681166 3.4607295799849322
Ag 4.545065660061063 10.212900408063776 2.5956216675461565
Ag 6.785110104507855 10.67858929414692 4.2572623889648105
Ag 8.643673765716652 3.9589621074296 7.352533294915345
Ag 6.211646124059719 5.390805342015625 6.414733910007458
Ag 8.908955213321013 9.629723236337119 5.978489403812549
Ag 6.476427202266533 8.005417060795306 5.361502579753164
Ag 10.796124214494915 5.59541150153308 8.311704729111174
Ag 3.8268694938882235 7.026100774556767 6.182361875504809
Ag 6.352361922072514 10.33174632657612 7.026884827985098
Ag 6.233514733663565 3.889968022937146 8.83394996133495
Ag 10.973844735604354 8.3894187628633 7.6609212691774315
Ag 6.219586119742361 7.600067812803502 8.272585271041415
Ag 3.7501366657788844 1.9540842856588923 5.2621540099858
Ag 8.208420295609987 5.743791199326679 9.506143110975687
Ag 8.652877564443212 6.879121104124365 6.871262545116117
Ag 4.183824368174529 9.763669166997074 5.29610532072115
Ag 3.859432732719063 3.8673142443173636 7.247813106479118
Ag 6.023736177729249 10.231266816377667 9.754659095731538
Ag 10.10449801425057 7.616874408145678 10.227807393843792
Ag 3.8068191779576415 3.7693459920585757 10.101446199713136
Ag 8.4875588708554 9.283594877527532 8.705867237284101
Ag 3.9099244424196753 9.16268619003997 8.032519837028413
Ag 3.823841432192202 6.190410031081399 8.785035517124877
Ag 7.372361445131425 8.03805411621994 10.985798917950365
Ag 4.368647224230695 8.205055373850355 10.625568605908905
Ag 5.533843207870132 7.572487374021103 12.999274426132208
Ag 5.714801130498456 5.725474958363095 10.892424313857612
