35
Energy = -72.55262057 eV
Ag 7.997785133130127 3.070814523526429 2.098987175070123
Ag 8.04904285675309 2.5620147195133516 4.814485432368858
Ag 5.76910849535787 3.7257861128105945 3.6040682222926717
Ag 7.171212310598323 5.713038236311791 2.213894101229194
Ag 9.273230296318545 4.887729736710486 3.8890906984385354
Ag 7.941085375619518 2.0542524327616363 7.5273534803735425
Ag 5.576251824939532 2.561651891695763 6.107967709261282
Ag 9.57988853024786 4.120780756426612 6.589811284071033
Ag 3.5493116573313195 4.312531151999854 5.113032701690415
Ag 4.672146697084824 6.302612436913298 3.480270822606146
Ag 8.76416271315006 7.636017393856512 3.4877221979517974
Ag 6.281967888735301 8.294792622386662 2.3488128859284974
Ag 10.04297500703794 6.745794852492959 5.786171870667631
Ag 5.770665889273933 3.0963795859929704 8.872176156954552
Ag 3.2935985250999487 2.86315871722536 7.629638072312886
Ag 8.373366708208257 4.233081894024513 9.173250970446029
Ag 1.241257570165104 2.9179903483766063 5.801873815193059
Ag 9.945077919629247 9.45685778729568 5.238907913909595
Ag 10.303596818336128 6.079906843830588 8.443795222493021
Ag 6.246982072926406 5.134455749673264 10.70192511538391
Ag 1.8474667270318672 5.212871406001378 7.207072156235823
Ag 7.22386663092986 9.739394106355537 4.515669890906712
Ag 2.8266681693267004 7.066866893006545 5.410348028318935
Ag 4.481121891006994 9.017318789637685 4.2940620289990985
Ag 10.897368760334778 10.997205177623538 7.323695116799948
Ag 3.88017478302093 5.1369938562492035 9.197877879393229
Ag 9.476796037894122 8.676176880264153 7.932925760658269
Ag 7.964857389482268 7.021497063844917 9.60752523006086
Ag 8.187626410780622 10.96343182579854 6.8571481017600515
Ag 2.9015374943982257 7.524323149672825 8.213361559684426
Ag 5.503205470233639 10.414383933679844 6.559440678637984
Ag 2.8272190583802783 9.658925848966481 6.441572558282121
Ag 6.908833372482261 9.464000072392771 8.817626617343132
Ag 5.193983211461885 7.538293068265808 9.882768244833573
Ag 4.126049798885122 9.907140926997165 8.925828868446516
