34
Energy = -71.26705024 eV
Ag 10.266123078559179 7.353369458718046 6.564397449961898
Ag 8.921671913261914 6.321036918966209 8.75296258065423
Ag 9.447182411997554 10.122456062233672 6.017428523045368
Ag 9.045124604570823 8.162656030747048 4.161249729059838
Ag 8.551391200595166 10.664299971275673 3.1013419550021255
Ag 10.169673343459884 5.536175723912085 4.394911691823152
Ag 7.568316234874046 8.560557378786125 7.442970287545189
Ag 7.793246837797956 6.161160400466162 5.9194739510424625
Ag 7.3626735926924205 8.009989638725866 10.30049721754719
Ag 9.39632046277476 4.070198478436195 2.08968633594718
Ag 7.701305306665168 6.102216728427604 2.976521289016141
Ag 6.509932911672094 10.429986829932641 9.26188190045407
Ag 6.653059212712177 8.662873104493586 2.721803776061735
Ag 6.8176153921395395 10.061736287261718 5.135667076172871
Ag 8.459594274583843 5.729153949641659 11.484441566681216
Ag 9.472920112479933 4.238544303757875 6.957635966694268
Ag 8.123117802402952 3.606261999662592 4.501079444273257
Ag 4.924104270375335 9.754858709683692 7.093872078543547
Ag 6.5158396300658925 3.851643548747487 2.095404736690305
Ag 5.429120208622924 7.594271543617363 5.2056844459127
Ag 7.651206276711857 3.974014578364923 9.467804087526444
Ag 4.899803638840848 6.459080877044528 2.558246473109935
Ag 4.672382778284545 8.316191309911774 9.49156433637919
Ag 5.730260068936056 5.772136001057961 10.790863180063646
Ag 6.625624895424262 3.673258444570287 6.911528990645371
Ag 5.896516437767453 6.236398698779473 7.999080980794715
Ag 5.5188685600774035 4.733332861499041 4.583386602528472
Ag 3.2798446427311676 7.584329701448725 7.113989830453218
Ag 2.9637880446712535 6.226619373285571 4.658604361153762
Ag 4.912328085447684 3.5830065668377524 9.152732099729713
Ag 3.248485073495342 5.908438523977642 9.378579856823437
Ag 3.830007698884946 4.56078442161939 6.756622224650208
Ag 1.30205933222052 5.701505399967496 7.1131734538190665
Ag 2.156856878682427 3.463094405065066 8.668195798292865
