37
Energy = -78.67500371 eV
Ag 6.0116116010678 4.868223901596087 10.972509547909617
Ag 6.106373372464427 3.141040726134771 8.677436942830711
Ag 8.414222007633162 4.652823634663539 9.532722361778283
Ag 3.7236027890672907 3.863739862567058 9.834669935012544
Ag 8.640547549368332 2.2982047437284088 8.029541695665573
Ag 7.189121266819189 7.166084839784275 10.11783545669607
Ag 6.2424149305148 2.3795885082350754 5.922510176133876
Ag 3.8493707680338813 6.707704368544467 10.321014280652173
Ag 3.8303326243899263 3.397904544456328 6.990532567230945
Ag 5.053365732737114 5.781485798712584 8.013753348800986
Ag 8.997962491481514 2.345491956897014 5.336018880759616
Ag 9.62883066185057 6.959990100788267 8.574835710624292
Ag 7.553191658701391 4.7371495491190565 6.771662244333163
Ag 10.294308102751332 4.4531097364142305 7.1981478478383565
Ag 7.1515042416532 7.566020220855277 7.393447329593773
Ag 1.9405396908077899 5.306215513987904 8.392309336861118
Ag 5.192142547788891 8.81958613166768 9.011394719934968
Ag 7.3086790940402295 4.0626515662481655 3.869858465300435
Ag 9.495494520855988 6.782154932321044 5.807204738224169
Ag 10.135312309328487 4.578545492134114 4.305590930366584
Ag 2.9134164131334574 5.752448969659797 5.870575682470687
Ag 4.512225570230304 3.9726026679405306 4.2722713356312925
Ag 9.372696326721858 9.322123763479247 6.899882513216003
Ag 5.771033363385155 6.286095877115365 5.2383806883097
Ag 2.7877349504859574 7.861180121814432 7.866559501222562
Ag 4.747079457522341 8.868369451017584 6.24736493044314
Ag 8.475704404810333 6.543824777129319 3.243952283739698
Ag 7.272756977143254 8.699384760225477 4.850075310440774
Ag 9.829475863293016 8.9551592242289 4.0069299621629595
Ag 3.171116652849493 6.256894046394593 3.196284271766663
Ag 6.810355967375916 10.441682190750468 7.231938685228516
Ag 2.341708615521158 8.323200530570832 5.02223011377761
Ag 5.849871995475406 6.047222827468475 2.415712297799328
Ag 8.491504888142545 11.28929903302089 5.083103704956427
Ag 4.702485836826431 8.540184964518167 3.4461498374889215
Ag 5.723130218840033 10.960526131947626 4.584103687931153
Ag 7.113043847398056 8.6471565717117 2.0822685173007143
