35
Energy = -72.91694347 eV
Ag 7.089999119031807 3.6469557304543905 4.450394002539641
Ag 3.327613316761939 5.939427442223486 7.855751648061903
Ag 9.926289764239927 3.7727502421361234 8.583991937012568
Ag 6.959451577686336 7.802484903692565 9.201091897244732
Ag 9.708811820578077 6.619148025178654 2.431419920828447
Ag 9.489565589822499 3.4058490761022178 5.9331189012759
Ag 8.283577728212922 5.653280433109027 7.238049659188201
Ag 9.641114528070036 3.944338238238819 3.283032918289486
Ag 1.8577574234648815 8.237952360366043 6.899833445259799
Ag 6.857168581811028 6.889789974529955 11.82939873073266
Ag 9.341418987444955 7.85669748679564 10.827356585450797
Ag 4.550347886920875 8.413445463822997 3.1849839718628545
Ag 7.444769485732717 5.0064224648493205 1.9672421400604265
Ag 6.480769814770631 9.987431328960831 7.364886120592312
Ag 10.322627691531327 6.144249493458218 5.270741426034589
Ag 5.232509836778255 5.673095455036916 3.44255882471294
Ag 4.165309557046534 9.514007719696005 5.779819787452262
Ag 7.124735046044263 7.894279091843648 2.2339687386201015
Ag 4.253862470089334 3.160837779561101 8.270042311800365
Ag 7.047148952494941 3.1190330678987657 7.309537861383634
Ag 4.230730360195226 8.741011386234803 8.467269657969489
Ag 7.712706461351056 6.478411426388006 4.53801018782792
Ag 4.447961209568719 6.870877380431238 10.519556354441248
Ag 1.9925748474099798 8.914598972180977 4.136548204228945
Ag 8.332074736324449 5.352366243971739 10.122760589442203
Ag 11.020479349317354 5.687915266145507 10.29300965411316
Ag 5.869321579525659 7.233293364419339 6.568204867185178
Ag 6.781884680775225 9.39111750090337 4.6334468458127365
Ag 3.2750657423363383 6.649793063682028 5.13342996093305
Ag 8.643294952568764 8.349142591677605 6.614559088640812
Ag 4.986325692330308 4.582462854501267 6.010049497118969
Ag 9.408728898677051 8.803468380439744 3.996620835882328
Ag 1.9488295223853183 7.584820147346332 9.592451803754114
Ag 8.794112067646648 9.832661793520783 8.962923925027138
Ag 5.898231215336623 5.235765513474031 8.814373910238968
