34
Energy = -71.25013999 eV
Ag 2.4944170668961343 9.666059463323178 8.601211969810988
Ag 8.71787107435116 6.877212085393212 3.8593608692506804
Ag 6.341140337135629 5.181705931380972 4.239893144450998
Ag 7.099712354862408 5.201280943907633 7.027370454799676
Ag 4.4188267662772445 8.883652231049762 10.522831708630346
Ag 8.395249335231691 6.043852751692505 9.438412463439331
Ag 10.249051371863592 4.229165434408402 10.39426815445081
Ag 7.841054107281182 9.950871333930106 7.47727063116785
Ag 10.565496923862788 9.745410162153503 6.685016638933051
Ag 10.916789761681514 5.618826988404109 7.977520830681908
Ag 3.3662856624169186 6.570998311558613 11.523892543597052
Ag 3.4579507111664896 6.963128598640943 8.745945923621383
Ag 11.205604714569283 6.840808607060035 10.505029894781929
Ag 9.729477021482701 4.892709064087726 5.523331044305053
Ag 6.600756594048226 8.691524875990089 2.9666645507498544
Ag 11.26315955248988 7.25965410188989 5.498223188315934
Ag 5.2211584071852695 10.273276360065777 8.257253662545038
Ag 4.487689608124744 5.8648719410747026 6.336271854272388
Ag 12.240634226004897 8.04649797432456 8.115049384527582
Ag 9.061990955730778 3.5175854435704514 7.958581894414978
Ag 9.761451589975218 8.838816148442312 9.278490793625295
Ag 6.221606164292685 7.519846933573447 8.295384232152392
Ag 8.917204942210555 7.403397849760911 6.883683589725433
Ag 6.099358404735476 6.6562181233976405 10.973405714559007
Ag 8.78666376437011 7.630103629563785 11.703020323165473
Ag 6.477780697809791 7.6829019377967045 5.514019479572971
Ag 8.576800702437325 9.520472188116793 4.767013464990124
Ag 5.82536380187984 10.360008082397059 5.359491877304374
Ag 7.746392580870084 3.000116926851556 5.486894125638567
Ag 7.1584855825545395 9.32612018326421 10.2039013557762
Ag 3.402110036118736 11.281810796992865 6.4519347190661085
Ag 4.3400775912499965 7.202643834313319 3.8366836913613134
Ag 3.783621488081578 8.526610423244138 6.389251335004409
Ag 8.639966015504871 4.222802557873339 3.003487174501961
