39
Energy = -83.07751758 eV
Ag 3.611969109047805 5.041424600750386 4.436764674928608
Ag 3.1954608349182694 6.996215298289861 6.475751171698294
Ag 6.111625408822117 5.183217818314005 3.2726816356504425
Ag 4.89988572394499 7.51741032299102 4.378552560313314
Ag 1.9050012510652385 6.040853908429891 8.769211684543055
Ag 6.262839753033479 7.781390274488937 1.9514092340722111
Ag 5.73054789750196 3.3652283711384423 5.488421766539299
Ag 8.7949177614626 5.352256616673057 2.2858261076838633
Ag 3.4290084071293396 4.197296660378908 7.038063223698048
Ag 5.369566888825845 8.69238575010027 6.959692982142999
Ag 3.6311711574294185 8.624319949913662 9.215166221640104
Ag 8.330333889279078 4.486259707192592 4.877855158759997
Ag 6.370074316978216 5.9760453311119806 6.443033205076919
Ag 6.484352003782928 9.759265721934561 4.572166779657749
Ag 3.2722647182776003 6.201327123170447 11.249292154932958
Ag 10.289679219815133 7.6821027693489 2.250280069467162
Ag 7.892678311708096 7.268846600568789 4.054735231667178
Ag 3.4689674248578295 3.8309533991874485 9.803937960338068
Ag 8.343516116383663 9.672453931173946 2.5039485947879587
Ag 8.220755345445475 2.963907335625871 7.1239733410135395
Ag 4.692230157532396 6.191072685211755 8.746042197044613
Ag 5.896241964879688 3.650402955689962 8.3282621926346
Ag 10.446324121412323 6.341928173407202 4.8026964382581605
Ag 8.632602791378979 11.575513059948014 4.5804336485538695
Ag 8.22155745252363 8.139898408771403 6.640704702583046
Ag 10.136613984753565 9.131353275729694 4.6141370544288245
Ag 7.37573987396772 10.796871190718141 7.02928093258231
Ag 5.857190504851696 4.833247823636012 10.942404071922505
Ag 9.439784647316477 5.541179346395166 7.285255267106656
Ag 6.359222751249715 9.623710616108207 9.380127761891487
Ag 5.647344908695548 7.64171702428286 11.225414838082155
Ag 7.393098216467254 6.87097178587957 9.080495133981373
Ag 8.442915039133277 4.273307142061075 9.592708179361276
Ag 10.945029052292856 7.97211337485945 7.185337361055285
Ag 10.222107607424201 10.771552015543083 6.778181316472604
Ag 9.19862332825126 9.463622500389533 8.936594665312725
Ag 8.247361465297516 6.020276927751964 11.73015645392692
Ag 8.226058575198998 8.732392388759726 11.356970494994247
Ag 10.110532346715722 6.900902143126322 9.71922786024746
