36
Energy = -76.9415326 eV
Ag 2.938971201922249 5.833847129971932 8.504455506126078
Ag 2.74985695226335 4.725837326470163 5.871977456964604
Ag 4.596739964727922 3.840289897541563 9.718560935275477
Ag 3.811818219298692 2.5940657980250936 7.317910355853011
Ag 3.7382619592016066 8.648560714128028 8.718440965507014
Ag 5.154033219571328 6.6303591706454394 10.04371772557901
Ag 3.514898043575852 7.338467522883143 6.2040270750221405
Ag 6.425218807410403 9.385394414357734 9.474485657960905
Ag 5.3492720990203715 4.9669392411984425 7.184331832702553
Ag 6.51492003607585 2.521453762606543 8.067167038520294
Ag 7.274866288036501 4.651921999286475 9.788622702790983
Ag 4.983598740256545 3.357587070434671 4.793241012694521
Ag 5.72622878777473 9.040587587425222 6.731509183938256
Ag 4.55920509413501 8.906495411748766 4.115339984358275
Ag 9.139982686105592 3.4815859122445376 8.017243681566217
Ag 7.561519714599325 3.613800714598497 5.749833712616199
Ag 4.3195372864597505 5.9521992486844 3.823661531050313
Ag 3.2365353517810216 10.158366786070939 6.346281003078254
Ag 9.066436528294338 5.97076479838159 6.376154342409805
Ag 9.74511976078758 5.948652148982755 9.182542892408577
Ag 6.989702781920073 4.824152970685793 3.3201836048254245
Ag 5.551838351770539 11.445445382559958 5.222691805053148
Ag 7.821365775769185 7.296127061151448 10.742472734361552
Ag 5.144624899428658 11.448889848096679 8.046982494780668
Ag 9.756070394547724 4.4229074626278475 4.192255785861714
Ag 6.325763641696581 7.518501895319881 2.5173617050895882
Ag 11.439269289403411 4.764849507533566 7.056845130588731
Ag 6.5373556104387465 6.783646899636138 5.322627695626761
Ag 7.127195077379079 6.980074779113428 8.055329382281654
Ag 8.852676624116736 7.1071598498777355 3.65173551147946
Ag 7.349185676285472 9.485865291968228 4.324734552820524
Ag 11.323879404894356 7.5664639524166475 7.555475614411709
Ag 11.325371436238925 6.743526311920113 4.898009791766307
Ag 7.81236049945615 10.74939339233752 7.031528673256047
Ag 9.545143297559157 8.858580944070347 5.85468966778046
Ag 9.139393730020027 8.878381201284618 8.70740232907745
