31
Energy = -62.63502202 eV
Ag 2.338000671529786 3.3359043389460905 4.893625738292727
Ag 3.7766727191059055 4.66751248788579 2.9492629669768493
Ag 8.0444813543058 5.9199306697946215 8.217990336485217
Ag 8.641339009854487 6.8141565499199155 3.5693099522245895
Ag 10.03079888193862 10.31527165449388 9.75651140533531
Ag 8.191994059193473 6.21959182804319 11.162567144924283
Ag 6.614261035503857 8.870579376957167 3.4988843156140823
Ag 7.77617885677677 8.607460106468292 9.865327539705259
Ag 6.73130122521982 4.118142779206667 10.12413092245204
Ag 5.623394536803857 6.666821905292367 9.708044501182696
Ag 9.234991150148693 9.381421701757063 7.284222930398026
Ag 4.5032976488920164 8.38879791444782 5.466424175876946
Ag 6.812331500566964 4.566566290663825 12.790515603206591
Ag 5.805068551795515 6.2495772404174605 3.96611770975095
Ag 5.708970538205352 8.849103763761567 8.008789795532186
Ag 7.299238774333094 7.693591949020259 5.9403517833156485
Ag 6.681757391519709 10.382097278514767 5.881963815489124
Ag 5.148003071444767 3.757014795774403 5.1796615486116755
Ag 7.479554516542844 11.040474139970193 8.576348579521836
Ag 9.880977991408795 8.3102807207409 11.717017481327872
Ag 9.268394243662721 9.350189145609773 4.5059858877357755
Ag 11.40744906487731 7.599586108915162 4.042277310823886
Ag 1.6867467430690124 8.11960780602624 5.946838384668833
Ag 7.824246384384338 4.845917706508526 5.426392564065232
Ag 9.965058358458972 6.885416027572364 6.304164266583747
Ag 10.239820095243424 7.471659453280442 9.087621093384636
Ag 5.47379468903551 5.849563887794491 7.023968552583989
Ag 6.702246881034666 3.4113768317826185 7.50254980942824
Ag 10.511542874285734 4.955775311308427 4.447832700774309
Ag 3.347401148483991 7.305757461824853 7.975798607518882
Ag 3.148825156055892 5.9291530542733994 5.319827822601445
