36
Energy = -75.73692452 eV
Ag 6.4808958021240475 8.242283749005823 3.4868149687809584
Ag 3.4662715293899202 5.0695656759766194 1.531319292470957
Ag 2.192397518422865 7.066630878129851 6.248520144784499
Ag 6.674561648006036 9.169016034317567 6.07226488148032
Ag 6.300287798760437 4.024331816832252 7.847857594182992
Ag 4.819978292267707 6.992443801310442 5.4630573768105295
Ag 6.568600420048998 9.915759754481538 8.776145912161562
Ag 5.749391045952946 5.579310245560016 2.9854707412959276
Ag 3.7910597280233085 4.90967650514357 7.0870154440164725
Ag 9.183415544420725 9.813338919205977 9.823389104133405
Ag 8.375586028664646 6.383451333986874 2.637287548655375
Ag 3.174673689755878 5.0026998741936035 4.313176668467471
Ag 10.822753096446446 4.254871033021569 8.778249190072255
Ag 7.552376979566776 7.490026948625003 10.450650745161516
Ag 5.086396380230302 11.360324842841209 6.841844832277093
Ag 3.1239041844914044 6.767730669178272 8.971409704338045
Ag 3.7179357230578987 7.5343388521346135 2.9257666663669313
Ag 5.027443109823617 2.956298953730219 2.689987769037663
Ag 4.0263203847283915 8.960721802550536 7.572520184849183
Ag 8.715061732136252 8.241556180083748 7.648277397657655
Ag 7.40062832881447 5.929813582605113 5.634676787480223
Ag 5.522842695982905 3.726960238316164 5.26808817014006
Ag 11.62076421192362 3.740170594874205 6.165664364450638
Ag 10.359322283210059 7.167994731941009 9.701531690795825
Ag 10.452530416276538 6.270394201323821 6.93017202089484
Ag 5.481536653792663 5.529376373321894 10.12461223848614
Ag 8.86074035546975 3.7339367839903543 6.645517555189425
Ag 7.7760159427804885 3.7082876396014592 3.7005195858106843
Ag 6.106456236133861 7.013140972286992 7.970196952142052
Ag 6.962653596391563 9.84711128069668 11.652231231264787
Ag 10.070132715685524 5.198461613637056 4.4199404388652495
Ag 4.863850855482421 8.386857920025735 10.396484530507331
Ag 9.476897544826409 8.499245770126521 12.19419644181957
Ag 9.088502520539896 7.965333041129763 4.8809894118400985
Ag 4.237727189837965 9.641062292615954 4.7207812484798986
Ag 8.343614094489993 5.381001371155933 8.916897442789724
