39
Energy = -83.145243 eV
Ag 10.684293472827495 8.854138633910283 7.797966057176948
Ag 9.36775951661058 8.361279717573217 10.211853096588309
Ag 10.471366538644416 6.223126675411245 8.920139246034664
Ag 8.231440025028007 10.112060574979743 8.224706976808228
Ag 11.712233558822078 4.373806550121009 7.191607181053225
Ag 5.529891107184874 11.0306625904742 8.753991718067724
Ag 6.68644078604288 8.682152112472416 10.010341131562727
Ag 10.452201414042534 6.665070653117968 6.083222188964594
Ag 7.754281227990367 5.911716378106027 9.99353026284878
Ag 9.05436167357212 4.034244058817334 8.057720801513613
Ag 8.86369692306499 9.095359175428646 5.681588102277872
Ag 7.997200894370577 6.983244150807103 7.458949873419058
Ag 6.759193955448354 10.988654987449456 5.972827228095824
Ag 10.411909224051701 2.085478296209274 6.414390422547732
Ag 5.375491200126058 6.882959393869891 11.57790948187219
Ag 10.541015788338385 4.284401707149176 4.6240769471703675
Ag 7.912737039473263 4.828457983367772 5.50679216637417
Ag 3.944715553986781 8.791611351306214 9.780968945244059
Ag 4.388187427179744 12.415829309207403 6.61249506445863
Ag 5.149381721384698 6.397611274832923 8.928238505473404
Ag 8.934776712198136 2.0434984440430664 4.038702467486277
Ag 5.714456425303414 8.744942697535752 7.258144292538222
Ag 2.9409783161322474 10.273980429019199 7.594661058549419
Ag 8.4263154820454 4.441331248777313 2.6928221197176776
Ag 6.287757839629133 4.104605050955811 7.9829135670703035
Ag 8.736229794841389 6.950004402188105 3.8825567576211295
Ag 5.528240287464482 6.235254629033004 6.091436067164942
Ag 6.431925205549182 8.502479029386409 4.430269809131183
Ag 4.18810510433728 10.061322326265085 5.079239544305205
Ag 7.5706574885877504 2.146013715545254 6.456746598100748
Ag 3.0326232043920687 7.465764462352518 7.410477387618779
Ag 6.279862500317212 3.093058446975428 3.9233561970612083
Ag 6.111714914695347 5.908506946733717 3.302354379496972
Ag 3.4987353697223775 4.6776151751080945 7.315821901755409
Ag 3.8085743997505697 7.431720500407798 4.154635722121403
Ag 1.6862903149620825 8.880442060520624 5.474362594429929
Ag 4.801970102767897 2.4869320539800217 6.196250160861684
Ag 3.9217782138016712 4.520384991084292 4.440094156565104
Ag 1.777114647318743 5.996183187482347 5.437745192857415
