35
Energy = -74.12823234 eV
Ag 10.43571531079107 4.727432683943101 8.994760682489058
Ag 9.312789763102119 7.108285575895712 9.69392840615948
Ag 7.312265852892925 9.010334854342435 10.054660963569763
Ag 10.934847835356742 6.933299485249358 7.240162558861872
Ag 11.936897351668524 4.303454090691494 6.754218374152225
Ag 8.973067111977533 8.976143519699866 7.644928411683495
Ag 4.65148031338706 9.976500757960501 9.245804945283847
Ag 7.923315148038876 3.7484265120241314 9.332820688932808
Ag 6.65690140509808 6.187487914925708 9.781747545307557
Ag 6.976577880866816 10.909183720616733 8.01302221039075
Ag 5.012654705320999 7.92652422721969 11.184207100789333
Ag 9.295113373722208 3.282783467674738 6.855195656243507
Ag 5.131844588065677 3.8547112296176715 9.293007729878886
Ag 8.222872361239457 6.121531190444969 7.2050728804311674
Ag 6.094767248543294 8.112018689650883 7.643589659138804
Ag 10.064241208887674 5.301531857257912 4.998875294299069
Ag 9.51253769851931 8.024247744291888 5.011113866838536
Ag 6.685468042796784 7.306558077188072 5.035670888954171
Ag 3.8576197768955853 6.328266162188512 9.096079858595873
Ag 5.490445239429962 5.361052592835643 6.940104919889964
Ag 7.95074912181683 8.878205073477243 2.8503365644813115
Ag 8.333656811018043 6.15410396746302 2.977825073767522
Ag 7.432523588277692 4.354320204258507 4.978778299726268
Ag 5.20445618534197 2.7883988488598135 4.694010287563805
Ag 6.545822308628307 2.725904845239696 7.1297545775738875
Ag 2.479633143287674 8.443336758400743 10.228458033435047
Ag 7.597045626746256 10.074218269079372 5.429133489535077
Ag 6.2234526766330305 4.352967767559857 2.4612855217206056
Ag 3.035827244142686 8.483537563378295 7.486419175334509
Ag 4.819190486119806 10.279820437103105 6.292016833785516
Ag 5.451217158034319 9.767671896721355 3.617124649284898
Ag 3.7917708203135607 7.973531320993754 4.844065813266138
Ag 5.625243060895972 7.181951972781769 2.4619770659848186
Ag 2.7855009461686664 5.904375488633103 6.491982555558982
Ag 4.422121969565194 5.38022034234713 4.2807547982157
