34
Energy = -71.18455816 eV
Ag 10.803798115051046 5.202796827215537 8.798062801323235
Ag 10.251227917696124 5.146949952538834 6.078462854338417
Ag 8.779725606219259 3.49977613530783 7.879919689225881
Ag 8.332122422855377 3.2648823563042653 5.140633270572234
Ag 7.84206962553365 3.2183510193868208 2.3232954704024493
Ag 9.655587601584903 5.020553828898427 3.3150205459972484
Ag 9.989004185779669 7.271629888978771 10.391910262864286
Ag 10.239344019373927 7.685862041303513 7.499792570562965
Ag 9.777305300626027 7.50774488275773 4.661649858709291
Ag 6.193792928404918 4.11839220406927 7.018215769783107
Ag 7.4602518179107165 5.985317987954921 5.299587365429379
Ag 8.524666921661517 4.727921386875216 10.481013741203508
Ag 6.938822587435133 5.8250448476787975 2.2737158979408014
Ag 5.786718261457295 3.997727113987967 4.059528003713024
Ag 7.339020755889257 7.114822744675574 11.23101996010478
Ag 8.010971183905692 6.227422551067288 8.222968053244037
Ag 9.20083504806512 7.337429747680577 1.8813504439966147
Ag 7.1702261697012135 8.309238637135769 3.5854318706503743
Ag 3.734713483786835 4.734102841431023 5.7325133661989005
Ag 7.74169775853136 8.569221105612636 6.397216915650148
Ag 8.111449009593418 8.942248281429135 9.204320539307016
Ag 3.6761936150236108 4.026131887976961 8.422695324822502
Ag 5.729601162005625 5.400994538487973 9.669552807728632
Ag 5.389233648744075 6.9014556152975866 7.1139319841779365
Ag 5.319139397828461 8.260858035931555 9.684259995209075
Ag 4.861217390614034 6.691534944536371 4.062532279948513
Ag 1.4115973378841256 5.279047549979281 7.208981533275777
Ag 5.1490656026335335 9.155816007363615 5.329638067619945
Ag 3.145694874853219 6.703488095727411 8.853853338472243
Ag 6.053603573463306 10.241687782136685 7.868225199090669
Ag 2.7075609494535575 7.288615335502889 5.850720870077762
Ag 3.4108876011591427 9.212900718583395 7.728724542586881
Ag 2.4916962940377796 9.834343302508564 4.9223275931032555
Ag 4.102731899363265 11.536025620427761 6.396009951160222
