34
Energy = -71.73359682 eV
Ag 9.531392336798808 11.325648654512518 7.194130688842498
Ag 8.253962910594655 11.459058892073367 9.702949435565001
Ag 10.435170456524485 8.87102198449623 6.197068086942508
Ag 6.6878051422728735 11.151155295610574 7.476407540179003
Ag 8.002641662989804 10.003726901857982 5.2393483139204
Ag 8.39456214480851 9.241451171389 11.324114826632465
Ag 8.833350932624917 8.969824122912703 8.515870130225183
Ag 11.275012057839197 6.352425366744005 5.189792005663602
Ag 6.098113089290803 9.378119013299406 9.60821014401226
Ag 10.488179172082628 6.578077322541547 7.861913186822941
Ag 4.944169307079888 10.336531327965814 5.442565141995238
Ag 9.184251659037995 6.733051705362452 10.322021483762308
Ag 6.184042015508739 8.366084160026642 3.8394753179284735
Ag 3.6996387197235694 8.888881931754094 7.917381382602971
Ag 8.898801933836602 7.5416910404363495 4.244670188322017
Ag 6.259284095624061 8.430447113675932 6.922954964825621
Ag 6.578904818773451 7.1843481129777995 11.336488061135492
Ag 9.568083231922826 4.901711362060521 3.338682629846453
Ag 3.8427574332943233 7.717044192361436 5.345476763151068
Ag 9.143260805556432 4.810265872611221 6.049957079871829
Ag 7.658225047693337 6.421747536954557 8.024213784753993
Ag 2.9069854863682383 6.097826027209553 7.430249284861314
Ag 4.963602759217041 6.754746721174597 9.137469372629624
Ag 6.5831880943622485 6.134820857607802 5.4710293970697395
Ag 2.164125312258845 5.554724189163415 4.804202805677507
Ag 7.19805102215886 6.077374089422146 2.568764813352868
Ag 4.607860300948449 5.797882839896348 3.434714684937265
Ag 6.967737349732103 3.762918397343198 4.244487824425152
Ag 6.661934569399695 4.7166718266746255 10.114713092235181
Ag 9.144267795350904 4.143566233770342 8.796920323988967
Ag 4.384446497543157 4.241952562323614 5.775245246246556
Ag 6.796250736690799 3.7528107473217776 7.114947710878734
Ag 4.428639107387005 3.998991129164068 8.575332392326205
Ag 7.060248672162439 2.154190807332325 9.288434955649292
