31
Energy = -64.97401114 eV
Ag 8.89147869772722 9.852815033212806 7.037057602703942
Ag 10.678148332950071 8.116786192221786 5.731981236823103
Ag 9.211051876300608 8.888308734858965 9.82820851770807
Ag 6.2299681679809815 10.044596562570874 6.087788331470954
Ag 8.066406914442437 8.299171619985403 4.769127250731802
Ag 10.62186638774831 6.9980692520129315 8.305879977168747
Ag 6.704778459225867 9.856697972523483 8.897296889848
Ag 5.27949217717903 7.908027020157059 4.334897660083526
Ag 7.155798288884312 6.1794526719492415 3.0226120176427784
Ag 9.897321314224213 6.566081847678877 3.5147431896497494
Ag 3.4502673071252885 9.523914707865126 5.576984444073631
Ag 7.8237144910619225 7.430300976130095 7.824711209719384
Ag 9.682013936322317 5.524818152182209 6.121165989435102
Ag 4.202960893358683 10.605722857897776 8.054977005889477
Ag 6.810739150099743 7.981300392091109 10.988709954901942
Ag 6.738763002097792 6.015237131017685 5.780802625089131
Ag 6.383517009976822 3.472516497529113 2.639437921073721
Ag 8.78911997806207 4.0358182009369665 3.8731050709902206
Ag 5.007480129053333 7.8523293589246 7.328946247397456
Ag 8.558393849367572 5.943256746974515 10.062312177282275
Ag 2.2063512645812313 8.652582476491641 7.928194047230774
Ag 4.2573916120565665 8.461929721388008 9.969369827194335
Ag 10.20068085194874 4.210650017447138 8.564583276928172
Ag 7.47738597298854 4.360553026093048 7.923961033939159
Ag 4.641105104696645 5.023952112907338 4.19459471124999
Ag 9.182932792783395 2.7699808451279573 6.359650736305343
Ag 3.004708610002021 6.667606664390878 5.844121854831758
Ag 6.554031627728068 3.217108807013126 5.438408934548426
Ag 5.750271093330626 5.987401028513216 9.413405421455826
Ag 4.696493626907286 4.626490716113952 7.092529452214728
Ag 3.0453929820835297 6.161972849090915 8.710363570009559
