38
Energy = -80.51057815 eV
Ag 10.01826917813928 6.376534757730162 2.9714715483005425
Ag 6.622759901427196 12.753306459375185 5.568013416818404
Ag 6.646546467490359 10.503918583897537 3.876545614079887
Ag 8.804197106731568 8.471896767549156 4.238871622662511
Ag 6.369121850220384 7.910468435337665 2.7971507950210026
Ag 8.170682147487987 10.53028575290752 6.1651756404956615
Ag 9.54840398022859 8.240152039461806 6.946991704007374
Ag 9.909158521555392 5.847503716695967 5.7029534219584805
Ag 7.537293118886889 5.682466494801887 4.061554464521275
Ag 6.750499871179297 11.842016518423712 8.285451159149387
Ag 9.658256274452066 3.7372044983013417 3.9156562877952488
Ag 9.76502593395779 4.675685603024302 8.25934105639985
Ag 5.224610080563318 10.463210536333289 6.534931074825494
Ag 4.209794770666176 9.17633268313702 4.297971319386478
Ag 6.48989497645427 8.06099374921334 5.698374172194872
Ag 7.374503606502792 9.126519626419604 8.447416436000823
Ag 4.951283629765687 5.455351233135062 3.0561317472001934
Ag 7.557342363774622 6.204884851350701 7.565303361317723
Ag 9.205343507727088 7.234598830075764 9.572061697669394
Ag 8.054812087299563 1.579332192008415 4.48340713160441
Ag 3.6156325298050316 7.734735757056332 2.0541236064187984
Ag 7.981298505515273 3.7456262939591967 6.207847695997585
Ag 6.299586171181305 7.126275171301947 10.00807549845786
Ag 7.918683932447227 4.881860636759994 10.363927738867979
Ag 7.794277500852801 2.6318706474684648 8.80872453110107
Ag 5.325142468199772 5.452127102969546 5.944050770138629
Ag 2.9119159139252226 6.731449110441922 4.586997429185027
Ag 6.422927782596336 1.3814659412537473 6.730527324563877
Ag 3.113571016282721 3.9752440693840687 4.579740037396728
Ag 5.748719195708781 3.069382396817351 4.454498536678874
Ag 4.737650693417937 9.321778608807858 9.159570062864436
Ag 3.834138202004015 8.010895251113944 6.887413368537913
Ag 5.61497929584443 4.559739408549126 8.765417039569522
Ag 4.119970791893935 2.8878509122469187 6.9115732526751685
Ag 2.737966222617914 5.371884110652294 7.065818639986273
Ag 5.181832101915546 1.7547409028026104 9.246477211482578
Ag 3.665282352008687 6.655057126058245 9.36635010473974
Ag 3.070549198054867 3.7972764719582726 9.376016728711424
