30
Energy = -62.55718278 eV
Ag 8.344076972006826 4.572308233212134 7.730953732308477
Ag 10.355868038192945 6.429980956206504 7.1608753316013685
Ag 8.396696649252009 6.990010043296043 9.222668952092127
Ag 9.85294932294137 8.094684631612756 4.877608305492414
Ag 7.861443112462248 9.651359282029727 9.821674322597147
Ag 7.130629894946125 3.3926619265481404 5.4876103537564065
Ag 6.133688711968474 7.6682556731970966 10.733248440520141
Ag 6.353677350843131 4.992783035998813 9.797081529794168
Ag 6.267852761964451 2.6948418783743615 8.130877915179994
Ag 4.056272180774812 6.70445232821154 9.02200265033784
Ag 7.730564335313849 7.077162024980658 6.434471237678268
Ag 7.279051158491973 4.226034213717467 2.834163468124307
Ag 3.7929068427491632 3.9655789844504006 8.743814038514085
Ag 5.692176340819334 5.354949151946001 7.11661521644255
Ag 9.508749741424381 9.066107391632977 7.595533488874579
Ag 5.891030266538933 8.612371091201952 8.067011774805305
Ag 4.196253061696705 3.125231514559426 6.073269375296353
Ag 7.399931122464096 10.879915126059501 7.346400093490234
Ag 3.0900895913272475 5.801942665446936 6.441765160757793
Ag 6.0150480038675616 0.9108752625658998 5.961633308572945
Ag 3.1336303839797366 8.569460710491514 7.126760765871619
Ag 6.988480846552813 12.101720503136118 4.894788466137656
Ag 9.167923006170136 5.238116765261587 4.8527935566924505
Ag 9.536533906961418 10.851096940641241 5.4259323806730215
Ag 4.93678662751633 5.10602410512503 4.241446512597317
Ag 5.08218135983963 7.659109163070913 5.4381775210366845
Ag 4.9142471542750235 10.477853151100028 6.1269617291716925
Ag 5.318022840232177 2.389009347373071 3.6165370245787707
Ag 7.167060978786501 6.869603173826376 3.651879681204907
Ag 7.235481170512286 9.381268328815043 4.875201918143315
