32
Energy = -67.11029624 eV
Ag 8.049479012757901 2.6790298501287237 5.029521202494617
Ag 5.297974906728422 3.016334312932094 5.621310391505486
Ag 9.959105922303616 3.392958091276573 6.956900387601409
Ag 4.782503284514086 4.212628792482518 3.1057500930983184
Ag 7.258496046314664 3.9303978443476804 7.396935313497152
Ag 9.12505589206315 4.920857724276381 9.224377560423827
Ag 7.538397930478739 4.379062183046858 2.90535033404977
Ag 3.1828193097172077 4.858491032539798 5.472608906257685
Ag 4.592428000707155 4.542784136007477 7.914818874133222
Ag 6.457811679436691 5.6379879167845335 9.680307265679712
Ag 8.919377591969232 5.354986831132717 5.178199652332609
Ag 2.122679279667965 5.768359454193905 7.905375224034728
Ag 5.957165705239464 5.732744475032604 5.351178288240352
Ag 10.762449956408458 6.01139401034022 7.273239782220081
Ag 3.4451367190104483 6.662492796131078 3.381399931386869
Ag 3.8612252099300375 6.619835919831587 9.963780805444909
Ag 7.669662574433277 6.766105684404825 7.4047999952282035
Ag 11.786035718140747 8.515474716703157 7.5590229745829225
Ag 6.202953817303512 6.908588509169495 2.8081799064420676
Ag 9.030032931253722 6.832636446934401 2.8219159541044405
Ag 4.742050572911749 7.361879949517839 7.481928542359489
Ag 2.3605486790890913 7.631875210584642 5.789710106299083
Ag 7.702839910272452 8.15292051634001 4.8926915266080035
Ag 2.0819679762220633 8.439772832072004 8.609211543909412
Ag 10.474920963411623 7.770019313278746 5.091837750070372
Ag 9.816557703503236 7.663550198326916 9.387243061413026
Ag 7.137570759652194 8.494969020195079 9.52947235265034
Ag 4.928477235203268 8.505250246392633 4.8101444352401455
Ag 4.553120374959484 9.431985072634147 9.474306477024205
Ag 9.118695610456689 9.180262087184106 7.1375237128208
Ag 6.400383015447982 9.60151840007582 6.992669747852205
Ag 3.628322652110973 9.947369217602299 6.822987819309189
