32
Energy = -67.09500334 eV
Ag 2.6135913716749446 7.856176667205536 8.490199443820316
Ag 5.305553563594117 8.072983577689136 9.439390670303794
Ag 3.901511656158426 9.894110052928793 7.2358035720247535
Ag 2.7026723537052204 8.059556895527246 5.318709182589278
Ag 2.0228789212503737 5.757602169388078 6.811012891374479
Ag 3.906970525813092 5.465766030433439 8.973855206285865
Ag 4.868194913393688 7.1354190661838315 6.852752276435496
Ag 6.6137659295449245 9.753935016723574 7.462380958801948
Ag 8.116733030553593 7.9271136026326925 9.147572763356969
Ag 6.669735327138474 5.609153999937589 9.824631596487633
Ag 5.224040078314601 9.35613481633844 4.877041164673029
Ag 3.771141342579454 3.6684282688969283 6.626489494740848
Ag 3.2486774082325973 5.399422537142672 4.374882210726511
Ag 5.067243154750855 2.99298782663034 8.963467384382797
Ag 7.8710082450253305 10.032771168619027 4.903400924581302
Ag 9.362032314751264 9.583937127770453 7.177157138357336
Ag 4.31965822025364 7.559806344857382 2.9843165588512637
Ag 6.532020633732805 4.760506809449404 7.1521056819546525
Ag 7.777018024380711 3.0708620459586307 9.170567972928096
Ag 9.590733312088915 7.872884111045548 4.347225561586763
Ag 10.637180877484836 7.182386960163305 6.962507811069337
Ag 9.140539429428344 5.303550611097186 8.26960471298417
Ag 6.094625735860145 5.94820416746664 4.652786298685714
Ag 4.863292254347527 3.1890976908580675 4.144092344559749
Ag 7.048063136947315 8.14961963090047 3.0483741646645983
Ag 8.894640227199854 2.9155664145687785 6.6562751817643075
Ag 7.770225937952182 7.309463555057087 6.43095371597406
Ag 6.1840063780573535 2.097699073269665 6.412307492368066
Ag 5.674828500281138 5.099808499088403 2.1981927663364487
Ag 9.632973899361545 5.195907891704827 5.342686405996519
Ag 7.602651960532977 3.4894861435941014 4.288135838339264
Ag 8.434579646056031 5.734248604135371 2.8936697305519923
