32
Energy = -66.736296 eV
Ag 4.57287667408519 4.595536501400415 9.287763659793525
Ag 1.8444811275408486 7.410910168723843 5.819869006785304
Ag 1.531515889808694 8.109025630029361 8.529619145292171
Ag 2.460104147983731 5.5345611341806515 7.734496098139743
Ag 5.362969856722904 6.2708834021904645 11.25928878410086
Ag 4.179871225379245 7.4402245659413335 8.912259517640841
Ag 7.29252594857594 4.493598501367654 10.168181162505153
Ag 4.464593058896997 7.706196535217091 4.836248372201006
Ag 6.2137423016622835 8.64613576202597 6.950033313323121
Ag 5.381742045450648 10.393808398289458 4.983081483968651
Ag 3.2582795324901856 5.175496242945671 5.0023458307774264
Ag 6.2233966099882405 2.5982369635761766 8.391790349799816
Ag 3.884363835626088 3.2389479891062773 6.940272862846713
Ag 5.464062401819169 5.803326414873834 6.777073251655629
Ag 3.514341251758969 9.369981700297922 6.963997514005668
Ag 4.126280238177381 2.7080409218217496 4.210690304009215
Ag 8.161389116531371 9.91911507233713 5.343368722337413
Ag 7.99389753694687 6.964099941077112 5.4412644468070965
Ag 6.434057823142879 3.2264903585172995 5.615877385141536
Ag 6.914604137810976 6.964434486594006 9.01951311465284
Ag 8.882760179745356 8.518364464148153 7.74746833457237
Ag 9.570668958189565 6.172665406162556 9.284464446343678
Ag 10.680421525849596 8.669877038944241 5.625834089332759
Ag 6.711175305547922 8.43797643473581 3.3942503703529114
Ag 11.5013825983192 7.994935556980731 8.29879422776236
Ag 6.013879465712912 5.473628066448714 3.94323486676896
Ag 9.459291256246226 8.887885293422386 3.0572513769885483
Ag 8.729413880604378 4.407875342678126 4.618755408586558
Ag 8.092664489082722 4.593129241398418 7.404404492126415
Ag 10.417798265001284 6.0020780526158894 6.637074081457514
Ag 8.237328752893522 6.281074570383033 2.4634728067002594
Ag 10.535724085617693 6.45330322465946 3.925135603267482
