30
Energy = -62.64113821 eV
Ag 6.121630473832802 10.23055833254608 8.909403001557012
Ag 5.358427144195186 8.995674480652005 11.371266621911085
Ag 5.988305298431393 6.253087055763271 11.00298431465742
Ag 6.683717764641017 3.6232426409117835 10.35449813106087
Ag 8.987876117594148 10.460637803207744 9.056762745757753
Ag 7.706329377580944 8.230661860847055 10.118224318376235
Ag 10.608848174610115 9.95485760484171 6.770497223833525
Ag 8.182877644222227 5.6055937239767015 9.207065746492999
Ag 9.526586632952064 7.800564261655422 8.059113774949376
Ag 5.343812963877527 5.093494400127035 8.428229395338525
Ag 4.5892156245764735 7.87895181517952 8.99301220747759
Ag 7.3162122331394395 3.276815664376053 7.5630515342658695
Ag 8.973465326732187 5.475729985468171 6.5055449282015205
Ag 7.777731036705575 9.82745590363109 6.63892777320718
Ag 9.39156818645782 8.008663984801354 5.153863902712909
Ag 6.313063243511029 5.034446726302155 5.506134265310909
Ag 3.7553448043506137 3.935706979043095 6.244217485284515
Ag 4.096958268637667 6.679441751107535 6.52458650546118
Ag 6.8329142796780795 7.236578010300953 7.256071053150445
Ag 8.305808112099978 8.122734360261441 2.354029954179662
Ag 8.437774854374068 3.1891708726271766 4.9247424605885195
Ag 6.653788668349779 8.021111838735196 4.574708207402156
Ag 8.442540263557095 5.738254387835962 3.714198356431244
Ag 4.989500345363413 9.301346836674387 6.477254559640459
Ag 5.804278293645239 2.2889017179051447 5.256478254642651
Ag 1.9779283858915946 5.844246504230067 5.028356683163323
Ag 6.55491667173338 3.7399020427697156 2.9108774298808178
Ag 6.031584196404659 6.452969831512028 2.353701748203371
Ag 3.9724584673057883 7.706126037843642 3.9837434274147783
Ag 4.140368425458501 4.85890386477615 3.624285269356365
