38
Energy = -81.86332356 eV
Ag 11.396947936386361 14.56201031122092 10.819396725819596
Ag 11.166950096059828 11.984562625635746 9.714911994751604
Ag 8.768234824673298 13.563722981273555 10.496663071445102
Ag 12.681314816701763 12.82041339585051 7.43849067839095
Ag 8.58334280521853 10.819876516647795 9.380439488597034
Ag 7.293975702375788 12.572756948066921 12.756411292432775
Ag 7.782377165705416 13.109505293914312 7.899911447829647
Ag 9.623314098332877 11.124719178431826 11.983533946710827
Ag 10.32272958987603 14.261488206224998 8.235128308736353
Ag 10.110269605069586 11.734012350479182 6.964629044721945
Ag 7.531524708230016 10.517010576420288 6.752907180862049
Ag 5.994246161720117 9.715137697631588 9.025979196888285
Ag 6.959078872578931 10.00997219665965 11.667468356665472
Ag 6.246671248837128 12.275354817173536 10.16307246579596
Ag 8.117568926220851 10.27688049999999 14.269344204891823
Ag 10.702540958675328 11.447904034472176 14.574615030063509
Ag 12.309333551616678 12.379514500586241 12.396767322563944
Ag 9.913677020349244 13.723940229386448 13.071334830522678
Ag 13.760406920773468 13.114458547976628 10.069223174084414
Ag 13.594765127421097 10.543879803340415 8.886380643334482
Ag 10.930529901667152 9.429132821568242 8.570315053289136
Ag 12.436309073779158 10.276880499999987 6.284530795108083
Ag 8.244510448383346 8.174337499413824 8.157081677436166
Ag 6.793437079226555 7.439394452023567 10.484626825915681
Ag 9.8513030413247 9.105947965527891 5.979234969936435
Ag 10.640166979650637 6.829911770613466 7.482514169477432
Ag 9.386893903940193 8.569289374364171 10.83893800524834
Ag 11.9705011947815 9.733975483352124 11.173410511403068
Ag 13.259868297624239 7.981095051933005 7.797437707567182
Ag 10.443574394930442 8.819839649520736 13.589219955277867
Ag 11.785609175326723 6.990129018726508 10.057186928554842
Ag 12.771466834294612 7.44434670608561 12.653938552170294
Ag 9.156898063613639 5.991815688779054 9.734356274180346
Ag 10.231114410123995 6.292363793775065 12.31872169126374
Ag 14.30717375116274 8.278498182826514 10.39077653420414
Ag 14.559597838279908 10.838714302368478 11.527870803111812
Ag 13.022319291769861 10.036841423579782 13.800942819138047
Ag 7.872529183298552 7.733438604149404 13.115359321608997
