36
Energy = -76.03113353 eV
Ag 9.90857202019864 9.982768943353479 5.791216906790498
Ag 10.752566309433595 7.321550152190655 5.199308355327231
Ag 9.848560649081147 8.10467192240731 7.9156157851909965
Ag 10.788434910458665 5.511986597868146 7.356338234779411
Ag 9.406377277032835 9.01727591978329 3.278362257724144
Ag 7.77708879084246 10.010433989098098 7.529611674840228
Ag 7.991995774493217 7.797737007718458 5.730896478383418
Ag 9.528087351008185 6.287213771489543 2.8733043580966813
Ag 9.026884517904731 5.029929244409067 5.284933121810134
Ag 9.091054588599658 3.2750187694117265 7.44459223246133
Ag 8.053389799426505 5.953949990923634 8.00612941310935
Ag 7.645196453954066 8.18721947057862 9.729313241359927
Ag 7.057704790757362 7.641786855679167 3.0229823364667734
Ag 7.184229242881001 10.228371585875816 4.68998313941242
Ag 6.04886949284349 10.628949689622795 9.562778703990976
Ag 7.128822197249569 4.828437592758056 3.158539179045372
Ag 7.1636311109471436 1.0439305076908083 7.325412109285199
Ag 7.838543865315789 2.206690077904754 9.72656689057239
Ag 7.188124061057086 2.8820751730167062 5.263618144257125
Ag 6.382683890253491 3.6922974298879194 7.961940406620085
Ag 5.148323037525073 10.580309131618414 6.723039836408138
Ag 5.693216155762456 7.908904222853074 7.6767460944775445
Ag 4.92501550245041 8.293065456401937 10.493850776271326
Ag 5.660942470853428 5.81553933136997 9.587174896528312
Ag 6.1033883805212366 5.667562349435829 5.822269074964879
Ag 5.106015066136642 8.347586428159369 4.939119580324206
Ag 3.418740673342802 10.000875077550436 8.938711289640308
Ag 4.658651506110694 6.2320109258522605 3.1827507652331986
Ag 4.686172634322953 3.6546826963658057 4.229402983123499
Ag 4.6418923222515165 2.086040506752709 6.5155759338601635
Ag 3.1244176529017254 7.119902683306864 8.717649390215493
Ag 2.9053077376040917 8.844002584447827 6.520978816503832
Ag 3.8024415105812097 4.5856703404193695 7.8479450527349215
Ag 3.1598227903863725 6.216072974562032 5.620632522722465
Ag 2.31793785652374 3.500913866583398 5.775573464174125
Ag 2.3467663571807393 4.6480426980627225 3.30218976412241
