32
Energy = -66.909387 eV
Ag 9.981299497425324 8.408354741609637 5.4732956141306675
Ag 7.876780510053605 9.07271512387704 3.7383776011560914
Ag 11.71411855691007 7.384388351583032 7.425915095960289
Ag 10.77018736014659 5.643864613959074 5.489007777790377
Ag 9.62308734888493 8.938008702830155 8.373639169217823
Ag 7.555041916308205 9.39933544494477 6.534528304938364
Ag 8.807884612637608 6.437546795190404 3.6950474105557216
Ag 6.72960381033427 7.189672683907924 1.9997682092601676
Ag 10.106101949017427 6.3156348141544445 9.42142792158154
Ag 9.825004622359817 4.117969778538879 7.660288222445101
Ag 8.319127726908484 4.214852084706502 5.322294760533382
Ag 8.431888768194145 6.597568055201846 7.093547024934722
Ag 5.307660022187214 9.739225444021624 4.861301042862046
Ag 7.6515092672993275 7.580544200234134 9.936682287207937
Ag 6.380186004615483 4.791397760577801 3.4340320438962095
Ag 4.443770227495319 5.546286568266189 1.6171683365435325
Ag 6.361861416657216 7.0938975657368895 5.204832086911351
Ag 7.633401543281977 4.859223759894457 9.281778592629692
Ag 7.195773552540535 10.183936951414571 9.20748541433109
Ag 7.326418811961522 2.7365983638406726 7.529924696664743
Ag 4.278540260285823 7.783395451701861 3.2042965119234927
Ag 5.643527878403629 4.430693039968156 6.139582597544271
Ag 5.593584315981634 6.679067739276956 8.024935290234179
Ag 3.5962836835041414 7.701585563085337 5.918847759016463
Ag 3.661166290510159 5.304305407860261 4.359219433724489
Ag 4.953195882320765 9.487642677500872 7.629098686040423
Ag 3.1216573833664567 5.2420378804239975 7.172185112115641
Ag 5.4941728128717875 5.926028036428212 10.823622010265252
Ag 5.028545941744241 3.8810888520781153 8.833406428989788
Ag 2.9684309945022833 7.739834335593609 8.661895451296626
Ag 5.065121744855868 8.611858732506306 10.292448652106687
Ag 2.9291847853715987 5.333205224678441 9.979445446019907
