33
Energy = -68.10788106 eV
Ag 4.520897396524648 8.84016881938022 5.3702514970285895
Ag 4.773559814017162 6.5992880694353895 10.011319798447964
Ag 7.008176587635087 11.108290945117254 10.113241944768745
Ag 5.41397003829654 9.101294732591716 2.709309956366632
Ag 8.89302459402023 7.715449397627805 12.282831211555626
Ag 3.399913984789541 4.899002462082643 7.976115577900365
Ag 5.458372353053331 6.435404427439195 12.7299259111834
Ag 5.100399072389459 6.892566801167199 7.253998243287241
Ag 3.238753836275909 6.197872223446712 5.359363002121498
Ag 11.056672983865878 8.24716972260416 8.256946106925088
Ag 7.367408339173457 5.8128417116688205 10.87687396088294
Ag 10.594484335790899 9.58632726369937 3.6132868126120408
Ag 6.050725723757432 4.393160706171119 8.696848952178563
Ag 7.845219183497435 6.6050940099370266 8.128156058929005
Ag 7.925024965105852 3.6781924826747265 6.589830727055345
Ag 9.028325415116585 10.638546633458308 5.591831377349425
Ag 6.956961355961698 4.044206091145186 3.749406493739021
Ag 8.142801106924388 6.020061383555155 5.191829147248509
Ag 6.4569766124780585 10.781963602989984 4.591093615249133
Ag 5.325827642725946 4.424567668413682 5.9046194054673995
Ag 5.711703435607365 6.613840813402765 4.01619812545835
Ag 6.926587098870255 11.21416087715798 7.343551706935301
Ag 8.001863101327501 8.427726219300784 3.6235401434462817
Ag 11.732258796494 9.965408574427148 6.175075824238224
Ag 10.010598726298431 6.396798869803763 10.051069744663343
Ag 5.81778795258604 9.036240328018248 8.718159214901162
Ag 8.769392174472518 4.062414200779409 9.19885055496058
Ag 10.22245734443661 5.546140786346674 7.232719257762693
Ag 8.652363801967361 8.929504225270742 9.615445903849713
Ag 11.149261741910697 8.773468461734726 10.991692584574814
Ag 6.439500965090927 8.563682875193095 11.345240572886372
Ag 7.167871117982193 8.581783609787108 6.3054197676982655
Ag 9.939154502171098 7.941289539720123 5.770123563675741
