36
Energy = -75.11231299 eV
Ag 5.694283397045859 3.123397493461197 4.630039071198618
Ag 4.94496074240788 4.31155655504246 10.003244529721071
Ag 11.419164404732479 10.606101623944294 4.7718737511677425
Ag 11.007556958864821 8.07860319703987 9.066924566979583
Ag 2.567539165843852 8.876615604795985 7.781640822779709
Ag 5.760081450779954 5.851362984702567 4.462640389534448
Ag 7.2218643366630975 9.616654689053968 6.4712834818235905
Ag 2.6721948033545058 4.102839441915892 8.389057399403638
Ag 7.355424178040613 4.475139005819073 11.440621906395021
Ag 7.836336719391326 4.556495467268794 6.022849365235522
Ag 9.315116787279555 6.010379305554384 9.865643062986074
Ag 9.641713090085664 6.684256898051618 7.108062116483937
Ag 3.414166757417141 2.4704185034831885 6.0912937259831486
Ag 3.679832140311682 7.037373847725924 3.0876908011385265
Ag 3.049707388547241 9.52653579194606 4.073046691450844
Ag 8.245531410544894 8.521287327726272 8.839030498268071
Ag 6.5455723834317325 6.89737579998096 7.106366975741972
Ag 4.524977422551733 10.239870929648289 6.284136384303606
Ag 7.958699012023333 4.52093229761436 3.285565117464032
Ag 3.117206509196736 4.960324611183161 4.968597338282864
Ag 7.4623430416048695 4.318657270385498 8.712554440445984
Ag 6.474129699352157 6.725382583052461 10.017100953986073
Ag 8.178494042054526 7.181580575416772 4.69479747619698
Ag 10.082515635895472 4.05396235341776 7.691365079907162
Ag 8.774741913429583 9.835024447970234 4.205275556521099
Ag 5.138220096724262 4.472618782756007 7.04955238162094
Ag 5.91387242285017 8.783026181977242 4.1021855019934765
Ag 3.94715515829938 7.519045064664088 5.841980453527049
Ag 0.8879476019474929 3.7411369374324157 6.353122358544397
Ag 10.320416756083203 5.1616407816099175 4.846265083743034
Ag 3.957345835865296 6.598539571377086 8.63785249364326
Ag 1.6170510436258647 6.367660340339212 7.005742676975533
Ag 5.4327228224812085 9.005243737396738 8.614500908886761
Ag 9.97616905937862 9.560764446316304 6.87571341288985
Ag 10.884701423463436 7.912880869587097 4.820540077259474
Ag 10.46839850657551 3.825515963684876 2.505007559568724
