36
Energy = -73.65644232 eV
Ag 7.771171302349581 8.853843487578887 2.13536982061836
Ag 8.399467986133418 6.607610366915827 7.24873158696349
Ag 7.646958998737388 4.03320586097502 2.8301279289379173
Ag 7.999472893072622 10.14147763623945 4.649494197791086
Ag 9.860712525544265 7.917532518714411 9.152485671074349
Ag 5.887373320683003 4.944373736566839 10.019418227666728
Ag 8.198798435822537 7.37929723042408 4.611218674404489
Ag 5.621428354306181 8.71451804095781 3.9178158882047476
Ag 9.802115893610226 8.885661083153744 6.427730188390025
Ag 2.5027975191085385 5.666808865588278 6.281715183480397
Ag 3.8882726774630294 6.382836698476021 3.8802155583709985
Ag 8.89313751696811 4.694179413868432 5.276511545071786
Ag 8.64190519023245 5.516431279127412 9.822522099505225
Ag 7.766889219399937 2.9481524209851293 10.134577666723338
Ag 4.19658950089855 7.998971854996574 1.6354538184109413
Ag 9.163407424368135 2.1879431664334144 4.164302076396636
Ag 3.1640205807151727 4.751368854777683 8.879585884602145
Ag 2.091025021858726 2.9195816426432724 6.956752047776133
Ag 6.257014865702033 6.378559966707808 2.4076928351693727
Ag 4.5150025364087805 9.088533616112043 8.494525396526752
Ag 3.0622972179082257 9.518459553635648 10.729339370819167
Ag 5.139158872459388 6.451576047247784 7.634661817300332
Ag 4.220791605719708 1.3347986207780334 5.905193503209514
Ag 7.5620813030064165 5.1893946989367 0.3090853657760714
Ag 9.175023685993885 6.409171320095788 2.2090945948513374
Ag 6.651812600888224 2.687647037471186 5.210869166419029
Ag 4.5940231482574605 3.874276002789189 6.622533407040432
Ag 6.932374476512342 7.698114849267907 9.437431317336408
Ag 4.229706940946267 7.108154774953571 10.381751754668434
Ag 7.221321310938813 4.102057959808037 7.645930937707427
Ag 3.640583372595072 8.271742705026067 5.982686693943602
Ag 1.4290969649854723 7.41846153004273 4.445308815380011
Ag 6.484774174710882 8.710876824504771 6.560507532541265
Ag 10.31568406914829 8.665831844384709 3.5624151593098414
Ag 3.598390978625167 4.731072112223319 11.584171978828648
Ag 6.227077442835399 5.551629963761624 5.182032576798526
