32
Energy = -66.75023791 eV
Ag 3.6598936742816925 5.416019223783407 4.6124809198950425
Ag 5.58214703648554 3.528782808794903 5.493326210728009
Ag 2.6911808399370667 8.00805952420368 4.790425696570522
Ag 4.993746549208118 7.540471096830287 3.236494153480064
Ag 2.978039165651625 6.6453232121467884 7.1524527813382806
Ag 5.987556186731774 4.985519352984748 3.1346634077358035
Ag 4.37444889245231 10.110461168285287 4.226911435765233
Ag 3.225609934825859 3.8568844764949692 6.88694862930739
Ag 6.661197288926499 7.8291629672207685 5.605128474976202
Ag 6.85991739370756 9.694575177608558 3.0215927494422865
Ag 7.756295062244895 5.293101224685785 5.2794465389677105
Ag 7.873437735751052 7.104409654069481 3.100880361409487
Ag 4.360967539410575 9.093058230598078 6.819690906891467
Ag 6.6648682649298285 10.626123740854329 5.707020216061118
Ag 3.488354763809842 5.040809597709961 9.373789919826912
Ag 9.070373162308867 9.212465742989398 4.627869069068687
Ag 5.681328938150213 3.6346565547818224 8.307564840273885
Ag 4.8246121248889455 7.491812969524075 9.106923903228923
Ag 8.009764186816984 3.0616264426712703 6.909201780777418
Ag 10.161531403398065 6.604216364525404 4.7724946947791125
Ag 6.868439189253644 9.220485274343158 8.16255322500265
Ag 10.022292959176319 3.7373617207749668 4.963900810275271
Ag 7.136414883469434 6.213363638648998 7.952077320923113
Ag 9.084922860856253 10.671627430994594 7.05989060068862
Ag 9.362470122851452 7.900661379267611 7.1381708184931885
Ag 5.9710299014860295 5.306167570012609 10.563035982537283
Ag 9.901654419641433 5.139934566146806 7.305748881142005
Ag 8.340307459934047 4.083509341199873 9.484192628157006
Ag 7.274030066061313 7.758289582618912 10.514794820933199
Ag 9.33544412352403 9.388872361709812 9.55093124856102
Ag 9.722259166342138 6.597877399157354 9.640120095599364
Ag 8.435515152135356 5.564360653011702 11.859327325812961
