30
Energy = -62.37172491 eV
Ag 9.615868850242279 3.6710621245001724 6.190416754187347
Ag 9.131980774008428 4.204927889849038 8.916161380938913
Ag 7.013399388426454 2.4245732494931613 6.462437495236515
Ag 10.23261164814376 6.196592185558325 7.30093837572843
Ag 9.258735799492507 6.095563527001778 4.667555593053413
Ag 6.474957069747346 3.4313745836513574 9.004298962369754
Ag 7.7819463780796045 3.7768890993020348 4.087886391553372
Ag 9.786544663001836 6.714140179581722 10.042837372784247
Ag 7.139647909948406 6.127682566632657 9.416317551951233
Ag 7.285256258958392 5.213810728525664 6.6750149683468525
Ag 7.640534453675819 7.986955536473071 7.101936699202031
Ag 10.434021866678698 8.403497858070502 5.579722916108096
Ag 5.155587802198544 4.082355842034993 4.950829834220949
Ag 4.289903565028375 2.8979284942414707 7.299110086434463
Ag 6.573547834700986 6.278875641360368 3.835514949515187
Ag 10.102951473787032 8.845091014401003 8.28600938732807
Ag 7.901175522924375 8.681987617307632 4.319750322902849
Ag 7.828901492545644 8.820190125880172 9.920924632278384
Ag 4.565421068741056 5.40500740888775 8.51849207009127
Ag 3.799035536485761 6.090604241962293 3.6203977724855987
Ag 5.094484066413332 6.990614154863282 6.217091603952224
Ag 5.012035366341748 8.696071322001078 3.973082938010775
Ag 8.82616009216089 10.535759125568811 6.385178277733085
Ag 5.245297189829558 8.190536686741053 8.93039950297071
Ag 2.858074236186051 5.17378308152673 6.24166105651129
Ag 6.505377499403393 10.495000273258766 8.08512461834446
Ag 6.280946095827558 10.735177913457768 5.325401382429343
Ag 2.5594445925199985 7.94896836359245 5.214955220716425
Ag 2.7648868573400405 7.469393945240249 7.936511111673961
Ag 4.131069182155752 9.705389754028403 6.783845305934234
