32
Energy = -65.22698759 eV
Ag 13.083632636262966 5.5508059202695295 8.090167970842773
Ag 11.982908867629373 7.749928832903822 6.949262493071349
Ag 10.618945251325618 5.418188784055556 7.020716371691998
Ag 11.29368991175022 9.658492730848877 5.152837751687862
Ag 9.354664074702312 3.9770147386281867 8.919727192351433
Ag 9.843636106435207 9.55063115020645 7.55404941295752
Ag 9.329260742519928 7.595476204947271 5.526444790597711
Ag 7.1449874617616445 2.1652299403686275 10.084664459651615
Ag 8.8142763331545 10.812344187835116 5.2182841924799765
Ag 8.586904962322254 6.938387716842122 8.429507498308693
Ag 8.007952023878765 5.165405404715504 6.2883273346896775
Ag 7.399217483778498 2.72414306330627 7.363520513347466
Ag 7.828391041560133 9.580599292435027 9.428576629297385
Ag 7.21472541794136 8.991425676700725 6.7784182499742585
Ag 5.711567333084977 9.769613122010634 11.202418201871
Ag 6.8078329186260635 4.776843367856258 9.31693982040615
Ag 7.60537859493315 11.900788094691467 2.893261250130012
Ag 6.354572090646639 7.296319836946748 10.204054775661605
Ag 6.526738881222745 6.93885933080906 4.761414873568823
Ag 5.654883441977567 6.549382792094594 7.439825389559951
Ag 6.578968513156538 9.712874055759238 4.132180820113658
Ag 5.46646921760122 4.112165359760769 5.877994821137564
Ag 4.544262811105288 8.790102308324087 5.891021013013115
Ag 4.85114704153919 2.909505829949711 8.53599203733355
Ag 5.246980171198786 10.778411919027306 2.031556943918439
Ag 4.10086655478813 5.536492502443126 9.61637608411687
Ag 4.975312464522771 9.144738844612094 8.61105598783775
Ag 4.450051490738441 8.297433363488294 3.139599245959149
Ag 3.7822478514019027 6.215853221776646 5.052337615529174
Ag 3.5181088376999137 2.1217922760165573 6.2168756145599255
Ag 2.9876941584320895 4.593395619169075 7.219498512098046
Ag 2.963006313835181 7.306635512734762 7.682373133768893
