31
Energy = -62.86318613 eV
Ag 6.790360593122387 8.854269117191535 4.34635521418548
Ag 9.711456759294737 8.907349649401821 4.0322507879191845
Ag 9.641994376754724 5.287686293894772 6.994026438072078
Ag 5.234762645822338 7.619640418443139 9.23227992383764
Ag 8.629897391431065 6.3252992536015595 4.5878351315044235
Ag 1.378740695151223 8.469866020252834 5.7342576834841115
Ag 5.644285992086536 6.904824073298024 6.093786407934039
Ag 7.4657873700342305 6.517036136051019 8.202089156322494
Ag 2.94845695264927 9.033771236043258 9.960627649310918
Ag 10.107740571515695 2.894411734696286 8.350902365101476
Ag 6.9021272334978425 5.222792050980465 2.71383088993744
Ag 7.56452550629667 3.7950504715873947 8.161254811239138
Ag 6.75251724588319 4.415240148465921 5.52382746740117
Ag 5.581450891981081 2.1226683385000413 7.178313978366683
Ag 3.7824690370354954 3.61401913378535 5.645087720896865
Ag 2.329520077560617 3.9865703994272708 7.959067491928561
Ag 2.8016202160740984 6.145552135865402 6.127213150573527
Ag 6.648135726899239 9.147661072402464 7.315357046222226
Ag 9.209714535987331 8.172087527576247 6.758047721685644
Ag 4.384772365342601 5.612563497496755 3.822439388707425
Ag 4.988525054688209 4.915878242658765 7.999465598972154
Ag 5.416533610706698 3.00547516321605 3.4616698778377644
Ag 4.239073157532373 1.0299323718269005 4.978299469658247
Ag 3.8856449826774253 8.340436463983124 4.4675448596918965
Ag 5.396110515397141 7.626940087394733 2.244652244731224
Ag 8.191479673759083 7.641745249792293 2.130902702036173
Ag 11.248099554965572 6.973557508103126 5.360017912488446
Ag 2.6808877507663254 6.5129351615356175 8.934936736207746
Ag 7.946376649492602 1.1257776400446677 8.246725106647855
Ag 3.645942030587406 8.698212190309498 7.2636852333307
Ag 8.411750730703371 10.641511107870723 5.734009729463419
