32
Energy = -66.85022421 eV
Ag 6.2930528634868494 7.568690732680479 1.1796495607528406
Ag 6.072955011165823 9.758186903733232 2.9245159648126586
Ag 3.685272489823844 8.275438688969489 2.1572379627865144
Ag 8.281869183616235 7.849479783416002 3.4157035802056885
Ag 4.504723453453905 4.907447230497414 2.514043480472492
Ag 7.382866284240394 5.363632864445227 2.423905982567947
Ag 6.798171320758695 9.091179145461014 5.524607817106299
Ag 4.049927968687381 9.253077858832736 4.952856444486239
Ag 5.519946886628113 7.11138288617253 3.781843235254736
Ag 9.407202983072025 4.872001631880015 4.337155954328862
Ag 2.7937369591679735 6.568622308099503 4.238836269810895
Ag 9.278227455284307 8.012469346300001 6.05395510665406
Ag 7.312374294222154 5.98285387860373 5.519791323664769
Ag 3.7786576151823255 4.184249010632344 5.234235219223014
Ag 6.368537483285882 3.6037930004540915 4.215762480525133
Ag 4.559060027667757 6.889334996000713 6.430601590438176
Ag 5.0804859983938035 9.358231987329765 7.69587411350652
Ag 8.05224789892929 9.91094984925348 7.869499253352681
Ag 5.336857924614868 1.7912943688586287 5.99981222860176
Ag 5.703488656893025 4.43437133900786 7.2462863743110555
Ag 3.0177270038326327 5.094788237449543 7.883143031773708
Ag 9.655902476877845 5.5490524096949185 7.193951068157011
Ag 8.1258647736872 3.2737552505774588 6.445497002464539
Ag 3.8383546263667103 2.449890410072068 8.205921400597173
Ag 6.994073341325282 7.193337418120738 7.931257579922814
Ag 4.530614008515389 7.072631341554718 9.337750204335821
Ag 9.181346954318055 7.135767566023052 9.506291306236257
Ag 6.751137105761514 8.945190300219958 10.072137124581094
Ag 6.588818911796622 2.1362369208848695 8.58029607058018
Ag 5.028396347002582 4.327773666354485 9.94917268035955
Ag 7.981032537565956 4.4825810522224945 9.099692784980046
Ag 6.792801366480726 6.304182909787118 10.826689506628489
