31
Energy = -64.90392617 eV
Ag 7.676019526718083 5.824975398432344 10.319849448155528
Ag 8.844513844538183 8.286016719705014 10.97834772113886
Ag 10.179643224681628 6.59110844880421 9.208889442768129
Ag 7.922881261954339 8.042932759586375 8.373704119812961
Ag 5.653183780685109 10.080123858455046 8.141550630544762
Ag 10.289465605686727 8.0282798266113 6.683973768320639
Ag 9.093769075413238 3.948998727678599 8.63715500908503
Ag 7.725853933329776 9.664874001746513 6.1578409877043185
Ag 6.337614189499337 3.441918893653479 9.60760636228658
Ag 6.094786400268358 8.226310540357279 10.470534032810273
Ag 4.835884911905295 5.856237308630719 9.484840834372138
Ag 11.005359407230378 5.289020379955188 6.976986433570084
Ag 7.966045662565138 6.83467504964736 5.704414795890083
Ag 3.068014489338735 9.243575083794322 6.812947380404469
Ag 5.515831504563719 7.673351115453618 6.845216454445674
Ag 3.6099917012077842 8.327649021384326 9.317838877249919
Ag 5.124744165423101 10.15159075466381 5.255354166527472
Ag 6.860244243480869 5.290645814651722 7.633948689934343
Ag 4.409453593742007 3.904392065718342 7.400846804114438
Ag 10.382421932907475 6.127149061138743 4.406288409154763
Ag 9.156328926042761 8.620790894258858 3.952825847974892
Ag 7.3503556044996365 10.789428414717062 3.6679107795868218
Ag 3.698062378681342 7.663554266625358 4.597946583787964
Ag 6.981994035968633 2.5438350886124366 7.052909411717721
Ag 8.829411247868208 4.126958177478681 5.688273460991023
Ag 6.304631142720025 8.204245695215441 3.6113449080993276
Ag 3.309645797973976 4.8970414091036645 4.921564972050327
Ag 7.839443794019875 5.835050408194133 3.151977525144767
Ag 6.098568964666101 4.456731035440888 5.030188949799369
Ag 5.011135498467712 5.861958509228575 2.912888209645191
Ag 3.05860560975849 6.400486726862482 7.22794043871832
