31
Energy = -64.98717075 eV
Ag 8.090525940983772 4.857786394406526 9.213307197785774
Ag 5.430471378734284 4.144584478379979 8.414846185038032
Ag 8.591794704794651 7.5969793014946605 8.984105557880822
Ag 6.454554133959949 9.301912796772921 9.644408645085768
Ag 5.965779158281419 6.5759771695116145 9.84698718462405
Ag 3.2986467201699177 5.968851087416805 8.985198528828134
Ag 3.8595251392794006 8.33807525385583 10.356257420752442
Ag 9.669403563633724 5.71277502292248 7.007201156747901
Ag 8.935060952561463 10.350288415828796 8.616743374273685
Ag 7.766459763273926 3.5693550170154933 6.755630405096479
Ag 5.10709072823126 2.847006195597022 5.927631467769177
Ag 2.7963896975586415 3.544314502314134 7.450413755116329
Ag 6.428389905921035 11.453816783416737 7.8809190887326155
Ag 6.853129235500813 6.293690052567085 7.1306776875086095
Ag 4.648761257124495 8.13960077035749 7.698103097696201
Ag 4.874404483838825 10.257286370270839 5.90564341520045
Ag 4.135253248747911 5.68532301157314 6.293687955110479
Ag 3.081599538015812 8.125898593977274 5.204934207348377
Ag 10.145651355954962 8.493077582751758 6.754679406727524
Ag 6.544794893988716 5.043337160727362 4.620127267128793
Ag 7.378481937657279 2.3714409936555687 4.281458959994956
Ag 11.170360823796853 6.685200235584943 4.802435637998348
Ag 2.7823715166682357 3.826459766630072 4.664184629894869
Ag 9.358017294159845 4.521024809983027 4.427437259278107
Ag 7.3796963426638476 9.13935403208276 6.716851647853155
Ag 5.750871958893271 7.798508773925034 4.922109713887958
Ag 4.062215077754051 6.0569487802209006 3.4607707486464805
Ag 8.476066867128818 7.25217920974079 4.793401313375166
Ag 4.987612378676031 3.414133185677766 2.98010579006684
Ag 6.694317544625045 6.840920632365867 2.4924454297634084
Ag 7.602480518039124 4.192313186429266 2.1682203445624877
