38
Energy = -80.55066111 eV
Ag 9.157613490215931 8.516124137533838 8.605003327358641
Ag 1.7259368381440228 7.162287650686676 5.462806508485309
Ag 6.6326764811081 4.882225527316196 5.166704040141576
Ag 8.643035926096202 3.3149744951124003 3.971072995105204
Ag 5.804038068828572 4.7677361181272575 10.89420672104738
Ag 3.866974891584835 8.051465884272961 3.903542546177794
Ag 6.6688702565887965 1.794846759674293 5.426368466233349
Ag 4.3781964769942965 6.615278361778003 9.40004396742009
Ag 11.104802080652115 7.403023273091982 6.823423387024384
Ag 3.0683972968468587 8.366298854105043 7.70374729839951
Ag 4.439580927567988 3.31216289964226 6.336794738936776
Ag 6.245176847365415 2.1291112621877955 8.225713633223215
Ag 2.773732365519476 5.448725109188822 7.36721516926199
Ag 8.46243943436617 3.4161927476104816 6.913049917603506
Ag 7.782325887877616 6.949076589497535 6.712132030239063
Ag 8.31237558415424 6.145175323992275 3.1428098679784973
Ag 9.681817565854542 5.604268997902562 8.369522234085599
Ag 6.205894100115276 4.93706391399297 8.008982936136817
Ag 10.531253071633103 10.087076308780516 6.633466434353274
Ag 6.07800717368172 8.655885318464179 8.35461920862562
Ag 4.999842285411136 6.883388734167315 6.2885906776876785
Ag 8.127925410325018 3.7542131867820348 9.701174383832798
Ag 9.788646207005854 5.3909513317915385 5.44007287210926
Ag 3.4825236233160775 5.224045220741591 4.536669701988455
Ag 7.136738284025497 4.032432118644378 1.7029050583164043
Ag 3.949194781766589 3.663432930583189 9.108666380831831
Ag 9.458832551467877 8.192576923525152 4.706191085334697
Ag 7.506644306391548 6.679575247637484 9.844519437840763
Ag 5.110391655277907 3.2168691055674077 3.473771942573858
Ag 5.506115678663114 6.068061285600807 2.754689969708196
Ag 6.681496823257915 8.231972004764398 4.165480881440418
Ag 2.1914812900739484 9.873705896009223 5.424701815014259
Ag 4.9854409851628505 9.800907539857443 5.839577061777705
Ag 7.748418754982732 9.870067518335217 6.232230616609634
Ag 7.087001863582676 1.4134104030537762 2.643337555899081
Ag 3.320698523286919 11.133547444666075 7.627768267439951
Ag 6.041759733891002 11.395332950593366 7.958570006708492
Ag 8.751712579759728 11.256168581894396 8.419965579911922
