38
Energy = -81.5684346 eV
Ag 5.94611708740369 8.615041962545526 9.787449432731412
Ag 8.845431382176757 7.71316799262184 10.562060060964422
Ag 5.864771818120012 9.721224989634807 7.156350932411217
Ag 6.596523903840752 6.382896152572066 11.52982130952404
Ag 8.293368735672434 9.034763393716174 8.288902196335883
Ag 3.4322086593844703 10.362062494925386 5.918814799511376
Ag 5.989857565833973 11.056095298368982 4.682137803479472
Ag 3.412735027365741 8.765324071605349 8.359370813993236
Ag 4.368631571984204 6.2868514790283 9.825947776578348
Ag 10.740319421582422 8.884609015646637 7.117751328408396
Ag 9.838312623586074 6.341494379861778 8.043255129669806
Ag 8.43968412034022 10.349734537162895 5.871949189011503
Ag 8.81523937273678 4.950222702483069 10.438336220268202
Ag 4.954127122202815 6.931058748090527 7.008578200226467
Ag 7.116017198905026 6.30662168281375 8.637099704166749
Ag 6.184221727776155 3.9399080312447774 10.137767385509514
Ag 5.062951684973577 8.494256010810433 4.556512770890969
Ag 2.6631283934772405 9.301268900750724 3.3998704645164923
Ag 7.501159132074105 7.551643950663147 5.920509584522229
Ag 10.2205122168471 8.871247977635868 4.391879682271141
Ag 8.230522622432098 3.767595227959128 8.027066057928367
Ag 2.529342845994608 7.691427923864574 5.637810817211148
Ag 4.4929263645000175 4.154490514401766 7.939777385936279
Ag 11.250564211322606 6.570176118483463 5.62808774213427
Ag 2.3850559121038106 6.053077600848191 7.888775432644396
Ag 7.6222107635540155 8.959958640062021 3.450464827118897
Ag 3.5680110204391573 6.5731648929457185 3.165112825165924
Ag 9.164054129267296 6.424658337807451 3.646608468437763
Ag 6.547797011783346 4.872259569734785 5.916706897509549
Ag 9.430001567114926 4.5415993847305876 5.687508426006581
Ag 3.4964096807767855 5.006430493798945 5.454574893291916
Ag 6.147896649633193 1.9306348267072182 8.114510669667965
Ag 6.390104587853569 6.3915814181290855 3.3614889502299463
Ag 4.898707859624988 2.519521811678494 5.6449297597623564
Ag 7.714602329385005 2.2244290705659604 5.728877334247019
Ag 7.771760719732563 3.9340395874945604 3.4620623875624053
Ag 4.934484836343228 4.025604764197301 3.2588687362552973
Ag 6.264174178872821 1.5277232862879238 3.4257851765554497
