36
Energy = -75.98440178 eV
Ag 6.812091411572346 4.631623183974937 10.344201473770777
Ag 6.856488222077318 7.354978960054728 11.043035096435359
Ag 8.757817315898466 3.4869573769537774 8.49926108058594
Ag 6.830958656736946 10.09250669080248 11.526445555703981
Ag 8.684239687698305 6.223101212925479 9.143548130332489
Ag 6.140738669281852 4.114127116634707 7.741466060590989
Ag 5.4940958057270315 6.631608950010098 8.71748259659539
Ag 8.78005802476057 8.97028851212076 9.832838736424318
Ag 10.84055927833865 5.149133694479217 7.422190559653151
Ag 4.712431435601744 8.975402185317506 10.028173452851673
Ag 8.71800922316265 0.8663135031775815 7.678174401035562
Ag 3.58336456121671 5.121649937629023 7.210989933465001
Ag 2.8347350046801307 7.592856901094326 8.44513031009318
Ag 10.28812189046263 7.905562640485203 7.541971276722481
Ag 8.291192169090133 5.563236639995696 6.413744369249063
Ag 10.398640185756806 2.652030217863361 6.288100526108688
Ag 6.65633196685471 10.618745325784845 8.824319463469262
Ag 7.657303216601354 2.6572158268748463 5.860558444043145
Ag 9.352462212220658 10.557515290843433 7.656244899605803
Ag 4.838882197772546 2.8939504851383027 5.674427046634414
Ag 7.471887740023113 8.248241346709953 7.288646830755398
Ag 4.759107964951582 9.11194555373852 7.15632315878485
Ag 5.666447376640669 6.52637809181735 5.847889401421567
Ag 7.126869365097184 10.896068263818755 6.1178353030228045
Ag 2.6048573985857235 7.297065956292985 5.7004205357021585
Ag 9.357358737082807 4.261712853219277 4.19757497460499
Ag 9.0906005829721 9.101287759369125 5.133227810644494
Ag 10.550376384104057 6.669780031992312 4.987425122984256
Ag 6.4887456745983805 4.444871476218668 4.049139728300437
Ag 4.521250177328775 11.05244405400476 5.252223423561925
Ag 6.324494614818549 8.974781093051428 4.370451393452743
Ag 3.584369388646246 4.948709537512416 4.392057080338965
Ag 7.982541096561492 6.793441341874941 3.8171974056709925
Ag 3.6446350009548225 9.010541863088742 3.699098406973628
Ag 5.209645269651571 6.773684982720099 2.9696107333164456
Ag 2.272169887891357 6.825511721931266 2.9230560214420063
