38
Energy = -81.26358425 eV
Ag 7.961332670971931 8.845215214790493 10.599989071091214
Ag 6.518937226253927 6.45320489593148 11.142535138115452
Ag 5.302595329098093 8.23444051837506 9.408037648735299
Ag 8.994261907443368 5.079727353891314 10.849778092874947
Ag 4.2592341695787335 5.529893375685098 9.71024583257192
Ag 6.9101654964948 10.466873030919986 8.582386296122442
Ag 10.39553476707761 7.281552171418498 9.983332797238116
Ag 9.48994706247197 9.243784925027578 8.211477813555959
Ag 2.908692044677536 7.28473715241884 8.037881487841597
Ag 8.807564079094885 11.232041057633388 6.488522062783263
Ag 7.940200023357807 6.878936382017301 8.660330922331223
Ag 2.159903203600724 4.5737347316454375 8.11367544854437
Ag 6.762763759208985 4.322770759675837 9.31979651887278
Ag 4.331113245610892 9.534387613280161 7.177791872499487
Ag 8.7842420848267 2.4102191230340275 9.934911525949508
Ag 10.607886158159916 6.780487703945323 7.1997216536725075
Ag 5.540255354176715 6.298783493833507 7.193533657435817
Ag 4.687467800502361 3.4580119356702284 7.728145461361823
Ag 1.0616431246340094 6.191681043591847 6.185616766621137
Ag 9.487742365465584 4.444671036875685 8.186345748804923
Ag 7.436451695652358 2.4212598145585233 7.460539507081829
Ag 6.985083324201731 8.695092701694481 6.376803075146189
Ag 3.185336678637868 7.7070745458179575 5.294750574504797
Ag 6.26624260655574 3.990250079672447 5.53111954034783
Ag 9.74951231737589 8.71255603744041 5.376954157183877
Ag 8.126858258523896 6.19989547033681 5.95680905812272
Ag 3.566168378888791 4.949698693198258 5.519139711526193
Ag 10.42112828073808 6.006336225327933 4.472717260640068
Ag 6.071966416367874 11.449026978960871 6.105255933547863
Ag 9.203262875013005 3.633352073763347 5.573797901043116
Ag 8.446046672841911 7.545422677831812 3.175191848875711
Ag 7.7533837700136115 10.18461067612047 4.042490606530835
Ag 4.9637170376740105 9.57140880168796 4.416987837844552
Ag 5.6942797904137334 6.784904746700676 4.286427593894972
Ag 7.9189408551396605 4.788136348453084 3.401499216816113
Ag 5.028990640283538 4.3346552712226165 3.0971491112467096
Ag 6.485355494320929 6.13974659573074 1.5152675193355187
Ag 6.2252738226628574 8.780899529832865 2.1225245172982468
