34
Energy = -70.50831971 eV
Ag 6.824224337569516 11.595263739795415 7.03821449511736
Ag 5.029959147000832 7.23319246470995 3.9209915174011387
Ag 10.534200835343139 6.727593602554327 9.750282791704594
Ag 10.316803883178618 11.06752086114878 6.838999329889808
Ag 8.84677403735856 9.59601035967271 8.640411180778251
Ag 9.867313974968022 10.86614739027803 10.86502708908377
Ag 10.027070312302296 6.246888627068741 12.509448703417641
Ag 7.233813185820173 6.604288295847347 12.9739410139302
Ag 11.499403873726036 9.463603541048451 8.94622905139572
Ag 10.333925769823834 3.017562213720038 6.255831548232072
Ag 7.589611404188491 3.6452363646928014 6.1283486323619325
Ag 9.281946606218755 4.44067242835716 8.341679968662326
Ag 6.023456629852375 7.21448117252955 10.142033640927556
Ag 8.07071472231699 5.374376747428591 10.623431730807011
Ag 8.730694245418514 13.356962870700775 6.190034847264089
Ag 9.277170179531932 3.6836224269343334 3.822421660075007
Ag 7.779594266812045 8.315423160897554 3.7881072706240633
Ag 5.748556311757669 9.678043112949865 5.274535263062405
Ag 6.163138341594454 8.965403829232303 8.0165088016123
Ag 4.407280353979826 9.662600937196618 10.026335465208874
Ag 8.33400245489671 10.879794196580322 4.794381078234555
Ag 8.527923645374116 8.296423789086552 11.191024374953704
Ag 9.286771272749537 8.554316307342882 6.101779616944989
Ag 7.264548646479166 5.504661901193882 3.794777585720994
Ag 6.301740782970627 5.080936567883977 8.22364864946147
Ag 5.162047823152962 4.763858499288735 5.543176840716761
Ag 5.967527258277587 8.965092432043722 12.285525379164115
Ag 6.669300158239013 7.024473043927589 6.075340830978396
Ag 6.984970595003515 10.704618168924119 10.320391489958183
Ag 11.32648367626498 8.588942317275258 11.665320477177834
Ag 9.37403013199748 5.788628417403499 5.7780915708591385
Ag 8.275667787414779 6.991506765560537 8.267650830528165
Ag 8.809655131952411 12.43657124392136 8.824135538084729
Ag 4.232213979522558 10.829417653089045 7.407574450435865
