33
Energy = -69.15634698 eV
Ag 6.600221091276892 4.720455154474893 2.4901642392424943
Ag 9.121485217316314 4.429040833429102 3.9504986742836343
Ag 8.108517245575037 6.975716840263317 3.1617874247715787
Ag 10.128551606432909 6.958949179655653 5.022039301079384
Ag 10.808968681110274 4.469708546127769 6.138361729089496
Ag 8.706088334059707 9.463194472563343 4.476279977232867
Ag 5.342308106520709 7.103246599567809 3.3168626968273074
Ag 6.927907507628382 2.5691493935421628 4.24040140103547
Ag 4.250418911360132 4.2932007143957325 4.241993710323857
Ag 8.296786950393148 3.249752656891315 6.790658097017703
Ag 10.085445853639843 4.336548303484712 8.860333719273275
Ag 6.694071441683172 5.122415257823392 5.279666878162318
Ag 8.667661297359777 5.961273818213785 7.204407418741198
Ag 9.89261839160925 7.273189470075269 9.436932900253556
Ag 7.014643415964871 7.78636307398425 5.741973438673576
Ag 9.529573071735166 8.790128850409001 7.053868726581749
Ag 5.497404588079495 2.9074947803131064 6.58411856479964
Ag 4.328387110025484 6.7530025917776095 5.885992301038306
Ag 2.8361011531646008 8.140885225969472 3.822947862467959
Ag 8.758023255485808 10.0002378402208 9.434579131766325
Ag 1.8614522062108079 5.7911834064029035 4.955439266333992
Ag 5.787189913672368 5.349004439604058 8.013917489347511
Ag 7.165412649722749 7.883893190810017 8.552407875424098
Ag 4.955581396197243 9.491112790336677 5.08433743918017
Ag 7.776322151409136 5.459510699996883 9.987605170694122
Ag 3.221094584455758 4.376103858663855 6.939404427535398
Ag 7.849793703698941 8.011861000543684 11.280823650155135
Ag 3.250272603781392 6.604519241664946 8.59934156092922
Ag 7.0037235524245665 10.280098668247843 7.0504107511916025
Ag 2.1076764582917913 8.205110699905635 6.575729478654704
Ag 5.316722881314322 6.961862698688087 10.369580473008092
Ag 4.581909944279073 8.937617282218437 7.833897810657419
Ag 5.95691757491261 9.842876129778704 10.086133947767427
