39
Energy = -82.6079306 eV
Ag 9.509628306219371 6.685649079243298 4.143370156891503
Ag 7.677659334893517 4.568464055729046 4.348605776823741
Ag 6.981544481796238 6.642990915127977 2.6014303546666753
Ag 10.763790456002504 9.200664325531335 4.596663098376091
Ag 5.175023060308992 4.238101730262582 3.127532060190418
Ag 9.84702609091178 4.837162517086537 6.216666173171763
Ag 5.582430952366835 2.9556688494933434 5.629100329483265
Ag 10.390388956614965 7.524539877701804 6.735889507217408
Ag 8.327091066301815 2.447434795110902 5.989015993160696
Ag 10.17374142170367 5.787446289160795 8.894272387629277
Ag 8.489309729064692 8.942898475776175 2.9093278998573373
Ag 9.053192846800806 3.299281950315732 8.485078775116522
Ag 4.228350250993688 6.875603099804734 3.0010974337572263
Ag 6.935529319864692 7.21674473068491 5.455197924257432
Ag 4.5167195549876995 5.4689996844241024 5.562239974963375
Ag 5.236660997497415 5.568214504935799 0.7345935600042411
Ag 5.853304383125625 9.150461146928876 3.826199184644882
Ag 10.410205355139263 10.322170917315505 7.16430391002467
Ag 7.046054759873123 4.8744899877945995 7.099706119824179
Ag 4.6159627361656765 4.908933844601841 11.028249798099127
Ag 8.159974524789725 9.91336616702333 5.4750921734157325
Ag 7.888349180101189 7.359807677004357 8.345140775458587
Ag 10.181347509323011 8.593109673211803 9.361630828243621
Ag 9.635795846391563 4.111286785655845 11.067636732488534
Ag 1.9717893083287454 6.166380555296829 4.584968832406582
Ag 9.800758532617687 11.287838279730645 9.85159011705959
Ag 7.141431862869807 4.803857227356622 9.904971861606192
Ag 5.215633122227259 7.216842801421782 7.7131592341221005
Ag 3.656017919771597 8.235484425795134 5.354923151009372
Ag 8.841979196655608 6.798814803963768 11.181392935285775
Ag 4.54069862210133 4.524907599717772 8.297692431539643
Ag 5.576137635788972 9.875124103306026 6.572867704277247
Ag 7.893781042852438 9.430319086785403 10.848153148829446
Ag 2.5185337907146503 6.38022906246691 7.346199892835197
Ag 7.793291667599649 10.334359326171418 8.197383672805218
Ag 6.110001130290678 7.259088556346163 10.864708520316336
Ag 5.398680340851364 9.518385507021737 9.440270659967226
Ag 3.114215616521261 9.197253012316278 7.882616038438451
Ag 3.4900814840191385 7.219736966826322 9.903173266183524
