32
Energy = -66.5400306 eV
Ag 11.697859414751273 7.6027730775200935 10.907085587031938
Ag 5.5462287619476065 5.455026259796897 8.847828504596944
Ag 2.149566364307599 9.061179189050229 4.353070732684652
Ag 5.00030353607112 10.82332156292268 7.635027829659703
Ag 8.276892595329521 2.329327906654451 5.562497623124612
Ag 5.1287821323959255 8.224755940287531 8.720090983818153
Ag 7.1376062774847995 9.602117035123886 6.245150951911425
Ag 9.525538300348716 9.034041734013398 10.316688744120304
Ag 7.3063882236384705 9.924057027539927 8.998080102389372
Ag 5.418110917054033 7.186459121416693 5.942639245850135
Ag 7.2925749164061875 7.3033692188114845 10.292253070652569
Ag 8.61239926007751 7.552735573660118 5.025249444839178
Ag 4.378807941613933 7.632373561957746 3.319310324140802
Ag 5.441526611452633 2.3313470975705526 5.261859672970363
Ag 7.064767007315702 3.4393823669608095 3.2385684574537956
Ag 9.288411624359094 4.865468378465026 4.502090119294924
Ag 9.224070475783776 4.227818386343463 7.3686643103843785
Ag 6.583048656944325 3.024113751929581 7.863929002616784
Ag 7.976333757232447 4.531414374849386 9.818471841943332
Ag 3.0141576050845935 6.4214646305289484 8.205535150649688
Ag 4.5783099923708495 4.826032280917815 3.9845160444438683
Ag 6.9247798108156084 6.237108336974732 3.2323203004016228
Ag 2.7026402057408507 6.478235348481933 5.426810525108523
Ag 9.574515737651481 8.856844774305726 7.468594782094491
Ag 6.809474683665253 4.780850218785512 5.735488582066785
Ag 10.689090495506415 6.390603915661508 6.452273372172124
Ag 6.8105128604094 9.02135450263774 3.488441496109814
Ag 4.6670635761361785 9.997390175668292 4.944966823730866
Ag 9.955202206930382 6.437513215231993 9.182341464385877
Ag 7.661240462044569 6.786680783748362 7.5546322975421605
Ag 4.1194019098223835 4.308883418433629 6.737206463800584
Ag 3.030473019913798 8.89203617435753 6.954395488617431
