38
Energy = -81.22701857 eV
Ag 9.70681065352582 9.473311595615142 7.411734855046798
Ag 7.050509612741727 10.222191749633605 7.983827795300516
Ag 4.390351942935027 10.844826218250187 8.709417199558947
Ag 10.982694410128623 7.61138335404678 9.158183336189612
Ag 5.035003841024317 10.65142325593694 5.988303305513047
Ag 7.798147674783604 10.206503322473354 5.293213447602751
Ag 8.199484839724734 7.9502549599012315 9.189888689154172
Ag 10.369723038967212 8.91494851074922 4.769205132635522
Ag 2.301618328517972 10.894321642115075 6.901237326181507
Ag 9.429027878941618 6.194039395184288 11.05069160625964
Ag 5.507385758672012 8.579186096227339 9.795537955369017
Ag 10.831381783396012 6.7692531055054355 6.534332257032093
Ag 8.083177765316174 7.467642847488558 6.006778256279691
Ag 8.247517187369164 8.400674750445896 3.108732601702248
Ag 5.686563290187461 8.572855468395012 4.224516643009787
Ag 5.469257571735617 7.966970677485597 7.0233843479679425
Ag 2.9637408071594145 8.477709331422583 8.231614277456742
Ag 9.733096225814542 5.114146568379558 8.472709073140114
Ag 3.088410186353916 8.7085515586281 5.367131443326016
Ag 6.6245144372263765 6.264978632475053 10.844086005306785
Ag 6.924546899832427 5.715258508287964 8.000610611429419
Ag 8.377901558617534 3.673867918092272 10.388626539170351
Ag 6.336930262026867 6.497787793080783 2.471605476829886
Ag 4.25852992894167 6.126557707836542 9.163541597257524
Ag 9.992852168553515 6.248290275458778 3.9705296453355037
Ag 7.8011518415892285 4.745014293862104 12.821421342425413
Ag 5.98456909686634 5.6915989049855105 5.249046337151684
Ag 8.824263925633963 4.588049103303401 5.926842790875381
Ag 3.1855738532197493 6.1599606576353025 6.572321220550996
Ag 8.949482585619377 6.212342237588441 1.4591866477830575
Ag 3.7623988746828476 6.5130174210393195 3.7296431452869836
Ag 5.651655595118173 3.8096481405513507 9.994489368787018
Ag 7.560689413712344 2.981952389961067 7.847570954441799
Ag 8.019066856706514 4.311601419450378 3.2777665057625938
Ag 6.501796276285516 2.936905338913556 5.244946778080986
Ag 4.80861430077792 3.8967970550531774 7.375389331829604
Ag 5.303001514083637 3.9540634499967986 2.84793404221741
Ag 3.5505810952882344 3.960395204369176 4.940443357481307
