37
Energy = -78.72365534 eV
Ag 2.1639273613421492 8.18467036124416 9.072873075299704
Ag 1.4231177143216405 5.842130650051203 7.827941505262307
Ag 2.6239850413265895 7.974467946243205 6.198293200392712
Ag 4.377608423387507 9.506085664363138 7.92429708803348
Ag 4.460777963115004 9.76433885726831 4.974861238532761
Ag 2.7671556221489757 5.639637626826393 10.268681184329694
Ag 2.9923252640399314 5.125999838160216 5.698335482775332
Ag 4.675866642761863 7.879192101509318 10.37930383030576
Ag 6.780512709017373 10.481527672283194 6.632293136021483
Ag 4.243586024582843 7.094616288330976 4.063292419260267
Ag 4.229783774975737 6.491104869612371 7.987074072622394
Ag 6.560511305855847 11.330426562321506 3.9395734836361354
Ag 3.8647946663678607 3.7881278652425996 8.129094084289111
Ag 6.017575291683688 8.846422837761352 2.7721415727186924
Ag 4.479648909466083 4.369198067092294 3.504217575994592
Ag 6.928568711202301 8.938154146444047 8.962313830534352
Ag 5.995965499076409 7.8204571456814245 6.3014725759799415
Ag 5.433973878108312 5.002218644229004 10.21974879359374
Ag 7.180753574456031 6.103492182746322 8.22498924216456
Ag 8.1442087692069 9.156746953452998 4.586800199650798
Ag 5.750818213675074 6.256305773682664 1.8370464577749315
Ag 5.738632623198368 4.823612985481575 6.062943671364523
Ag 6.736617645991913 3.2977216320756915 8.282146032194854
Ag 8.286382235370214 7.0515973587444165 2.739614340216589
Ag 9.001260541337802 8.41799105692191 7.1619860897021965
Ag 8.16762789859674 4.491096020627965 10.562376631911482
Ag 8.144335394164173 6.313032925473872 5.503554935524427
Ag 7.279778628066637 7.092050301676748 10.962610909389683
Ag 7.218597066408147 4.5369795398305515 3.4924447665667975
Ag 9.634105976643582 6.747981091083823 9.400278239285594
Ag 9.551622862106193 4.141541568600028 8.259168591965025
Ag 8.275739752266539 3.464548859485638 5.884240472293821
Ag 10.486931062766406 7.661626515030957 4.596019670115872
Ag 9.959127356496223 4.91806319548953 3.906510432250812
Ag 10.889432460887301 6.258158508280754 6.979017663563636
Ag 11.121399458898827 3.606633258285436 6.079914192815792
Ag 12.50732218211595 5.676421633797382 4.716907817099769
