32
Energy = -67.47673772 eV
Ag 9.115639889966872 8.229285604437992 12.402790855151157
Ag 10.664059493193426 10.664059394188607 7.4999587337710345
Ag 10.66404408581731 9.197259254618821 9.987653968793381
Ag 9.184377577122676 6.863605093503696 9.895857940347335
Ag 6.07923651259318 10.664111842698363 9.215896559193782
Ag 8.280076134721243 12.163843730916481 8.288532599666826
Ag 5.992323761687284 10.664023912732587 12.146014340044653
Ag 8.353085675376551 10.664068553739805 10.821928072365075
Ag 10.664075321192524 13.502172426267462 7.560384679883516
Ag 6.8752605017719155 13.03072038771323 10.680137523668872
Ag 6.875203140110646 8.297423412299267 10.679990380237497
Ag 9.184404088717354 14.464529109327469 9.895857733256506
Ag 9.11580684880432 13.098924868109922 12.40281067163589
Ag 8.277031412612807 10.664153318734645 13.767495066114746
Ag 8.280061115524443 9.16434120327764 8.288488643104596
Ag 12.975011083225287 10.664032188386749 10.821945772678463
Ag 14.452831955353252 8.297375084097364 10.680142478422145
Ag 15.248873719649476 10.664002377399722 9.215931907250566
Ag 12.143692724708256 6.863576419155418 9.895832561794627
Ag 14.452895656294821 13.030677511135881 10.680042841258711
Ag 13.048063045718893 12.163789416975986 8.288520541992824
Ag 10.664048463748019 7.825971051214832 7.560357954389118
Ag 13.048039536961275 9.16427977438472 8.288535619527675
Ag 10.66406228203582 12.130840436623505 9.987679974426435
Ag 12.143725481882942 14.464507647916383 9.895913010975926
Ag 10.664047531497006 10.664055447866978 12.391050640147226
Ag 10.664083621641964 12.194128849495172 14.645323478909264
Ag 12.212445571443189 13.098790912875812 12.402833895025118
Ag 15.335766647541794 10.664055447866978 12.146047463515101
Ag 12.212277090261038 8.229148926302031 12.402794005702088
Ag 10.663985312641872 9.133922916640856 14.645311363902596
Ag 13.051046716182649 10.663908479096442 13.767511665390606
