31
Energy = -63.82536339 eV
Ag 11.673386477516921 8.827636859679307 6.262090675353827
Ag 4.1040368517888135 8.201792485886113 6.0143753128118504
Ag 7.034240639994746 6.779725625435061 5.081029474343656
Ag 8.736956875912188 7.562155380475275 10.565695712574373
Ag 7.840059661674718 7.908607017222756 2.585430728461104
Ag 5.655020859219168 3.5272283989677597 8.529157491469377
Ag 7.260483048663986 9.724656629973207 4.6555369386929355
Ag 7.305168655316352 7.558154381167059 7.902836946598653
Ag 7.2070182825006235 5.369251443266259 9.867499454959713
Ag 11.723271400288661 10.672873928375965 8.36766859185396
Ag 5.064702612234728 5.896651542305293 7.159068504441723
Ag 9.767502012061684 8.734540779297141 4.35919221102488
Ag 8.987289479404495 9.769450160614088 7.180633388828272
Ag 13.585504271321383 8.559832833494974 8.24663126484778
Ag 7.741227772833094 4.866098969051622 7.028866810177104
Ag 4.6095766569655705 10.620494887658843 4.736955788498341
Ag 6.015193193667906 7.637526642412669 11.167807317291967
Ag 10.89401559870523 8.100740488661927 8.903017005552233
Ag 9.61689596520737 6.870320540909121 6.401339225070349
Ag 8.496443033723683 3.055338686317275 8.977777449404392
Ag 4.3735311657470595 5.651573276895453 9.841596658065665
Ag 7.836054923619089 9.562900975072965 12.236250062526157
Ag 6.032928268926621 9.973496073408542 7.0757887259149195
Ag 4.379778835531527 5.868811674522076 4.44975422101155
Ag 3.2807077797588984 7.7375222472711975 11.229312963249477
Ag 4.562218770725207 8.28242571216703 8.787353809305015
Ag 12.21733013031789 6.2290336720154835 7.430358860115116
Ag 5.2011478553131365 8.234440407621644 3.391461731218959
Ag 9.72419237759623 10.216684713204954 10.243908752199175
Ag 9.850967001853403 5.510505805430561 8.905575764814985
Ag 7.0699080825320335 9.77511349232294 9.576639514907209
