31
Energy = -64.64466091 eV
Ag 9.173298178604432 8.753257487107462 9.875051924553276
Ag 7.187007289987878 8.257749329171723 11.906625987962888
Ag 10.426286160874085 6.468146318947305 8.756908090151732
Ag 8.13638174905811 10.661082275162789 8.081529444790512
Ag 6.398683426529402 8.94264876157895 9.344349218248063
Ag 7.9231943757255365 6.242285590399709 10.185305018808728
Ag 10.215947122731603 9.086578684949304 7.170987951334925
Ag 10.928205707061121 6.687176420330401 6.0217298925703
Ag 5.121068355629695 6.786145722238609 10.50299153718535
Ag 11.012471933255638 4.167907084614711 6.990933832600847
Ag 7.9993741865897015 7.30615823886479 7.5587201492333875
Ag 8.547960004906669 4.499040890809344 8.077705116965394
Ag 6.228158580726275 9.3107016644408 6.508054493514018
Ag 4.369614987677819 7.701653758455679 7.786024874945815
Ag 8.338830959411805 10.68244393137507 5.302249747272375
Ag 5.912096151473571 5.312199924192989 8.218871247396466
Ag 3.1893434537682306 5.474661892280843 8.882564037729475
Ag 8.689988678375814 5.049580643990971 5.255420192831588
Ag 8.82554269531954 8.023973854034438 4.886782694666277
Ag 6.396820873636121 8.8980522603582 3.7418927751953994
Ag 6.696191616537644 3.347194880514975 6.340038325401569
Ag 6.199434164877739 6.511829374948149 5.522690230962295
Ag 3.939441540216869 8.343670807691241 5.072519448860845
Ag 3.9576098683343557 3.805584879529981 6.818506495919428
Ag 2.549721161634265 6.184424454113568 6.257119209704419
Ag 7.619717598772634 6.427605912204559 2.9777036378229127
Ag 6.243283516061549 4.19105252417415 3.739490297882309
Ag 3.4386425237987783 4.483406141695535 4.140476006483846
Ag 4.748927472846487 2.100945660234073 4.786872362922589
Ag 4.825677477633194 6.650480293413002 2.9711204905117548
Ag 2.115184118405856 6.861354801096447 3.607201510445853
