39
Energy = -83.89932832 eV
Ag 6.149047745818054 6.29269842514974 2.4049769527680693
Ag 3.730676361548609 9.897474297361153 4.6469673538245555
Ag 8.229852238961566 5.357853149660676 0.7929742166718166
Ag 4.198960193268804 7.191394895828325 4.21455094560834
Ag 4.013571858861019 9.335145114582827 7.470820997637878
Ag 7.982235469247664 8.125445311439556 1.3004288438018812
Ag 0.4363429143452778 6.160224769940436 7.241593236268463
Ag 2.7372318379742433 5.282213308198013 5.837652107627746
Ag 5.117161445511856 4.576893681238217 4.512157040395152
Ag 5.840708531082575 9.056486141739668 2.8974270685905696
Ag 7.533837443494101 3.988472919544709 3.201034375392991
Ag 6.224542799624532 9.191808233673369 5.700597872825274
Ag 2.08152364365826 8.010151665399777 5.940601539372993
Ag 7.149765210503432 6.493590897068682 5.08509433258371
Ag 9.231986487719539 6.352751280146321 3.1624705025270905
Ag 5.027400818181125 6.5999247932772755 6.9001916755559165
Ag 2.7469695199203628 6.962105742658553 8.536611903492519
Ag 2.153256963701112 4.177552346411919 8.315553134085624
Ag 8.471791981587833 8.969260895494344 3.934893104711166
Ag 8.861559538060673 9.906535045693605 6.552088171831219
Ag 9.222825736755505 4.535253386443616 5.354231194871809
Ag 6.918719339703517 2.6588204597282172 5.628957674519374
Ag 7.102309941094966 4.750343287978728 7.5276264227830865
Ag 4.688046925867532 4.944378089872945 9.237773077547123
Ag 6.572463577129265 10.146742765488694 8.380904413682819
Ag 5.22676813557075 7.879635660052934 9.507229678703135
Ag 9.83673640066185 7.307363333746295 5.7799529997693595
Ag 4.4938420109922035 3.3309745852421497 6.945339232786922
Ag 9.096445533055128 2.678916028765195 7.415806080859713
Ag 7.594245855232226 7.520182879462463 7.709432928220418
Ag 6.484638221789342 2.3233586901719026 8.63933116883116
Ag 9.223968350931628 10.792143415531944 9.170104617904487
Ag 7.053810050565169 5.954152731140664 10.213423908864728
Ag 9.872297442765358 5.471890632950218 7.933120139089733
Ag 7.858227564651053 8.62607411124329 10.383362394074386
Ag 8.697006371998318 3.8000282600348014 9.909856417039997
Ag 10.272072157929758 8.250207679508865 8.407458228989288
Ag 9.7640169742457 6.429280580857534 10.560385736537738
Ag 10.511352201434963 9.104675919982721 11.039115118677067
