38
Energy = -80.98999276 eV
Ag 8.703955632964647 10.801072492714699 6.476285107814124
Ag 5.21042460392312 9.953390897795389 3.1009602537541663
Ag 7.969690131710988 9.682061421440748 3.8815302366678592
Ag 10.116996917933607 8.616415348905491 5.509842812497402
Ag 6.0577118620272765 10.616394220171973 5.709706100169555
Ag 8.06611495315188 9.028444401657385 8.699650440332075
Ag 5.974341305377976 7.359369423829641 3.5603508840815823
Ag 3.9416345565217155 8.834313839433607 5.371100658254292
Ag 3.3002513854628504 7.816106504302285 2.807827401118147
Ag 10.695236060809474 9.700613404637563 8.090138685879836
Ag 8.727173104456696 6.912990568700903 3.6391314977961438
Ag 5.30891835780982 8.9364097965435 7.828875811770858
Ag 7.385159763979868 7.987354900411323 6.034976451811178
Ag 10.56645215320409 5.877947285348806 5.418247976448608
Ag 5.960536424213111 9.683671099637705 10.471112254516237
Ag 9.81453479610183 7.0212100979514425 7.897907972645677
Ag 2.283932667522449 6.6013786366325204 5.147703850753269
Ag 6.676375633410165 11.39384970328327 8.35441452416553
Ag 6.869389338161339 4.826846952466344 2.8118150922607232
Ag 4.113240226003926 5.218090799617922 3.49336822965732
Ag 7.6156020205513055 5.0634483654261775 5.489467988607215
Ag 10.06794896701707 1.5934149530271888 7.319575378095041
Ag 2.8593982399207687 7.624526408791558 7.76281314828271
Ag 5.561732323064965 3.1886677515831368 4.671902897262897
Ag 9.586905184793588 4.2732763429818 7.455108120837904
Ag 5.0045510315280355 6.299121644009376 6.22496006913875
Ag 7.1147923413225005 6.215933986519256 8.128524453134787
Ag 7.355022605453234 7.248145709248691 10.791261466727835
Ag 3.234354793815217 4.0532692730068645 6.001080471694458
Ag 1.1873505040123307 5.42032279948563 7.440409782471609
Ag 7.6649962101162545 2.218860017732247 6.1738227881820285
Ag 9.870857814953082 3.251076875785423 4.879058538180209
Ag 4.686553506087438 7.210063752787913 9.932841787475729
Ag 5.730656498626481 3.7479618672066115 7.422673663574512
Ag 8.927688038949524 5.127470901178185 9.98305761214236
Ag 3.622002401938699 5.015880095013538 8.668052224894094
Ag 7.86785370117812 2.6929852717753016 8.960602214543531
Ag 6.057321701322432 4.64529994835567 10.14749891175776
