36
Energy = -76.8072506 eV
Ag 11.516611712453344 5.910560578385969 3.4489148157659484
Ag 10.167808695435943 4.495281853622622 5.406797906281521
Ag 8.890587017777577 3.01303791414707 7.357423425246964
Ag 7.69578917776917 1.4559895623564585 9.301068633493024
Ag 8.768067851067451 5.286004022314652 3.038710826084902
Ag 7.470389849558247 3.6396897749999013 4.963847126984382
Ag 6.144802472495832 2.248981593390934 7.0591923254967845
Ag 5.9855961707602825 5.244773373139672 3.172879330495386
Ag 4.64612379564589 3.682817538358153 5.208143844061316
Ag 3.215992746220176 5.170790900519788 3.3577499721703274
Ag 10.682092776258004 7.279255113772325 5.794803718530978
Ag 8.046632140281964 4.231714840511267 9.810908888357678
Ag 9.50130392316311 5.746698413766743 7.889249616368987
Ag 9.640957537533293 7.9552433169164765 3.265171793745612
Ag 6.871220844820765 7.922051941857159 3.193091338911481
Ag 5.475127598978676 3.104768012243226 9.65807346289077
Ag 7.9336552516952885 6.536982967976303 5.465011690114295
Ag 6.625410942602465 5.0374539792347734 7.470019137486347
Ag 9.210602995285424 8.553107854146543 7.776481364234316
Ag 5.01873711275292 6.499040934912965 5.548027074041932
Ag 8.298234287153292 9.366882850470613 5.235349801239854
Ag 3.8554467162855564 4.404442647784617 7.81742455303281
Ag 7.850051556927605 7.007653049350371 9.81032031890338
Ag 4.0922679473458 7.839054362277002 3.205123389017532
Ag 6.427842500363357 7.936827107083106 7.512590471019141
Ag 5.273724835868213 5.867318001999787 9.85320528696132
Ag 2.2923734910290343 5.752210466970054 5.956247356167342
Ag 5.46853597479562 9.439822177648853 5.118369636400269
Ag 1.3647641274187874 7.2225899008685905 3.708858962142892
Ag 3.5627589426175454 7.212788546480487 8.053898819153478
Ag 7.699453888781873 9.777411236965074 9.74754262285684
Ag 6.915440059350125 10.731628813289106 7.215654235253295
Ag 2.802237280247828 8.557557253761832 5.659423509132594
Ag 5.130245940785168 8.64584535001277 9.958392657322788
Ag 4.181600948494943 9.965143807741798 7.603545274914081
Ag 5.475625017957233 11.442531118958582 9.552112763172548
