31
Energy = -64.74672591 eV
Ag 8.144084721128493 3.8353609259301384 4.978436838046344
Ag 7.798310885598685 2.7178474462607616 9.402559004662573
Ag 5.768671349849016 5.328689834040895 4.865296491631184
Ag 9.283928552593565 6.401724466974037 5.556089949619394
Ag 8.877915024918098 4.496768223658075 7.592876387695836
Ag 5.620595589422061 2.397164900229451 4.77912427409471
Ag 6.729298360904635 3.668180350271991 2.566177551609974
Ag 5.349909060131599 6.062155129792107 1.9522645707704065
Ag 6.71897681450848 5.232997786612912 9.450813847619326
Ag 3.3597721710670503 6.4751475327082355 3.9873815039241944
Ag 5.774209781664713 8.069946575803545 3.811981054512979
Ag 3.4748560950995095 4.00138905454925 5.793138630939315
Ag 3.909202861663892 3.8724951170428756 3.038479489028869
Ag 2.072937667535285 6.3381401966157656 6.4530109805231275
Ag 7.159891113904849 8.162475288546801 1.444127170801948
Ag 4.359046421306858 8.03733191941238 6.1625426200844515
Ag 2.883412348347013 8.105573922372733 8.510045651817174
Ag 6.770167134282723 9.551739712752433 6.02442989689037
Ag 8.52369696616315 8.656229353642082 3.9150087767737465
Ag 7.9944560346365865 6.050349431157883 3.0721818964878613
Ag 5.0665404840772705 9.927804166476877 8.239773399406037
Ag 6.920493242946678 6.85946102731912 7.020308047584138
Ag 6.213868083030461 3.579904186367845 7.179792700223135
Ag 5.3450288539253705 7.580187391262124 9.660848530213979
Ag 4.402072244156098 5.674337259214465 7.854685978957784
Ag 9.511214236975235 9.026879907951038 6.478213236260945
Ag 7.78349298289184 9.313476416227346 8.627645100619242
Ag 7.912434203470237 7.449384841031053 10.779296698193175
Ag 6.281242012793706 9.831819757353705 10.859301740515832
Ag 9.499217061115402 7.069653155399493 8.455493963171644
Ag 9.322045309398757 4.996686377855151 10.352436718658543
