34
Energy = -71.86409086 eV
Ag 6.363948621847608 9.778937491764855 9.551274972282084
Ag 4.393730882477332 8.080717413142464 8.608744616858875
Ag 2.5373259845758547 6.326972226654261 7.51692527700169
Ag 6.565340699769851 7.237779955280762 10.726129040184267
Ag 4.7064219062134285 5.465545145977845 9.593938905387585
Ag 2.986847754383688 3.6654440761440634 8.314449064438659
Ag 1.224742922320955 4.168054823331045 6.254001397773648
Ag 8.852231334127332 9.639994498719442 8.254826591703658
Ag 7.497266750540817 4.911050856672879 9.429899445216885
Ag 8.566014785844212 9.321256376854926 11.150035796124888
Ag 6.0480146618886295 9.84525479909014 6.804944786749233
Ag 4.118128190108883 8.05556827823128 5.801647678219454
Ag 5.6539123755241665 3.0971361636505104 8.181002530756258
Ag 2.9349337379592453 5.691808667003673 4.729895658995078
Ag 9.294661144724689 7.156303186664792 9.708874486190393
Ag 5.179711276358775 5.509573182990741 6.727339332023203
Ag 7.025624243437237 7.430638476462632 7.863376399498131
Ag 10.193195770869606 4.946849580383752 8.392135476747331
Ag 3.8804814234718537 3.1692563502430424 5.702132380153983
Ag 8.027989566610724 5.142297045041952 6.56977388891726
Ag 6.754577615792052 7.16876413479939 4.993150963821048
Ag 6.667607946547857 2.936009177604155 5.528330466895991
Ag 5.42958366494826 4.7248348923996994 3.782772539843609
Ag 8.403992425670959 2.734583594809897 7.904801810257588
Ag 5.758669433467213 9.691289432714166 4.043839811475263
Ag 4.465791557625609 7.300735852921741 3.065222508460481
Ag 8.493399385321798 9.449458050037107 5.475632665096252
Ag 9.865856066860248 7.387241905157662 6.885547830781415
Ag 8.21296422235297 4.54760723908745 3.8474568748276567
Ag 8.169684527977537 9.094970154219233 2.7148300349458303
Ag 10.601220452139573 5.03152341114592 5.535539052820417
Ag 9.455182811432941 7.095863816860524 4.058420261034615
Ag 7.100074206428564 6.5452067536743845 2.2223109879505607
Ag 5.795925194184297 8.958360887817664 1.3163481967460482
