31
Energy = -62.43501049 eV
Ag 10.201450040245357 5.897135092176986 10.823689881246981
Ag 10.731417739358138 8.610526670684587 10.172569375887084
Ag 10.166787362468876 9.53668726098209 7.583753487029373
Ag 10.029203383598256 6.853498663070055 8.205967302554152
Ag 10.072345825507039 11.907776489837998 6.268164765776098
Ag 10.41786827482295 4.111019532653642 8.566545929746022
Ag 9.329708185840387 7.641101687647832 5.544358416832867
Ag 8.593380168571999 5.1633547386943 6.481342129276521
Ag 8.054769962790365 7.63819693543675 10.381080665622957
Ag 8.087012136519416 10.189979031974556 5.693371127410977
Ag 8.19997090076035 2.6813590047517595 7.53735201621221
Ag 7.9399446858922476 5.798193962627908 3.871681699087881
Ag 7.927108376190956 5.04082023409727 9.338092306384938
Ag 7.568283283419908 8.27499458076966 7.654500446712225
Ag 6.410547339002413 4.280293383611926 2.1618020058644456
Ag 5.661391563742144 6.644719555144541 8.931623966284393
Ag 6.915145427319894 3.3980200076918123 5.01513905582666
Ag 5.9244091507520835 9.287183518147812 9.673278008778466
Ag 5.86359065408502 4.244416770752915 7.608321057977364
Ag 5.09002857079413 5.397999977011583 4.268431072099414
Ag 6.541025233754063 7.953527691421903 4.98885580201676
Ag 4.833767296934469 8.753018210595066 7.121999298192863
Ag 3.9820740054951083 6.095773633908845 6.751560550215431
Ag 5.856195046798924 7.118776752229868 2.3467694270615387
Ag 5.728542851486691 1.5552099683388718 6.869743083959999
Ag 3.9903985899107357 3.334908494106258 5.701486187520703
Ag 3.794368618387327 7.870669884054341 4.468332391098991
Ag 2.329259294877578 5.281687710473106 4.522847746686017
Ag 2.3665679344900146 9.558657383520442 6.119611089880893
Ag 0.994704093736563 7.671379803129274 4.76946320957922
Ag 10.731417739358138 5.508791734075749 3.8579448607964455
