37
Energy = -79.45263299 eV
Ag 10.011561798035043 6.518244223682122 3.7811701356164633
Ag 9.921120678928844 5.582403781999383 6.400978451915414
Ag 8.10421619965384 4.537857695668015 4.465845292576541
Ag 11.268686009874328 7.981176039444804 5.7676814565701156
Ag 9.41316769761463 9.342839787939575 4.087349385741661
Ag 5.949493506883323 4.143708942069948 2.7339951069384396
Ag 7.647941385671217 6.336910557124071 2.339421399077581
Ag 7.829620085255833 3.8393324510636755 7.156431008153304
Ag 10.626693896028888 7.437585735793395 8.418246788911816
Ag 9.028603091036826 9.258062483142668 6.964691824982242
Ag 9.579353437377842 4.912962057266213 9.087269728749044
Ag 7.5939042344106165 7.443605029551979 5.081932543359154
Ag 7.660762375622697 6.798930193759077 7.856838881363306
Ag 5.98036456357179 2.848065670208575 5.217403965979903
Ag 6.838405533831986 8.991379814921741 2.853566188786948
Ag 7.09497291031151 10.41418720296107 5.268851056034355
Ag 9.236035856213507 4.297940418084548 11.764286091770618
Ag 8.540905920677346 8.787346140443434 9.785163451192199
Ag 5.111687801885343 6.749977681299447 3.4693870142464736
Ag 10.198549794457707 6.864919131253437 11.126750180027
Ag 4.457365526379814 9.363219227845992 4.3226380376089155
Ag 5.680719391128762 5.6165443025081 6.126340696211495
Ag 5.476786895508835 8.433781998416146 6.777568400957916
Ag 3.685780153679034 4.402937993241211 4.393696015927909
Ag 3.3658820716138704 2.1391735309809303 5.983818508472461
Ag 7.237424120787237 3.5192263293048938 9.878220637221354
Ag 5.284708817133666 2.8727669931413082 7.91393750531954
Ag 3.1346628186598515 6.951185969436406 5.439459359409081
Ag 2.615456727878224 9.428096221168596 6.499774275320687
Ag 6.8286682128417535 10.463016163454313 8.251078515361582
Ag 7.518354915371267 6.22740449554668 10.693582599550675
Ag 4.7656913341257505 11.287009508070234 6.398966147929696
Ag 3.201866598001036 4.685361172071888 7.213961472565115
Ag 5.305740070205052 5.436744650270882 9.063757621858844
Ag 3.3376034305037705 7.297068304136537 8.278607133391592
Ag 4.067065316500097 10.037750893763105 8.81468539914062
Ag 5.791929753883324 8.143030140509584 9.71440065330535
