36
Energy = -77.13463799 eV
Ag 4.754064217353575 4.1324134891044135 10.292769190078337
Ag 5.870179264991426 6.696092754860085 10.219180857661156
Ag 3.4024363557990935 6.083785233201177 8.79969774978361
Ag 4.548108494363533 8.672775984765776 8.564653990764754
Ag 7.7260176429076735 4.441430482744014 10.106269368273715
Ag 6.794826560755423 9.30652053185393 10.064896668176004
Ag 6.11782396687812 2.2984978867186547 8.688439004971672
Ag 8.704964342224693 7.121401324299813 9.911312186126795
Ag 3.750900151258735 3.5161814794378277 7.516208433734885
Ag 10.172226873712797 5.0714682919740826 8.74821423686679
Ag 2.2078509505599277 8.131853413398357 7.176388926341062
Ag 4.667524942202807 6.656348801344178 6.268580353934873
Ag 2.095891742713299 5.47897118823221 6.317987087996931
Ag 7.106976285337437 7.597853641144503 7.635816869050099
Ag 8.442684756991175 3.351767482474002 7.5080403750001175
Ag 6.556955349809626 10.38425660740112 7.418231184213757
Ag 6.093567231631223 4.987080503741299 7.943029311259475
Ag 9.084287350594638 9.597744091728394 8.536718957815301
Ag 8.849559597322285 9.67487474220395 5.787831597284376
Ag 2.7684686828705654 7.591806156223775 4.438794565618437
Ag 10.003766561277487 7.3678908420105 7.192529008601827
Ag 6.667737455666989 8.081545068226943 4.933336480933235
Ag 9.541463325104296 7.29535709027532 4.43527566464869
Ag 7.502902138567712 5.476519627627095 5.544531058613882
Ag 10.25351978402495 4.881899308693404 5.905745432334461
Ag 3.97008213065734 4.16495145388253 4.726413638833496
Ag 6.448209633899039 10.930608001815854 4.678885222520496
Ag 6.068625089005835 2.8462485558527577 5.921141028785239
Ag 4.867370228918735 6.279160406299863 3.2474970470519
Ag 4.291076376564481 9.562028108875372 5.861656806694904
Ag 8.624880651566658 2.7297056065487366 4.810607208145315
Ag 7.466074293468497 6.680210696265054 2.548937802214443
Ag 8.133820603467077 9.377165012030613 3.0123605604163637
Ag 9.366262616472012 4.799111862138078 3.1831233735357363
Ag 4.936674480179096 9.077357610028244 3.0749962475264514
Ag 6.519939900429435 4.016772798125892 3.3372985773480623
