36
Energy = -76.54808733 eV
Ag 7.3235826416070795 11.3794421790419 10.075982867693288
Ag 4.69201109917262 10.720475339545889 5.10798617185706
Ag 5.843899816210467 11.114167158628694 7.686243219294932
Ag 5.760894556424064 9.054988427185801 9.549030590934157
Ag 3.3120427870855162 8.397799209378471 4.354013601335403
Ag 8.612319022127702 9.056790719275176 9.38545014638034
Ag 8.710838954606142 11.228952633133034 7.661395927753526
Ag 4.6777476917280865 8.63621120997251 6.914339189333428
Ag 7.261134262070791 9.758265567642079 5.746732109763589
Ag 5.937054181599675 8.78122981206473 3.4636483762473858
Ag 7.148827843163619 7.291365461795614 7.505003746697611
Ag 3.735314007687968 7.131936593053265 9.042282388181786
Ag 4.8273769157959014 7.389603512053285 11.592935976579525
Ag 1.8082322525313137 6.136327527413626 3.886087114462092
Ag 2.7457559950449766 6.55548578207977 6.486055371105488
Ag 5.74788964337802 6.549833201686394 5.136917822526192
Ag 4.362469407568058 6.314605750199578 2.6867901852842095
Ag 7.335173463113079 6.86787532624694 10.442514859394954
Ag 8.41442362751357 7.542750282350626 4.566833304439959
Ag 5.021714492936989 5.149478670530138 7.431047174674501
Ag 9.687503757670848 8.699524132318581 6.815273523288563
Ag 3.7414754431460877 4.448897196832229 4.879794191727341
Ag 5.184499599055754 4.993777716336124 10.251461857249694
Ag 7.154239870340616 6.5786313262717355 2.283841004418
Ag 7.634761533144124 4.503679508813205 8.937718232293788
Ag 9.191535943054008 5.060259036860152 3.5101470185687638
Ag 9.598624928812262 6.515233514438942 8.652993512272928
Ag 5.490599256573608 2.6772303157903097 8.661687734362578
Ag 7.926083119432046 4.911506371438988 6.1007295215202175
Ag 10.513393632546167 6.148161949422838 5.9320961159803085
Ag 5.7745590437953 2.8813912622520483 5.8942637897110055
Ag 6.32251573504505 4.272881196950571 3.53160355841827
Ag 10.1609821272553 3.9490144472132562 7.711674496520663
Ag 8.015758030712403 2.1895356790643405 7.377316896897033
Ag 10.937646763777638 3.5002949575353806 5.086699880477995
Ag 8.356122974158056 2.5789594507996227 4.5972430779488835
