39
Energy = -83.64263393 eV
Ag 8.518162753816336 8.497202821857478 10.487485727453377
Ag 7.180091064377363 8.297535742803936 12.873844247376116
Ag 8.820834666882234 6.151177064833908 12.053696373001417
Ag 10.044503875345283 6.27810810545616 9.513939144160261
Ag 9.553768181272105 8.855656299887183 7.9835555937202525
Ag 10.514582467860821 6.538418740339755 6.738058255901258
Ag 6.599481526958027 9.287655495220482 8.579510348080024
Ag 5.338503728429562 9.308981683962498 11.01138123376148
Ag 10.314601470798054 9.150143453585102 5.294938085732182
Ag 4.225615537403251 7.506274279202695 9.101175384043374
Ag 7.836795694937497 4.426634855743509 10.075510195600696
Ag 6.3244315937596784 6.688356988573746 10.753227179180135
Ag 7.7701593181978446 9.947773851257724 6.171199585824009
Ag 9.438110966740417 4.621749682168862 4.827249014612273
Ag 9.1665059714992 4.182276760930905 7.6204827609619326
Ag 10.559404012566397 9.113818851985684 2.4935930611155914
Ag 7.696356656147998 6.683752012104227 8.082578367785665
Ag 5.587787727956929 11.401720545267827 6.99924285180996
Ag 3.833722662168732 10.211802434026763 8.748979821342308
Ag 5.35017039813158 5.010817402070169 8.728012147622971
Ag 6.7734414691581195 2.6547312585336784 8.178008191008947
Ag 8.195738472858926 7.186372377929234 5.228672047616507
Ag 3.07925265202135 10.616546489941015 5.9845099892334295
Ag 7.980893570587119 9.599619415140232 3.4408945926015124
Ag 8.035880323350947 2.3441775786864194 5.6554440386601454
Ag 10.940578079246244 6.776221068038453 3.9624680035207165
Ag 6.768073102956635 4.803507047384143 6.133355458074869
Ag 5.6140404881519546 7.445174542387975 6.410960408057669
Ag 5.40893819574719 10.012063008569648 4.5910428730440085
Ag 8.611486445231709 7.058737881037806 2.4225643445830016
Ag 2.1830553123427396 8.419363223639536 7.360101576097026
Ag 3.23368386578609 5.895863398041668 6.994733142041273
Ag 7.068179882317487 4.946850191872842 3.310048761314823
Ag 4.326508106554908 3.3420385288286503 6.710621579770611
Ag 5.6497053854763255 0.9171223464442956 6.294586881234355
Ag 5.933307530189007 7.540183812256975 3.472414319290029
Ag 5.60895095970594 2.8068211679457917 4.26794567581383
Ag 4.456993593198298 5.382503496512148 4.534203304682156
Ag 3.3795925575675905 8.004654938570553 4.836320299315942
