39
Energy = -83.1780618 eV
Ag 3.960014433388909 11.723931209896593 7.363096212016578
Ag 8.552664497207978 10.880983287101504 6.343205507934498
Ag 7.268440420337646 10.21405409758461 3.8277910164821134
Ag 6.325998132231678 10.459406976942802 8.025029652110955
Ag 5.0932756518375815 9.944349698502812 5.513484811885811
Ag 10.251605502191873 8.514359940056448 6.349009159034906
Ag 3.877013167826304 9.59464122292219 9.264463712156324
Ag 8.733347772613733 9.193913894197348 8.639413126362577
Ag 8.761123833754837 7.910733754316541 3.321599116347045
Ag 2.5762793150726466 9.397911524274491 6.746732124129579
Ag 7.429588566808322 8.401973143428592 5.9761933994293175
Ag 6.413311493225726 8.618851926946068 10.199357181588526
Ag 5.97502646442233 7.740068013667319 3.5522756334952383
Ag 5.344953903714996 7.693116773826455 7.751215822696063
Ag 11.818949732665692 6.106418440674399 6.540918921414991
Ag 10.774212371330062 7.241722987208077 8.884433007935199
Ag 1.112897197403864 7.250713302851708 5.6266377464403865
Ag 8.78983682289193 7.338095387167188 10.836166739777555
Ag 11.393019676049807 7.359506318881089 4.0785092277565544
Ag 11.140683786400164 5.957824586297606 11.406459569518939
Ag 3.838953840895716 7.3913975904657185 5.227923812839443
Ag 8.117762526784318 6.52098884727902 7.957335703057552
Ag 4.10893814782404 6.973915514878345 10.223567552459192
Ag 12.037402850488148 4.7899110958605355 9.018515478642101
Ag 2.6011840605903833 6.8538325336751 7.917486157035134
Ag 9.244203858319302 6.0083123494613195 5.2809332198588566
Ag 6.558582641981162 5.641159509059535 10.16352009007602
Ag 7.434159677932023 5.357137560448274 3.1582912185857763
Ag 6.2951066502835324 5.811328258579554 5.858206871078391
Ag 9.220544780299846 4.658594816558442 9.9177112084592
Ag 4.600535096286352 5.252606266349817 3.61731497218999
Ag 9.896127171832202 4.168966371207289 7.264501763702611
Ag 4.588596098417715 4.884138077463038 8.242278856625903
Ag 2.86949651045215 4.843062631242955 5.911109124604505
Ag 7.18584534284822 3.8112124439631825 8.033769572657585
Ag 7.9729614510321305 3.501404754042906 5.331839871588609
Ag 6.0835659107796625 2.8778516793216884 3.3630024252957016
Ag 5.227531218833127 3.163813560801984 6.082481878145634
Ag 3.37197002229625 2.7882035930982796 4.054463877893313
