40
Energy = -86.00506643 eV
Ag 8.1773861802116 10.644538173740173 5.345689973762023
Ag 8.465431205800074 5.132392090703051 6.143385962562207
Ag 5.969105670213476 8.290192857098704 10.157569852898066
Ag 9.857880806539217 6.304186748338422 8.360902439188056
Ag 7.5743944139683315 8.872768646412991 3.081254537624453
Ag 5.703377286614462 4.767017207405429 6.158358554821728
Ag 4.545104544107773 4.012859828062562 3.7312360972168115
Ag 10.79881508896125 6.614905128767528 5.719154439186841
Ag 6.895781008718038 6.4996925114961766 8.116851478692746
Ag 2.8823354960590533 5.4811513036022 6.657801998282578
Ag 4.985293458969043 7.488214815943178 6.178272118518789
Ag 7.7664222861102585 7.806478228862209 5.6637162854444885
Ag 3.325231676328375 6.518591973144877 3.9233283646565975
Ag 9.80980979429941 8.944701142204279 7.164474105641165
Ag 2.7963151635888983 8.99016482108259 5.270611795209611
Ag 0.8645067601418294 6.8849007335497445 5.182310522883078
Ag 8.959856432523472 6.423738218208824 3.461073783607878
Ag 7.057336917350545 9.58191834718841 7.828547576311798
Ag 6.067080122587142 1.9270692976739576 4.977209668812966
Ag 8.007802369113268 5.818372354600167 10.569855319794476
Ag 5.428936558179174 10.219028458172161 5.627051517622325
Ag 8.694797842776275 2.3238900528986077 5.956892030228314
Ag 5.22072060364129 5.673615591358747 11.016180148713902
Ag 4.397944261965042 4.1323953997846665 8.675663776052799
Ag 7.472534139895461 3.9419227188452752 3.7395350639071228
Ag 4.234826286585079 9.455323951414705 8.088342602357464
Ag 4.810507251215165 8.866270383448626 3.29959179996664
Ag 8.718403069690282 8.412938592194278 9.725105868845839
Ag 8.670275655897049 3.7174467172107355 8.607309415909786
Ag 10.943890264419478 4.016986330017855 6.996322568707892
Ag 6.543520616628672 3.373955537995332 10.2751460111187
Ag 10.235244609133941 4.04298301096959 4.243087564568475
Ag 6.134297801644231 6.404629994849662 3.663376549116632
Ag 1.78399862595007 4.196946780716026 4.458517115506202
Ag 10.140979309459002 8.907375934873794 4.299033309123327
Ag 6.35185665381057 2.3983254679755674 7.673556716887543
Ag 6.3002857539943475 11.335830530324161 3.254317388441533
Ag 3.9309020021953676 6.844965487343391 8.903229462030483
Ag 1.7835469085972253 7.94014946733544 7.586805486255026
Ag 3.699967922248255 2.7978679843164627 6.226033549654356
