47
Energy = -101.74743698 eV
Ag 6.875630584117585 3.627985608445752 1.6590292848821604
Ag 6.12827338344672 6.223770205003254 0.6983196724777119
Ag 8.694035766281624 3.367146880217034 3.836443918879631
Ag 5.357109971959797 8.929389965908882 0.003191459875311225
Ag 4.175111376465198 7.684115679015305 2.1337500365900164
Ag 5.961568182658257 2.744168384390639 4.2386302798637585
Ag 10.473536305899351 3.3177021522897623 6.036595801937946
Ag 7.066138166110559 8.495759694995748 2.1096354913714217
Ag 7.855839062990373 5.931117420688934 2.950453858629997
Ag 4.928051290845975 5.04793356739924 3.0176349852584416
Ag 2.8117231243790295 6.40170181352242 4.195599076934528
Ag 4.225378146631184 4.427917491828553 5.863947552749618
Ag 3.3400318546158596 9.172447246471446 4.442179546320352
Ag 7.875613535486007 2.338577130708416 6.390063519720866
Ag 5.098719662233559 10.368136650004773 2.6165775193961327
Ag 9.290588880955072 8.284863617152213 3.738288020481293
Ag 9.869474818046543 5.751448225587905 4.915954194946497
Ag 3.581482560954119 5.101927222749891 8.638726087401274
Ag 6.9630095880157095 4.964682456978214 5.584674367369864
Ag 1.6468947680912613 5.412961422580341 6.618154570728154
Ag 5.9671603899363 3.6371063115744424 8.072236806015088
Ag 5.684265134250197 7.381522130426558 4.540163034536713
Ag 1.216643155711101 8.103635367227305 5.9208725036642855
Ag 8.636850798230562 4.995079575042233 7.803076309709042
Ag 5.234416880164052 2.32250782561064 10.397256890728679
Ag 7.17111816036881 9.939088884513517 4.558194189370752
Ag 1.8452309019215711 7.499156832196003 8.666292785541184
Ag 7.310579480061595 1.2135609387312285 8.90718324070347
Ag 8.007259744846245 7.483900664853614 6.135076461843578
Ag 3.0974240699680995 9.886705059123386 7.197726821306028
Ag 3.839030898247695 7.209010407935698 6.704806514831695
Ag 9.76985513192111 2.535258623299866 8.627324034510329
Ag 4.814098192253832 11.311409654322057 5.334981038587451
Ag 11.342345571713045 5.639076532232993 7.384778976830697
Ag 5.477773161326823 5.049570241220263 10.706186052054408
Ag 6.201635176175022 6.45422511135715 8.046750846344866
Ag 5.845949283260139 9.24074461571733 6.963907941672196
Ag 10.776189955529304 8.16687984854144 6.1085879141432455
Ag 7.8328011582241395 3.5539132078099724 10.34947759206852
Ag 10.353331227343746 4.967759233467899 9.988373773436582
Ag 3.1852796732253585 6.609093403143122 11.022151701165704
Ag 4.4254686376212815 8.420643700072448 9.280240388732874
Ag 8.645713934281455 9.935753516270386 7.114654014138714
Ag 9.726915884070943 7.6037631569990936 8.660799619282631
Ag 5.775018175577261 7.645048111743621 11.58852298436245
Ag 7.261450897748801 8.826114392381333 9.386206496517385
Ag 7.9768832373400755 6.336278602343198 10.472041230642402
