48
Energy = -104.50507799 eV
Ag 2.082065614714085 6.13195196474174 2.7484444680274183
Ag 2.120974377346699 6.19748736624201 5.672839955026497
Ag 3.775507241304605 8.023380425390293 4.123391294002649
Ag 1.8679603598459609 3.6844979625333116 4.289172940427169
Ag 4.890004028090149 6.599201940071994 1.8645988983577282
Ag 3.610922002711875 3.9128758168240516 1.8408324904566669
Ag 5.942834306780255 9.085649133370085 2.7878655911737598
Ag 4.555452697437265 10.556573123975584 5.173302508136488
Ag 4.242726292520719 5.147701118690269 4.1936649899512215
Ag 2.9537946389187435 8.750395110451793 6.713042228229874
Ag 7.121496156197607 11.265912783426204 4.025435372383641
Ag 2.27290400147167 2.3227630326212365 6.697756661728061
Ag 7.813642782633309 6.624484661816364 1.8646777961194365
Ag 6.570689003383063 6.694774729005594 4.251649947794741
Ag 4.3484585854651145 2.2247869491272807 3.9977753468007355
Ag 6.723304530461795 11.679597796504257 6.749098427328387
Ag 6.357957948279869 4.182400843099825 2.683655337441158
Ag 8.694784949383294 8.987262799148137 3.3733740066643505
Ag 5.198423543629549 9.721670762896142 8.032487491949153
Ag 2.696995526705765 4.831042409830746 8.113375471043028
Ag 6.799600537140086 8.997813411802007 5.759458443551004
Ag 3.8356744417841657 7.416000933590189 9.061037450889831
Ag 4.790787707989629 6.613870901620681 6.559073890000307
Ag 4.639159503100274 3.6810843259317343 6.446296756963781
Ag 9.19272296717787 10.47092272342509 5.845436820902966
Ag 4.870598123688767 0.9205871030936043 6.436372014804604
Ag 8.068324578592081 9.84846897778944 8.42905476101241
Ag 4.641654451502771 6.5695769429605395 11.52730235397315
Ag 5.4691353770546804 5.075775161499795 8.920681354802083
Ag 7.118702613861162 4.994846535316964 6.3779566708493585
Ag 4.118080533503187 2.276482114556785 8.865580260801218
Ag 7.193181265028385 7.208883731080783 7.983236530352248
Ag 9.053305453344112 7.164398161195823 5.649373919781726
Ag 6.345889233589961 8.504750615083061 10.315404187977325
Ag 10.37080810936624 6.802553238105463 3.0049986603559
Ag 6.966059235965449 2.568527774291551 5.019183413390832
Ag 3.4390816086415366 4.243685599469792 10.717247272373074
Ag 8.788148530686888 4.665499871401244 3.963167691711296
Ag 10.557121169813424 8.685128884299475 7.55357173960291
Ag 6.806883518659495 2.4650149902697085 7.893624474612657
Ag 11.165265487375015 8.800200202373071 4.784107682973617
Ag 7.263703986955851 5.924147060104988 10.978460414504797
Ag 9.222557210540353 7.545505003766285 9.774724308130775
Ag 8.37221904144332 4.479745700537616 8.973717623913958
Ag 6.2593004971837205 3.1087877709533105 10.622514636005882
Ag 9.42542990551632 3.5082838024992937 6.48971717879189
Ag 10.415482356217263 5.897672867718111 7.824767475717953
Ag 11.238249307561267 5.297295640985873 5.217396764222093
