42
Energy = -90.50308632 eV
Ag 7.444447030120381 10.380709533981873 5.965241302824308
Ag 9.43900467875354 8.684206748147785 4.6551667230808595
Ag 9.778205587533101 9.445441095289477 7.326480111761866
Ag 5.005077827864611 9.893551715600418 4.60151945518201
Ag 7.448870144544953 9.715041728017614 8.827223417081456
Ag 7.473272995790785 10.072689055842552 3.1803666590527406
Ag 5.129515062353632 9.340917753915445 7.335910756557918
Ag 5.012011975298829 9.556606618588656 10.260058947208547
Ag 10.578525774573814 6.8465293202080675 6.87798328068005
Ag 7.589037223923876 7.592098013857893 6.590578937153012
Ag 10.064643147097469 5.995222875497102 4.194675046041852
Ag 5.699568588018336 8.0308754995012 2.6166619821719133
Ag 4.830096902091099 7.16505220447954 5.407755514144458
Ag 7.163624122834296 8.076523038826055 11.441483713488369
Ag 2.632705924965526 8.615766189712492 6.2099691621247946
Ag 8.48677890674646 7.480318343692646 2.3430408107510092
Ag 3.2996381446000904 7.798374956037867 8.831303369852236
Ag 9.055503892221441 7.399417847048278 9.21545338747192
Ag 6.100338823140926 7.244261901897669 9.022660764780062
Ag 3.0165535003539987 8.192261366824935 3.388920222892051
Ag 7.096923749034714 5.895345860859437 4.259167896658702
Ag 6.39049934002678 5.674277120662609 1.3473255156033612
Ag 8.78304242939258 4.648633136679016 2.092252101342706
Ag 2.214584765189039 6.0171438138675315 5.002958862117425
Ag 8.621910227968323 4.925075460548549 6.457707641932033
Ag 7.620185710950201 5.440088667563459 10.583666368935948
Ag 4.48982031320444 7.022873869959152 11.365152780062154
Ag 11.261695930805665 4.215195709302003 6.067253153700045
Ag 4.157313171040897 5.628619200181532 2.94252124948123
Ag 2.22876947340853 5.615189992644521 10.10539617468982
Ag 5.968999855235645 5.281326359815257 7.056413581363932
Ag 9.147450334402969 3.106687200955574 4.356900287137199
Ag 0.9680001053553519 6.807174377474226 7.601469574393246
Ag 6.336153247424474 3.453040180712433 3.1544098703481014
Ag 9.901789835860303 4.71124768143275 8.885826778993282
Ag 6.8162561742851056 2.694086394893622 5.843763683685693
Ag 7.3482123275641085 3.4345399630514732 8.66596544226859
Ag 4.331685405787103 3.9864936224701895 5.1330122987892866
Ag 9.430770078681716 2.3221599522445358 7.108580973585314
Ag 4.952200983982817 4.765471935797573 9.731409757779529
Ag 3.216929153223883 5.251688160940462 7.480660397042371
Ag 4.711872058689249 2.820260455317575 7.708216970130614
