45
Energy = -96.62591385 eV
Ag 2.2816002932157606 5.977925609986567 2.135468560553309
Ag 2.7228161718345474 5.595265363244567 4.832921785382442
Ag 4.416295605521566 4.257056894848245 2.9727192259930457
Ag 3.4515344081635506 5.019732539568139 7.456733078092739
Ag 2.0360016895117394 8.174144862033204 3.9849364960408002
Ag 3.6304914929957284 3.0412920676938473 5.341037835839757
Ag 4.570156508951142 7.075926058845194 3.2228574109893025
Ag 2.6848936573154503 7.663728219626897 6.756042683672107
Ag 3.750155422176025 7.0474715416673215 9.33938850172484
Ag 6.4159058222074385 2.812220354358148 4.572375402057561
Ag 5.383138542361882 6.642265417207484 6.050363969689892
Ag 2.02119557724548 10.298278354438434 5.880004884006398
Ag 6.276490670397137 5.628605617492103 8.578775283839503
Ag 3.2996735166250524 9.872873996659113 8.341067326918893
Ag 4.413469394566425 9.222048603097246 5.050866929949536
Ag 5.48647473812608 3.201376731744918 7.307504473958273
Ag 6.842590901229364 5.464802334724592 3.5610122435429146
Ag 4.547994818097068 9.384592798796588 10.768921136941275
Ag 6.112705906558434 7.0818093835062985 10.989160426037706
Ag 5.871949914129997 8.486259174395258 8.334537803556357
Ag 8.897027910857712 1.3190370924653667 4.782329743430192
Ag 6.89797422494041 3.1102506137584305 9.711336139519986
Ag 7.9909551481558125 2.111185539061765 7.271352221741985
Ag 11.421242322129277 2.248736518158099 4.016784368409639
Ag 7.746201581544436 4.793595512673413 6.169230751235601
Ag 4.462529996573436 11.685129179812101 6.552395552727171
Ag 7.995289650219885 7.511217548711144 6.853120443900916
Ag 8.131597010099764 5.1699035967968765 11.123915885950991
Ag 5.766996476637493 11.201941797289326 9.003810692691445
Ag 9.09303391989786 4.409151570666042 8.6573666358333
Ag 6.9547267847251755 8.198839412054639 4.168880242775367
Ag 9.126228620844993 3.87642055321854 3.7510514184259405
Ag 7.406933469722793 9.551306874491441 10.66034931305666
Ag 8.904144455367433 7.373367299820971 9.491533585151783
Ag 9.330152614935182 6.656851690872822 4.30134519288407
Ag 6.785567270102975 10.186825486173461 6.041817672595811
Ag 10.352009322768355 3.2443579026279306 6.357207671824781
Ag 8.474984725843933 10.163722502865769 8.188367187367746
Ag 10.487166048816269 5.98571535413298 6.955306758754604
Ag 8.634393494026844 7.668164179875832 12.259830382890192
Ag 10.707614451687148 8.600030890655402 7.740834652551551
Ag 11.626800085018177 5.02230922519618 4.522580361457848
Ag 9.39557795998218 9.376049236808381 5.337039096029776
Ag 11.75429304772598 7.769810974684601 5.223042683135504
Ag 7.22379309314648 12.601172260194408 7.165244623871062
