46
Energy = -100.12772585 eV
Ag 10.858772344819512 3.8366622447772696 7.176869141936537
Ag 10.127338951657414 5.906354866897333 9.030013387127763
Ag 8.384699133164748 2.3339036327507223 8.066530757453723
Ag 9.417096908149636 2.1300706602387653 5.423106378138245
Ag 9.718813029752916 2.79972659386251 2.6340043240563356
Ag 8.194176981545619 7.24814168546607 10.644491179051187
Ag 7.94558448642702 4.483435832369345 9.906031518007163
Ag 10.724095204898482 6.72911553489139 6.429583208090763
Ag 10.620865902854138 4.650326900576279 4.505709233648125
Ag 8.309415200015295 4.87116150047956 6.997512730894507
Ag 5.419307631490171 10.836175245926272 11.238451974767676
Ag 7.092509697849184 9.54974010540506 9.43480988655332
Ag 5.277347733564372 5.267727061836409 10.634640360552646
Ag 5.809344014737517 3.7367176106722235 8.261831765739759
Ag 9.214396235020997 8.379729294534739 8.120065176644317
Ag 6.550286773157307 6.625861046351324 8.548833366491944
Ag 6.422896022598884 2.2867856166959903 6.013718570049109
Ag 10.707767091801982 7.36575724883727 3.5938699792534305
Ag 9.415629675653205 9.186932305515949 5.457162619019492
Ag 7.119827778355661 3.5544318197116724 1.5743130770452987
Ag 7.343785654517349 1.416883079795277 3.5125057093415397
Ag 5.436858717027724 8.049597241297889 11.056737889339987
Ag 9.033629586865572 5.592388773640196 2.2166192724172804
Ag 7.560190446716128 11.024061825012103 7.104014416990404
Ag 2.954789883410826 6.89929652905109 10.60747720505357
Ag 8.33981041596101 6.6606876629292975 4.868527976305537
Ag 4.934772390293612 11.36126447118384 8.506281716541192
Ag 4.536958837587658 8.503747053659609 8.119792495298777
Ag 3.795906695045963 5.689995136891634 8.188028416544263
Ag 7.991039800244125 8.276561886042703 2.7070517774063303
Ag 5.131771971830073 3.412557886978871 3.6304928730939343
Ag 6.803540881902108 8.440515259403837 6.472156344270518
Ag 5.850407435757001 5.737363473971663 5.861070522282827
Ag 3.8865130399248633 3.731621738126516 6.147960562830145
Ag 7.291376713956452 12.295424641984086 9.626417538572694
Ag 7.154242019989077 10.37606486319646 4.339779909146349
Ag 7.762253696868932 4.045693389901617 4.265475337276866
Ag 3.0779762528892514 9.650539781058884 10.17012020504105
Ag 1.8282059047638197 5.678874876644937 6.22636556067955
Ag 3.0666242339071967 8.132396823999002 5.687166427219618
Ag 6.219379467664274 5.96390931090424 2.764507183706245
Ag 1.7815576029016635 7.791914475698707 8.210310518536485
Ag 3.689292037158888 5.861282781352724 4.100663737563697
Ag 4.825239860148286 10.412017722322235 5.879567015076906
Ag 5.306004766083817 8.26461852733736 3.9981348185273338
Ag 2.508320909032556 10.392583999780888 7.4818459563764055
