45
Energy = -97.22833414 eV
Ag 6.642941505107972 9.666097326817741 4.87064142390526
Ag 9.855744057197436 10.588649289418985 4.865286690367622
Ag 8.97682488688015 8.081189444620055 4.081024987175679
Ag 5.151747431142695 11.251432660240152 6.891370817114269
Ag 7.859597226114983 11.72380591935565 6.35683008257318
Ag 3.7239545362884527 10.265598214906804 4.6671328247937165
Ag 6.321361084024006 7.260384684131879 3.1357775819263325
Ag 3.661912709617055 8.26168361512437 2.7295908462215612
Ag 11.404347253528572 8.435559344739357 5.800009020386745
Ag 9.774769925382682 6.228557680608132 6.144672342678113
Ag 4.517979648213625 10.227339942440762 9.495152272617077
Ag 7.119849260491547 7.006841318092718 5.814534213197723
Ag 8.163479247398412 5.197219801284697 3.910483988261238
Ag 8.842846789786737 9.071207442831383 6.993925227128352
Ag 5.910185401559141 8.664246124983572 7.639226245961872
Ag 3.022788301404716 9.274777691235135 7.25393756577182
Ag 4.164805927285867 5.463209580157323 2.3036615481408296
Ag 4.43739247051166 7.671256354601531 5.364133467498197
Ag 1.7162180798216973 8.144157514126315 4.860103798519577
Ag 7.312001106493581 10.711633948572059 8.90492837557244
Ag 1.491601891276697 6.6509501411921805 2.3543231369107542
Ag 12.394306892502305 5.711113065679803 6.670006812954108
Ag 6.080536394092491 3.353710968806494 2.8639778170509578
Ag 10.338748644684845 3.50838830121525 5.989198559144124
Ag 10.954737166710144 7.407152452260651 8.423049415175038
Ag 9.126503927045471 8.831441196718469 9.906651486723202
Ag 2.467495745875798 5.406304873559719 4.576011351034004
Ag 8.242352251511123 2.4671235348307805 4.551856330235401
Ag 2.4382639265290016 6.492454387449012 7.1573852837510366
Ag 5.3031472503048525 5.004465589146893 4.816787407032114
Ag 5.2285848884413895 5.848763395265965 7.504373068469277
Ag 7.967149575601094 6.697350250227669 8.47816967672662
Ag 7.673591712073708 4.399038425838803 6.700881057427273
Ag 3.8830129340149786 7.49397244731905 9.452623498258998
Ag 5.73305560796938 2.360975411388847 5.673791154149949
Ag 6.456593200038284 8.308177795005925 10.428740415961284
Ag 10.60078530111065 4.597689207456611 8.509969204667481
Ag 9.55775405724276 6.154666780395852 10.673361782558901
Ag 8.129471891318783 1.8443570969361753 7.3689492877006835
Ag 8.156541005304929 3.7768399318552976 9.548950466583705
Ag 3.3798611265563334 4.705410369953779 9.264907974821575
Ag 3.471305644741454 3.768648108624025 6.601631022516923
Ag 6.009590789366418 5.514004856360724 10.207961254389508
Ag 5.684620102982939 3.1697647424660356 8.393147483271726
Ag 10.440049932329002 3.5768042129742175 11.076085958220844
