49
Energy = -106.45827328 eV
Ag 9.018710044269191 5.465858839219201 10.653197277541654
Ag 9.679253190204054 3.789297751982487 8.552440525821279
Ag 10.793303233270667 7.664658458836554 5.8598943439981435
Ag 8.689574988583276 2.737400242654952 11.082342047466893
Ag 9.041536002125268 6.63226363759432 8.00552165133433
Ag 6.594581576870225 4.685831593477637 11.918985430042818
Ag 10.434347893135982 4.828933516412463 6.07444718091916
Ag 8.398559842132585 9.123756252938662 6.226708482820327
Ag 6.65740417283889 6.604269675263845 9.80013800835339
Ag 10.480283335943751 6.238324298964308 3.395830548165812
Ag 8.864774771342038 1.1483741220820598 8.759008619060872
Ag 6.766420419218652 3.783073905094894 9.335322572108186
Ag 8.381331937547738 6.534710584961552 5.123525071648862
Ag 7.214647509712798 9.167843957017837 8.750586817779253
Ag 7.350635412601616 10.898578821567598 4.26647431114023
Ag 6.458090181987239 1.1524111487335604 10.208165327104371
Ag 9.075609128922768 2.2050249352946714 6.1725744647800385
Ag 7.21206351909146 11.503228161925108 7.10164137832799
Ag 8.78188949969284 8.666084621676177 3.3594537608789588
Ag 4.322594683495002 5.010471973037857 10.20708598827391
Ag 8.799162556642711 3.977027057244578 3.914950351849543
Ag 7.479667369734809 4.406127308406498 6.713324762287994
Ag 7.179627607385969 13.506991655616407 5.159669631284639
Ag 6.4312916527239405 7.091967242574237 6.998398230623959
Ag 6.134178960732908 8.276668967821163 4.330687694144504
Ag 6.510821450857018 1.6602755279736832 7.3514593926164915
Ag 5.0942066479279715 9.687775736340258 6.956888864624723
Ag 4.9149837645975625 11.975011524180193 5.326825796795382
Ag 6.533627210706415 2.5189872281872874 4.684816712945074
Ag 4.680015543243062 4.927745298063531 7.447889386072761
Ag 4.9698370439751045 10.563160096120573 2.8579987623837058
Ag 6.254722616326064 8.452559219634356 1.5973635178660586
Ag 4.232408938596477 7.570018048331133 8.76726481091304
Ag 5.745405468333838 5.366965360180579 4.655889651617497
Ag 6.643083113146909 3.6498984018176905 2.131261051321698
Ag 7.7441093710752185 6.1942081440958505 2.3796293211215183
Ag 4.307328422354002 2.3636629910992295 8.928018668823281
Ag 3.9595957604917906 7.3239948270645625 5.782273056565066
Ag 2.334862813141644 9.136787295443353 7.374832789937212
Ag 4.101548117034759 2.5729962771410753 6.032268389264045
Ag 3.1146771486751565 9.920608882250036 4.830830876839451
Ag 2.1734736456104864 3.6732926310453275 7.842640676704436
Ag 3.560444956118106 8.120675116083449 2.7327978208274484
Ag 4.975470848148673 5.917961045137252 1.8581370723288988
Ag 4.078370395591544 3.5331544754478217 3.2948972591052303
Ag 2.586806692195065 4.85505254858487 5.2222195519811825
Ag 1.9506722066825237 6.392888407869946 7.4621814793393
Ag 1.5104192739714846 7.496115861832703 4.652496690897871
Ag 2.288555536330594 5.649755552511598 2.527774077258742
