46
Energy = -99.61149386 eV
Ag 1.8184114980369865 6.627616762581604 4.985659441641933
Ag 5.722393875321427 5.433116162517776 1.207890209316544
Ag 4.15063005677106 3.3734364378322965 2.3601146904078973
Ag 3.6904146492695147 6.085675691538417 2.989201544453268
Ag 2.086660282729379 5.030321164370703 7.2908501121907
Ag 2.600966927940529 3.880887082028089 4.66818827595071
Ag 2.9240792577620636 7.879183810100407 7.27364019619798
Ag 5.9062492779947 7.845742723044423 2.691117976252641
Ag 4.01819565489502 8.45709754397739 4.6542740753292815
Ag 5.297069233158959 3.0682313506864856 4.870267082854761
Ag 6.960579251731373 3.1443775152821516 2.42115295389018
Ag 8.450713096600108 5.594527293945244 1.8448827361564955
Ag 4.399601671123645 5.770840526635457 5.826342876596883
Ag 8.094310432950255 3.11367028257153 5.107963079851481
Ag 6.601301125044193 10.066634355387833 4.540070960786492
Ag 6.711525468227089 5.411191346119115 3.9574552274537997
Ag 2.4123720598425002 3.4606199417487566 9.554431610073308
Ag 2.9554194303225585 6.3514087858839945 9.65450525355593
Ag 3.513083700198974 2.564827057234195 7.0338381480767955
Ag 4.926308054246544 9.901927986815764 6.896165682921527
Ag 6.591132089151059 7.642837978000746 5.658205359886109
Ag 8.534733167860027 7.78611914409323 3.6154978576745624
Ag 7.240322129301734 11.63996924990426 6.869805342310817
Ag 6.433771689414045 2.306692353377406 7.298540604489794
Ag 4.755892858048092 4.527837675943869 8.552571953183392
Ag 5.6786753462286645 11.144249920255595 9.230085515305335
Ag 9.296284643656623 9.713454024549423 5.520162019727214
Ag 9.722042435555771 5.246324621101123 4.327408820088525
Ag 5.52521906297731 7.228918234903948 8.183487862819897
Ag 6.944783964195331 5.0644388871189046 6.792095573871797
Ag 7.732398501517767 9.143224911751195 7.83081691264749
Ag 4.955797230316059 2.009684553030639 9.62527292265687
Ag 4.034104883968295 8.960240815008303 9.698567536493512
Ag 11.152615613974461 7.72287224354815 4.496278658697321
Ag 9.21466690759204 6.979103583576022 6.534464848990313
Ag 8.342847816199496 11.088806818380577 9.930462443546537
Ag 5.68725159891735 6.155992658468639 10.703064822729818
Ag 10.167912429322437 10.939770383546465 7.862797422691092
Ag 7.307969948168302 3.8737334123825047 9.465220835792607
Ag 8.119320529825718 6.503324463319816 9.164004995023868
Ag 9.499121384822244 4.213545697528998 7.380593552428011
Ag 6.790422808639549 8.784948550355796 10.438481436141428
Ag 11.437733213061952 8.58423552427475 7.156942812552313
Ag 11.724800899213989 5.59420661454174 6.28660456868972
Ag 9.820798316825739 8.721065633566688 9.627459476660043
Ag 10.910142156092922 6.279292972977693 8.838617577184872
