44
Energy = -94.94388132 eV
Ag 9.461693049148947 2.753555611119262 6.523074808507833
Ag 9.184978983849991 3.617687625744966 3.7742571805873784
Ag 6.994637793212842 2.1751638710199184 5.356236480555592
Ag 4.2463337490806055 2.1999503283335384 4.685606005983666
Ag 10.358394113288245 6.314615002092423 3.5067077964634783
Ag 10.65627492052465 5.269265513195252 6.052477468210027
Ag 4.081927203350567 2.0764257130534824 7.583746513256233
Ag 8.11449091136344 5.594536880528498 2.086097725284402
Ag 7.069536197050964 3.0536870933290183 8.02365371591178
Ag 6.271842916683777 3.8849702643598643 3.3483633012544294
Ag 9.40752679798012 4.7153567041009925 8.501737441506116
Ag 7.805373961599536 5.104860847978469 5.5499845502592215
Ag 3.74594849767835 4.960649701638784 4.007093351119479
Ag 2.2372986369135797 3.7532259746966936 6.214247267380046
Ag 11.118765516460758 8.015329204931126 5.604592930098789
Ag 5.595812443046232 6.530505281048605 2.5767267812495636
Ag 10.99220882844424 7.077841047819469 8.24897724329092
Ag 10.171394968470908 9.115456471793737 3.1821698945740993
Ag 5.138451562914478 4.262638947979809 6.296451098526763
Ag 4.736762691693012 4.290880969279154 9.25220395491331
Ag 7.585867943059246 8.370872463227082 1.6274490654772995
Ag 8.001575271542592 7.741331603561162 4.245964510928948
Ag 7.351623973401026 4.571381166446119 10.422861905361504
Ag 8.605297540845754 7.52402605340542 6.9283688921414175
Ag 5.538138454104409 6.877582596123171 5.425362556273548
Ag 8.636886428066836 7.065190525392324 9.914001170121535
Ag 6.670133065190845 5.906657280077345 8.033623870798738
Ag 6.53371074958275 9.45054675666187 6.182697869157126
Ag 9.278144911922457 10.112193308316645 5.861222251680802
Ag 2.0989049301668885 3.5786870729840228 9.033185518870232
Ag 5.444013356130581 9.105368515474172 3.5273254571814774
Ag 9.497670976774359 9.499117987222053 8.680553752405865
Ag 4.618404963571238 7.715479466985766 7.990881288471922
Ag 2.7770152057330417 6.240918485065726 9.778248240329354
Ag 7.783576267557722 10.547553679691216 3.538401064619632
Ag 2.8284988352516915 6.473631370582827 6.160570100960069
Ag 6.762882749035384 9.045631820113135 9.26589172681491
Ag 5.567179763050104 6.776581922903914 10.481277634925856
Ag 7.532915721697308 11.350202564678648 7.902478519125521
Ag 0.7955034048406681 5.681193587339158 7.8028089708414266
Ag 3.736572537526575 9.133629538818933 5.788796726368251
Ag 3.783459408876914 9.009028052812326 10.258113653194378
Ag 4.746546894783733 10.590416936515165 8.112621336694625
Ag 1.9128787090561912 8.343229996081677 8.139944212845672
