40
Energy = -85.51339646 eV
Ag 5.981699787037248 11.875189656585984 5.124949537144612
Ag 3.43051950067993 10.62942342324145 5.28546528223902
Ag 4.831155623250577 11.284853598430425 7.6008149235758635
Ag 5.079513556801396 10.179359707130535 3.092774890501143
Ag 1.2991146409540983 8.871089885393308 5.625637208293082
Ag 3.6104881115189786 7.950180325215925 4.3158121483760095
Ag 7.8127777781261605 9.91883413921853 4.100508855360793
Ag 3.459642465939242 8.718255391369356 7.413377074690956
Ag 7.6549907220971 10.656005287754814 7.099735950327539
Ag 5.8789810866413585 8.955511902686844 5.836042433689821
Ag 5.951568544115366 9.13265250179712 8.83632892838964
Ag 2.168376266303022 6.289394479520361 6.345746443692213
Ag 6.247434785355202 7.7232536518843915 3.1277626089834754
Ag 4.860757812015671 6.43505988532706 6.377112570741528
Ag 7.193412334150553 6.641849918921167 7.937559951000502
Ag 8.983441434842351 7.4865660517759895 3.2928372754705126
Ag 8.689348446699015 8.887614882340225 9.014819548916076
Ag 4.735813954513802 5.487772281398319 3.454565534948587
Ag 4.443312884520624 6.931009029025011 9.378616501255774
Ag 8.827893485408508 8.243503497812757 6.140902570956119
Ag 7.345852016899616 5.942898640696997 5.143613643822049
Ag 7.415925620412915 5.199188627278061 2.3694238835211996
Ag 10.256187949641468 6.732342269758854 8.097470525095387
Ag 6.991603775574306 7.24612746770918 10.739860017308857
Ag 3.6922105743166567 3.921351977619169 5.486119514895513
Ag 10.242253925843613 5.213035607008236 2.3646188845919074
Ag 10.403395508881303 6.027678187582332 5.237224478918509
Ag 9.801987100979515 7.342492371256968 11.002792172081945
Ag 6.181713082012853 4.054723994264253 7.032734378095781
Ag 3.5669464178801316 4.564876309669461 8.236016888199751
Ag 6.224814809302603 3.2690893521724607 4.1513663562395715
Ag 9.009814813674138 4.441049506216639 7.076786466614861
Ag 9.01617759467062 3.7166721916486214 4.282140646767177
Ag 8.741562785250768 5.099223082727324 9.874309162249562
Ag 5.948080362168207 4.681548476835878 9.938533593016087
Ag 5.088310785088903 1.5911913916437412 6.094100339770497
Ag 7.929473516487585 1.9746702331270638 6.134120363508025
Ag 7.810899591258164 2.659731099552715 8.937367415725083
Ag 4.977977894540469 2.263885948522101 8.901939732488835
Ag 6.718917118833516 0.23038941628278384 7.980203272951116
