42
Energy = -90.29829222 eV
Ag 1.3758265746359448 3.8102510654838495 9.308036895210229
Ag 4.229401386042359 3.901935831227156 9.045753572622992
Ag 2.6158400393388406 3.3757000058635573 6.82543156050804
Ag 7.1136331036207565 3.381108772676718 9.229997347934647
Ag 5.52872519927856 2.701914159706994 6.869008454965946
Ag 2.650517200152162 6.103944277248138 10.138702468882478
Ag 9.906964423615173 3.9440919463980477 8.33310960206517
Ag 3.8211030124790275 2.4025804263076167 4.600902247897591
Ag 1.635211012716153 5.897749926153517 7.437075466701059
Ag 5.760891480991727 5.830053769198708 10.316026400771763
Ag 8.186925677514122 3.2483356835153976 6.267086606971457
Ag 4.715293165510393 5.088677165286486 5.618910987074132
Ag 2.197360226640027 5.423275832539402 4.681333877476786
Ag 8.495343916264746 6.009008025805153 9.725771962317621
Ag 4.354797346022554 8.368990604369902 10.30790796793018
Ag 11.185360818223186 6.431357295324004 9.22448154134874
Ag 6.4297639432988944 3.269980846853364 4.099557689589844
Ag 6.710401470385478 5.395215244773513 7.518161016833046
Ag 2.1011966871087595 8.428470811258002 8.549499291356303
Ag 10.585014551652005 4.36591683192177 5.379332356966341
Ag 4.311975993012094 6.764695329359366 7.993687102760985
Ag 6.717890554555693 8.088518685227914 8.876568970573684
Ag 2.988942302957994 7.925008723625061 5.827111156489058
Ag 8.949512673306058 3.9115413133034376 3.1410224736410206
Ag 9.563000734218265 6.337217993351927 7.052364943686306
Ag 7.8579810666768335 5.797861020877004 4.918244873636569
Ag 6.0673369189778565 7.701099151425367 6.007550136333654
Ag 4.545323907233348 9.665279541648589 7.575871948077893
Ag 4.145368096001589 4.4500373367573145 2.8066664776231605
Ag 9.40116060195405 8.641758942112187 8.58123504929481
Ag 11.517687448652255 5.084257286961311 2.7933668620635745
Ag 4.463294518285447 7.158476389890211 3.5650133720757755
Ag 6.63860533588813 5.582546553118775 2.421314991617941
Ag 7.321894117400841 10.328846573314586 7.401288710072906
Ag 8.819387619545726 8.636680058307588 5.770225548352132
Ag 4.81444961666434 9.777872887063534 4.6606099107269285
Ag 7.072294348094555 8.273125335391986 3.3832459593309046
Ag 10.823919262322372 7.108200821122363 4.591232529378721
Ag 9.235700125882095 6.687886853709896 2.409808334862691
Ag 5.43195739034269 11.996727237537073 6.221639589793327
Ag 7.471404604569601 10.787076637503928 4.618072203492994
Ag 9.712885430163858 9.35845729014022 3.2505712853665103
