46
Energy = -99.32690526 eV
Ag 11.025973080540853 12.018324892712348 6.138254059087778
Ag 9.384573264592172 10.613200035926234 4.266533479403384
Ag 10.237089545730571 7.846038156019828 3.696243705445323
Ag 7.546158916333031 8.65803346573497 3.2164983173433
Ag 11.321912563612901 9.293350325837613 5.840529307676732
Ag 6.540809100071907 10.496810454245658 5.079005263628847
Ag 8.486740493774905 11.189259446901298 6.964499001745625
Ag 8.41480920640246 6.154812082475781 2.339159458970484
Ag 5.608394847180077 7.034275370378056 2.023967296049126
Ag 11.858156027789729 6.551466376340754 5.810864342487458
Ag 4.857835426130766 8.307145258188921 4.362659192505708
Ag 10.661773949962038 10.324402552674789 8.390812578152637
Ag 8.431106167017074 8.450985991383197 5.874212205881974
Ag 3.8360514155675745 10.518720623593934 5.714648545227198
Ag 5.8006505979548395 11.292009298823729 7.720029043025797
Ag 9.424820381939996 5.464180112282533 4.890413867715169
Ag 6.60320958249206 6.084368559151987 4.521236926806285
Ag 10.38978528497391 7.607061607244943 7.878177034572888
Ag 7.828745985765161 3.593053145306087 3.4543226011272385
Ag 5.771045696440874 8.521298703447284 7.103338056781358
Ag 5.32101302537552 4.346212467820611 2.4074448829772264
Ag 8.149892998107322 8.990889513538802 8.803139099889176
Ag 3.695034582063741 5.668221965383802 4.40339391723239
Ag 3.345216100211108 10.092053230427938 8.362175059796883
Ag 4.953441473856068 5.772948259762039 6.948050193393749
Ag 10.188730951009052 4.7495099907801945 7.530559664782126
Ag 3.111671243072113 3.0232957042698043 3.5287465358172985
Ag 2.9799264349462553 7.77478205221889 6.400777297189917
Ag 9.183420950714025 6.196388984245696 9.936997375204033
Ag 7.927160664663999 3.472846377495882 6.29483130543197
Ag 11.954883667102635 5.896676304848483 9.29624245093386
Ag 5.464131144647971 3.4403683097019506 5.014433903993295
Ag 7.602168543502443 7.998730036903674 11.437458826993204
Ag 7.752894535919082 6.117585783410206 7.1309386058149355
Ag 5.587566183036462 9.442474209154831 9.93177974226482
Ag 2.981792609139887 3.254671926295758 6.261536405121965
Ag 6.3724881251621515 6.745255415833902 9.337677405274452
Ag 3.653264704340056 7.464349021682346 9.126121067407482
Ag 7.782991495745444 3.925854107209739 9.076866998634275
Ag 6.996429827025887 5.02636752648067 11.490381702431185
Ag 5.482384359035489 3.080765510707641 7.772424618429026
Ag 3.065673805437852 2.6644988514783385 9.03046515279868
Ag 2.3415166167443906 5.310713903718939 7.942914470970985
Ag 4.892894644178596 7.078666915013294 11.66101748065481
Ag 5.718059707854492 2.564780520379935 10.508475708048845
Ag 4.3760687751419125 4.871964916945413 9.957882758484779
