44
Energy = -94.48127755 eV
Ag 1.5601089357103177 6.946796432114294 9.299499765614211
Ag 2.17121328464041 4.381067265780985 8.122785013491884
Ag 1.6371494118552288 6.507675787155276 6.454773059856402
Ag 3.481702447110707 8.564933027522864 10.63443965571356
Ag 1.0220873534472235 4.024750951786426 5.415100355970634
Ag 3.5765819236976117 8.158556304348727 7.774430300787324
Ag 4.897773804895916 3.4385908989306406 8.413611682771721
Ag 4.153066086683183 5.9630238976611665 9.533085556529555
Ag 6.155800031733583 7.708354358776711 10.564156563458317
Ag 3.4595362360388315 8.018125840572745 4.979669740742104
Ag 6.8363286858115595 4.998114954299249 9.790550793198506
Ag 4.958357382259744 10.276707054502136 8.887413567193986
Ag 3.479946537758285 2.949955508782296 5.952878383325941
Ag 4.332470113520968 5.571077148505898 6.648891828935609
Ag 3.307326875294191 5.246565234776352 4.120365818262818
Ag 3.769295424016872 10.542373142058409 6.273576726547338
Ag 5.704703993667298 10.238748904880955 11.498642278927342
Ag 5.604722199658183 3.5727512987566454 4.285974548003271
Ag 6.334965120877007 7.053928631127092 7.90068297411267
Ag 6.035550407360305 1.7819242017115038 6.417738812374668
Ag 7.160090017899459 4.462810658929793 6.698176685703257
Ag 6.0584955874445825 7.050043688713664 4.9664712259988955
Ag 7.662131518394265 9.68370506692298 9.233649696764397
Ag 7.47383771911815 2.4183876214750266 8.706116722903174
Ag 9.969612875726789 4.312734344566379 5.959591636014702
Ag 5.628959892794031 5.603972413983963 2.4244179775805046
Ag 6.339421937715445 9.49008051975467 6.614702983887613
Ag 5.418273436884655 9.711434657028024 3.9890507713123355
Ag 8.757194641975452 7.052522753692932 9.456479242320649
Ag 8.590935775672413 7.0411952740733375 6.225924977267697
Ag 9.385375536521227 4.465554577008698 8.67752680930959
Ag 7.96608873608304 5.257583526671066 4.081227440072829
Ag 7.047056996191141 8.014625881693332 2.3801437794258624
Ag 7.523427905400003 3.2956657941697878 2.1380742268708612
Ag 8.203562848390357 2.512668183806162 4.769285332096435
Ag 10.327999311073768 9.077708177407077 8.437927171027017
Ag 8.196098036532009 9.41852131043002 4.4776162855810435
Ag 8.85339833195525 10.701327718361677 6.847442165525157
Ag 8.393186270944492 5.815071263119674 1.3499572652362544
Ag 10.98839452034774 6.491822076013127 7.580395016542348
Ag 11.572161413996316 6.218345263509925 4.823560634154374
Ag 10.309862542639564 4.443773813428551 2.9789802127965768
Ag 9.712417820020066 7.429425928474148 3.2365909813947145
Ag 10.703647878297136 8.765162272629139 5.667148914172995
