41
Energy = -87.65086461 eV
Ag 10.376813266475995 7.283302070358839 4.471980447135072
Ag 10.44596531990672 6.463748628326335 7.166698712224251
Ag 10.679930565320985 3.997121635736429 8.308169607008589
Ag 11.056292139536405 4.20589815720386 5.420571672021066
Ag 9.884290934406726 5.0853095524848095 2.682450336549182
Ag 8.151437104854564 7.6984712928667145 6.195823820195873
Ag 8.566984407563819 9.608681929846076 4.22712964808516
Ag 9.025825511877798 5.300715992587723 10.436169237808782
Ag 7.9672793212936535 7.152911099474983 3.1040918799468744
Ag 8.622817953798565 7.7628528635530785 8.956333612585725
Ag 8.852408112142912 2.6611577766458145 6.631240921330588
Ag 8.549044439364465 5.13223035248892 5.11398836341682
Ag 8.6175508738541 2.6222598602194958 9.460084446010015
Ag 7.115838596412536 10.244393305200681 6.722780812789002
Ag 8.923155653856211 2.7048693223092415 3.824495818053128
Ag 7.954850304010879 5.138316729823091 7.908973992626182
Ag 6.427145805950231 9.339593509890364 2.2956045325675465
Ag 5.2830351242019535 6.822607814233125 2.520814294642207
Ag 6.355426497518311 11.346866987288031 4.199316463438125
Ag 5.675440895995229 8.480886363068041 4.950995788557836
Ag 6.453717687846588 3.9563578459753237 10.559446279349567
Ag 5.1449948306823 5.308405638560565 8.530080773823883
Ag 6.914760421084709 4.55778684746515 2.8280672748104974
Ag 6.477982273999216 6.763760681273 10.52786338008712
Ag 3.8590333143072897 9.939576362836796 3.4735980896706824
Ag 5.990058244617081 5.808466622029785 5.8484553198856215
Ag 5.958929354756147 8.044541142043837 8.035526558077372
Ag 6.293733331765828 2.726871894828703 7.926668898837483
Ag 6.366806864691803 3.0515979224684737 5.13550897623031
Ag 4.424898464317302 10.957668367475247 6.088409655538599
Ag 2.9964799705503453 7.270621928193269 3.9884278095917427
Ag 3.687962139057706 7.067308576365993 6.728332269069607
Ag 3.9068695361561487 3.620144387637175 6.597308136316643
Ag 3.935265897534631 3.0241818714944864 9.427479887903894
Ag 4.19842623882052 4.658967428441823 3.993772589878326
Ag 3.466358272155532 9.540632165346995 8.21951864542623
Ag 3.670271634363875 7.247118729867308 9.757262698897087
Ag 2.1952581404784985 9.299824133279497 5.72111272467827
Ag 1.8247722917166986 5.3071699121791465 5.654837679268378
Ag 2.273153642809991 5.06574934238929 8.455654323182243
Ag 1.3386941569232909 7.677915097811897 7.9255831418335605
