42
Energy = -91.49632918 eV
Ag 9.787375908566002 12.905007954170284 8.444123232935912
Ag 10.355765019248727 13.74936270874427 11.223868795515148
Ag 9.259863450325803 16.050642245806685 12.309355999738557
Ag 6.986112704423642 12.949247511382385 9.157733559382626
Ag 8.647796716449903 15.222465226371167 9.634154586554754
Ag 9.78749450366586 9.875811189116483 8.444081985794703
Ag 6.986263019506304 9.831378121526795 9.15767918881664
Ag 5.990016760213838 11.390257924487203 11.357722878071154
Ag 8.648085599560716 7.558238894943173 9.634065367241226
Ag 7.543128099754004 9.011692244068136 11.88370025705292
Ag 8.680478558955134 11.39036240090799 10.736948882164237
Ag 7.891105945268522 11.390297608715752 13.493276500161686
Ag 7.542937952222416 13.768852928008 11.883763608453096
Ag 10.65141370129919 11.390417790372368 12.874231521448865
Ag 9.260248808402824 6.729872667820558 12.309246908143423
Ag 9.899085869805095 11.390371990170717 15.548881561780203
Ag 9.60148215251398 8.980560358885182 14.034740237331905
Ag 9.6013182185241 13.800107193327326 14.034807704580938
Ag 11.420889512420876 6.60369638613275 10.44185483992576
Ag 12.225387505781741 9.876651154464728 14.811505044093627
Ag 11.929025766105548 7.483280673182855 13.146799957174972
Ag 10.355928331840001 9.03141165916161 11.223834572677841
Ag 12.225285409583597 12.904236096465329 14.8115209204322
Ag 11.928762085691607 15.297624604804623 13.146833286377642
Ag 14.021074755112481 15.311658786126353 11.111354156959933
Ag 11.43436280009825 11.390417790372368 10.172016394028436
Ag 12.522592336865541 13.833181304468349 9.182309238068548
Ag 11.420533473788543 16.177169908705093 10.441911571316291
Ag 12.998529800008134 12.845838217202743 11.960648503754188
Ag 15.394600452241804 8.924060673005425 9.061990017718486
Ag 15.394446364702572 13.85703254197355 9.062016398743161
Ag 12.128477805988586 11.390467162639078 7.560330734388407
Ag 12.998623757686921 9.935132147174553 11.960646146769
Ag 14.555962289628521 11.390521596390593 13.883227156497764
Ag 14.18997102492244 11.390495453975369 9.584300862878031
Ag 15.790393512458055 9.95610598673824 11.658535645519555
Ag 14.534148817741857 14.247223370444463 13.775685091519366
Ag 16.939916742789055 11.390579622402932 9.510304873912155
Ag 15.790293881020249 12.825010876239284 11.658550720534702
Ag 14.534384901336667 8.533858778483026 13.775677651959166
Ag 12.522760842393925 8.947779954546942 9.182282968181692
Ag 14.021387169658157 7.469428296074649 11.11133630711421
