45
Energy = -96.69204847 eV
Ag 5.199382852805848 10.399286160471982 10.576613394154057
Ag 1.7382260103532148 6.691337697270964 5.219099566595218
Ag 5.207753990323187 10.300055825030332 7.75277199400861
Ag 1.1714724759558992 4.289135355340552 6.57151537508067
Ag 4.256013469918982 10.73756179315223 5.089623308531027
Ag 3.2532082306469534 8.60567122166696 6.509008917348047
Ag 2.739385612859267 6.2288349124834355 7.918974499407842
Ag 3.3129986371343296 8.707004547878956 9.281872998271927
Ag 7.302718895394241 9.104060562461306 9.27089501427968
Ag 3.7565027550713155 8.207517131069473 3.7331824223378
Ag 0.19032571660524428 4.752277919664318 3.9873830394019576
Ag 2.289824697228597 3.708743685432366 9.085025369504324
Ag 5.343066133607249 7.603032590349159 10.838017664172941
Ag 7.872932499632125 10.383971549863263 6.773770669922736
Ag 2.1676315888564215 6.227188846267861 2.471786694553366
Ag 2.895460738768099 4.181530158331703 4.2599663766578155
Ag 6.521425314367018 8.112797161417673 2.7839470959928647
Ag 4.859546316407955 4.981578550399994 9.44589566421638
Ag 6.815860515814414 10.83632596957264 4.03739799500081
Ag 6.0477172001239055 8.620022492719905 5.544186495428724
Ag 4.620895646487032 6.119349005994618 5.6161337099325035
Ag 5.459509442763035 7.31573493870993 8.002847289361844
Ag 7.442436773398616 6.245705741957072 9.735852280985984
Ag 8.738164877389224 8.942877673544746 4.459877637212698
Ag 3.9851634708910035 3.6597640519982813 6.902120284823428
Ag 7.47666928796658 6.245319054329785 4.728834443290851
Ag 6.889733808689308 4.869208155272037 7.128644423800192
Ag 4.912613149531632 5.755031437623485 2.80102886056422
Ag 8.403346450456088 7.479782174491596 7.234600750434349
Ag 4.683061016281408 2.185547052697802 9.206588844774187
Ag 7.237157846471867 3.3701420428584616 9.53490809816999
Ag 5.58849024701289 3.6486047630389793 4.572093721665983
Ag 9.121934836471098 7.037692443001455 2.438240868185482
Ag 10.901061331157843 7.2909792105330755 4.707462467687986
Ag 10.517148949722987 9.36157878714128 6.568824551241773
Ag 9.645727503065068 5.084716395871536 6.257975728050138
Ag 9.675000456073962 4.949341583775921 8.970314085056778
Ag 6.328005244456583 2.0977915431711986 6.906387806937948
Ag 7.491416695516634 4.621096811428587 2.5421930128938675
Ag 9.006148930612293 2.561307932920674 7.525729244630169
Ag 11.265675285445074 6.883643038107516 7.579048839128369
Ag 8.225841034675804 3.072762129315342 4.888715690954071
Ag 10.196904990304352 4.738826499729222 3.5757249625883216
Ag 12.369737720082961 5.1493050658645165 5.5573794978193645
Ag 10.939864851242566 2.6887413586174924 5.47801361841723
