47
Energy = -102.1617953 eV
Ag 6.105813137315682 10.493380956060992 8.182521744162004
Ag 7.444146640574122 5.580135435113497 7.931392896943089
Ag 6.555935971511223 6.457405359078218 10.622691571197006
Ag 6.071566205126956 8.866767362765176 3.5852083815586564
Ag 5.142904442161359 4.1479105440748025 3.033952913279962
Ag 7.738195449238594 10.944322124489375 10.350755423547247
Ag 9.706721460008982 4.531801300158731 3.6922833178040833
Ag 10.819835786523363 7.400557371910286 7.999279157662834
Ag 7.297962564134741 10.47838488528342 5.604564843754007
Ag 8.677248562154091 3.1625124933667372 6.146828169049891
Ag 8.019242523370378 8.395048860063387 8.604324542709016
Ag 6.953838511826149 7.616526180241151 5.985566790045375
Ag 2.4487882585128036 5.1577222921884 8.249596981822105
Ag 5.087315139814057 6.756880414106371 1.9609677699231582
Ag 1.0841266826321903 3.3186668545645195 6.692943180129484
Ag 7.109477790097408 5.087727133606118 4.838841226891036
Ag 3.4878694827017416 7.0128936574223815 10.115188028756782
Ag 5.757714689871459 2.6369589286517883 5.421180472964617
Ag 4.985638192190376 4.594942224111708 9.398222464822293
Ag 9.38865897054157 6.430225863387311 10.189670665386418
Ag 8.700037666776353 9.952713653376183 3.230935464624251
Ag 7.502298670345549 8.129223338695814 1.3373035411300158
Ag 3.7753815170345684 2.754228349176056 7.498263452051281
Ag 3.1134315352111863 3.4243415767704506 4.7915922496302
Ag 4.672779326500865 9.384326259817112 6.0484524107969655
Ag 4.908298214102668 5.191536638930905 6.597491025192104
Ag 8.682674679252308 7.213458896113693 3.656446142967596
Ag 5.603902528797106 9.106650022991998 10.636357996619179
Ag 1.7782132447742107 5.737240286531248 5.48320097733795
Ag 6.560895855425784 2.693034397071507 8.059016238199474
Ag 11.470848153503177 10.121817513921101 7.432206319230586
Ag 9.613774934748525 8.80284309045796 5.836451098736687
Ag 4.1743863323540555 7.031786587747406 4.6222916690085425
Ag 10.1672397539452 4.504096677474242 8.284200224208998
Ag 8.224575096654169 8.504278230660983 11.561635089168526
Ag 9.181288240871472 1.9504490739207732 8.635215470314932
Ag 2.7014247848355812 7.679696692241831 7.15008369607789
Ag 7.596413822129337 2.741462301607076 3.370111225683119
Ag 10.293358405645732 9.435064339359984 9.914463108418785
Ag 5.311227483709019 7.537608309324683 8.211512248837009
Ag 8.91185787305606 11.069654305362725 7.844294496993492
Ag 7.892460971452793 3.9703454663434745 10.168705066081808
Ag 7.505011606247007 5.30514094494598 1.9690747680381273
Ag 3.482535518020449 9.690348799174593 8.844663809585855
Ag 9.532455563805138 6.007800757117562 6.03266409993055
Ag 9.980756261977229 11.477947417393196 5.2891641573727
Ag 2.709964598734177 5.442628933045629 2.8187165115720476
