43
Energy = -92.10153337 eV
Ag 8.171060435416868 2.5513320071223737 3.1903460397261854
Ag 6.0089667833126805 1.4101409773602702 4.546595733420944
Ag 10.148364561834747 4.098770494672055 4.445306113592975
Ag 6.090736237110962 4.271186265580783 4.163536309027913
Ag 3.8540621605716647 0.5901420662415228 6.189332168344771
Ag 8.014232859869633 3.028218543071348 5.943683006364606
Ag 3.622324268606519 2.9862562344075996 4.8324250112540215
Ag 5.461660202787296 2.743342884655066 6.980009112198587
Ag 9.770688771420636 4.759557467509791 7.2208436864213486
Ag 11.522593629072782 6.221334108161702 5.534639054300549
Ag 8.282687487369268 5.310855066548788 2.6030027158560816
Ag 7.5840535491499965 3.7660465996312467 8.765917143267206
Ag 5.7863452529105555 6.487478881526641 2.18576471585101
Ag 3.584022890966705 5.411231552196366 3.5507808085461567
Ag 6.478106640661176 5.392893720289549 6.88771985148678
Ag 5.6175956238661255 7.158317882734071 4.892587818150374
Ag 2.7066690715172204 2.7993893664549874 7.529094430020434
Ag 11.094954884869042 7.159729808026903 8.148556817762465
Ag 8.560230132269082 6.3088870949278615 5.182540495182765
Ag 9.38095662001302 5.712274671079675 9.816413326387895
Ag 7.838857862510902 8.14297193652617 3.2174914013050766
Ag 4.711455113703885 4.4830226646855 9.018160315304993
Ag 8.289106546105774 7.392994597019383 7.7508818000453275
Ag 3.6071161873311826 5.338933649706335 6.43176738259599
Ag 12.537563663367914 8.751466943640866 6.315005982190007
Ag 5.645366505159397 9.90409177190237 4.043966931043388
Ag 10.171522113794866 8.567921832422163 4.817051802001298
Ag 2.02758456657321 5.177759804359108 8.817549734026086
Ag 6.658527774058503 6.348295741483863 9.86794865254796
Ag 3.610547588012078 8.18653409730026 3.0697284809940064
Ag 1.891824119513207 7.0885664081809665 4.992723448360779
Ag 8.872170040998494 8.515116341575709 10.147468911169065
Ag 5.368367067256083 7.9034574426970385 7.571134111259131
Ag 10.088688883228853 9.626077232830436 7.410081630129482
Ag 7.648514024111368 9.248030112067148 5.816513535426685
Ag 3.490283711394132 9.280292285651408 5.717927832231429
Ag 3.91161247539463 7.122741457252494 9.880274934784465
Ag 2.3628328463623656 7.6439562120678985 7.639852925984023
Ag 5.9895051898857385 9.071486276739178 10.222439355537986
Ag 7.702365571300712 10.420701802967134 8.443093658031888
Ag 5.501203923264689 10.853136725025085 6.779773566510762
Ag 3.660792848914253 9.834493446278545 8.737965866034898
Ag 5.519920165691562 11.745562125794665 9.474941426462342
