41
Energy = -87.4733257 eV
Ag 9.052477367141396 2.326566612927233 7.004935414950015
Ag 10.864044239680199 4.448781126513226 6.603834510423688
Ag 7.680566376792286 1.0761344683260954 4.924863570353556
Ag 7.660440952347763 3.588059090492136 9.0812246960377
Ag 9.44524884147111 3.226061189111946 4.380699399578618
Ag 9.626420830618803 5.787941031461978 8.961396051941907
Ag 6.2490075062590105 2.6076705069967874 6.824351877948344
Ag 10.82784056221862 8.280826604594976 9.319124093357047
Ag 7.376418989371595 2.3990991697693107 2.5207797528217846
Ag 8.15406859110452 5.057446228431399 6.721341099004198
Ag 10.977658067011754 7.265880405805804 6.7127285885027135
Ag 5.123930084754426 2.115234085991819 4.309864276427979
Ag 4.7798071136451385 3.9276374428172183 8.823620138640797
Ag 9.739725554001748 6.06560359105853 4.515499991524006
Ag 6.702257627231589 6.186828159681469 8.973302700880073
Ag 8.586155520490761 4.924142440515164 2.18666288506806
Ag 6.845755315505653 4.394235171129761 4.350507980555249
Ag 8.282473966364567 7.940137084651756 10.404055729636354
Ag 5.332659434919209 5.605640014162064 6.508531962030692
Ag 3.568623492799145 3.4165467092642423 6.261457434008904
Ag 8.651502205025857 7.692961374917915 2.502614690984724
Ag 3.9295635082239295 6.581061583175096 8.94757055707849
Ag 6.1515706837253505 6.396795458378923 2.3810554836053486
Ag 7.134260178573692 7.162569287948887 5.115637537235215
Ag 5.4203196481662195 7.752138581166286 11.025027158316616
Ag 2.004382166634063 4.777021258090938 8.222454328647007
Ag 8.54914786954516 8.143634972395132 7.569237909941341
Ag 4.167598618828089 4.812861215974049 3.8349202401000784
Ag 9.279173195563974 8.953145519638571 4.948216019201023
Ag 3.470193014649948 9.291428398638374 9.407886096412462
Ag 4.30525685796602 8.368311524722024 6.7760984422304125
Ag 6.225618760433375 9.019200826495956 8.734477504123198
Ag 1.5843724546780882 7.725155876843245 7.8709986017541835
Ag 4.307930640161853 7.585609024368569 4.056235581304025
Ag 6.554661969223116 9.284225541052255 3.419698588522592
Ag 2.6334773129822677 6.096572157474145 5.836484283607995
Ag 6.8413609727818345 9.87698170216451 6.135185023278255
Ag 2.0609457373381046 10.530866129899211 7.297548522743924
Ag 4.718566895045297 11.137769865070494 7.576328278512061
Ag 4.338689381937365 10.372054006512833 4.834796861338324
Ag 1.9652028930104808 8.756583062258706 5.171472119073606
