47
Energy = -101.16536377 eV
Ag 3.286482840885818 2.579809625830772 8.503002650746604
Ag 5.250451964566655 1.7763937579777263 6.556237374348112
Ag 5.780237683558814 1.790359280850991 9.423278715622557
Ag 3.274875836489756 3.764411632942775 5.93979062058301
Ag 4.788598463089819 4.367574764747834 10.276401788995438
Ag 1.8641573432842828 6.134323968222751 5.713962649268588
Ag 2.932469094544278 5.318680824536897 8.255069192652929
Ag 7.856630286629261 2.3711197939472206 7.664449935583959
Ag 7.544227124622036 2.0079751795236134 4.878076157562989
Ag 5.688197319631586 4.317818821572493 7.659507172880288
Ag 5.691416032483415 4.036987209364962 4.702499211772309
Ag 7.593668139911776 3.7794225569124205 10.117785204489335
Ag 3.8586716035667075 6.192402109658344 3.5035909896089827
Ag 6.746884807135952 6.266253042501231 11.191194599271917
Ag 8.174718534703766 4.9430370654435976 6.135571397676746
Ag 2.4010503991053533 8.670812974220526 4.9106981377126555
Ag 9.828497746194579 4.230377759990641 8.403175996597327
Ag 4.680692341424818 6.519996586025068 6.179069702488404
Ag 2.6747181203209984 8.066841551578213 7.725433405640953
Ag 5.01624043523269 6.989032146031284 9.038618300472672
Ag 10.001903342858565 2.8240584307990684 5.888875239537866
Ag 8.44279855617144 4.24588287979445 3.4480882219853095
Ag 5.953345764960309 4.8491360268904575 2.002824516579701
Ag 9.558290396569168 5.715616704531683 10.797718892742097
Ag 6.811620594591533 6.511945193060773 4.180782113412571
Ag 5.137469886681388 8.680098530520123 4.284894200746262
Ag 11.136469523681551 5.358466890760208 6.106076290393485
Ag 8.579244491808977 8.100090729257023 12.131796745984408
Ag 4.413959659825917 9.670454927492719 9.342201639795578
Ag 6.888018745064137 8.35691672221881 6.707787299907129
Ag 3.212931816111955 8.805501929414278 2.225008771541181
Ag 5.659723595807686 7.5957962813293305 1.615603925433688
Ag 7.666022970964575 6.226473836895871 8.546459000990016
Ag 8.29829719283942 6.486507656856819 1.7141604045816317
Ag 11.630380680679341 6.271681532079783 8.814848410849649
Ag 3.700066702857955 11.059875427287608 4.055866321962004
Ag 7.127428075532609 8.813789086891457 9.736624230199366
Ag 9.96004798690394 8.268538786441644 9.785547054615279
Ag 4.24448873335529 10.06179005891153 6.596358359386467
Ag 9.569508859387087 6.9019593258852705 4.258330899066995
Ag 9.13021787863037 9.545745615068999 5.265253387466617
Ag 6.615671248491179 10.877136730893724 4.996141954173395
Ag 5.643380142788643 10.462961114656402 2.1628399246379555
Ag 9.004413648881348 10.062125971917167 7.961711305875401
Ag 6.446459492452088 11.010427470756664 7.935457590259234
Ag 7.817368384303326 8.949186735993756 2.961964976075711
Ag 9.722531172638385 7.493459870210435 7.059704284020746
