41
Energy = -87.90663265 eV
Ag 4.484413766036908 6.995987026790455 2.323975848470996
Ag 2.538579769650467 7.743907779168328 4.351796785129041
Ag 6.759147509879727 8.767752228372323 2.695977594176341
Ag 5.769575280842817 4.48067024445385 2.4434023539798915
Ag 7.969621713726248 6.174564056861567 1.9482857430947504
Ag 4.16549185714504 9.645661551419245 3.033917561081801
Ag 3.7107212933820315 5.190909417784556 4.386418964169025
Ag 3.1590546337436796 10.861285170639524 5.257113160814946
Ag 5.945371409844503 10.95624108969169 4.785391769401749
Ag 2.462754109646002 6.072295238470224 6.83352910718065
Ag 6.4523672014563545 6.499514174105887 4.331672124916374
Ag 2.2251140216661875 8.844354564204862 6.923312927392764
Ag 9.470950135880729 8.208063151193219 3.0814884321651093
Ag 5.874558722402794 3.5484058514050334 5.07758702735129
Ag 3.6683401303135765 3.435322401809853 6.813429808560572
Ag 8.303644217047342 4.104443047270736 3.8647251611084905
Ag 5.177247656774566 5.950379959795197 6.7777497873444
Ag 7.911705114484273 8.989600796720856 5.239724689622618
Ag 4.36394947061295 10.45182754991392 7.82671682005671
Ag 10.496351290521964 5.648512696033235 3.281251058113862
Ag 4.955225314171646 8.573672728664961 5.721914837714992
Ag 10.169027604902517 7.228104454713923 5.600131887504683
Ag 6.285539154650795 3.6963293068809646 7.957676705421417
Ag 4.0821224705295895 7.728861447730118 8.689111308857262
Ag 5.587264519401902 1.250990354968789 6.740937735298119
Ag 7.899841167388852 5.419390303617442 6.462352840788432
Ag 7.121813804953691 10.65128994050563 7.418226370524708
Ag 4.560504710368497 2.0642153768756475 9.305885305833781
Ag 9.538951154099182 9.168702357900099 7.538642416042759
Ag 6.9870479870264735 7.867597323062478 7.664799987900845
Ag 8.194425465494522 2.4808691648416104 6.27162066387986
Ag 4.061003078079791 4.9211572772063485 9.221057858242526
Ag 10.347776465640258 4.419739898742588 5.930332033615583
Ag 6.255388589810991 6.454102951235672 9.994806449823818
Ag 7.446404737306236 1.4056683997096109 9.007380425685614
Ag 6.593582906350342 3.6792523131801613 10.660923559064388
Ag 9.797327413217573 6.422858599887988 8.281355436980732
Ag 6.02024434584343 9.43216283582519 9.849508520422145
Ag 9.007114744958956 3.766981297623396 8.662074094994257
Ag 8.51014051370156 8.24140425158337 10.03860995658758
Ag 8.738856659072185 5.533523706796801 10.803299496488785
