45
Energy = -97.11329504 eV
Ag 8.12459564851793 2.438700997860459 5.023824876415968
Ag 9.605789598549238 4.782410069883732 5.580211623316008
Ag 8.898053715805677 7.178734289251129 4.039681707195922
Ag 11.17940697620113 7.0806429049720485 5.780148042379465
Ag 7.989038452997565 4.611044551314789 3.3001458133133985
Ag 6.076204601195515 2.54655885466265 3.042192528691883
Ag 7.822625723235476 0.7892332347689863 7.201555216059806
Ag 9.654578998098602 6.097950654047422 8.064018893922125
Ag 7.870504705909259 3.744229981149478 7.53171269257267
Ag 5.985570951112929 0.5747526964119842 4.991200404647483
Ag 10.597008254395847 9.387158721472316 4.281732749052777
Ag 8.13180435785773 9.689465909053936 2.804290399638984
Ag 7.332413026127021 6.365116463450986 6.351979021255018
Ag 5.740487490226612 4.393074782691254 5.184664268046517
Ag 6.171019824116365 6.678676740516202 3.3276797807674217
Ag 9.071711211853184 8.678094941022454 6.573981570658254
Ag 4.235484166958334 4.621855527728847 2.7813367116093044
Ag 8.614408285705341 4.103619791744992 10.185243383741929
Ag 9.69918644535256 6.567578725455816 10.80903354974
Ag 6.904750530155921 1.9610488541768865 9.549714544174037
Ag 5.390336876775314 2.16343376281369 7.14187739129662
Ag 3.7736951447073723 2.462628674021326 4.766251632034947
Ag 7.215285018459665 6.43475864181838 9.483078617642278
Ag 8.625451702045444 11.138519292051885 5.104762434347423
Ag 5.36805655896845 9.213373713399458 2.4171035934781533
Ag 5.7716859195521755 4.305510904773536 10.531074898783807
Ag 3.4242506893904214 7.272094963602866 3.230985319890485
Ag 4.0725895176039 2.179230071669083 9.582959419389512
Ag 2.905020404709016 3.494539423722398 7.289979133128927
Ag 6.634999158269387 8.896788168486607 5.024289376301552
Ag 5.210123676005954 5.021197995453442 7.8582058597012665
Ag 2.6603358757538755 5.148426746540708 5.028340707960381
Ag 8.81571835492861 8.723741741967448 9.303578648139357
Ag 4.612036539207908 7.078624843428427 5.878134325336263
Ag 7.977178805462111 10.998001785114463 7.842107426110441
Ag 6.0473734365806235 11.50321724456086 3.943623264810332
Ag 6.337159959088926 8.630046863856643 7.882015779618419
Ag 7.052953653237094 13.10478219068702 6.126418140726536
Ag 3.8483173787960783 9.72540011673059 4.720703431945642
Ag 3.0571123815112915 4.754451612922197 9.858074913926202
Ag 2.4693953238447426 6.3281171938387635 7.654919199867558
Ag 1.8271314178017346 7.893890349452691 5.4744284621130905
Ag 5.381047494298233 10.984477640775438 6.66475000829629
Ag 4.501715206587757 7.1840528743461345 9.467538882130803
Ag 3.5009018582058538 9.043656836709074 7.533176924550917
