49
Energy = -106.86686172 eV
Ag 11.08408968722684 5.285205891703626 7.405132672988496
Ag 10.851715920887427 5.470427967833687 4.607553964514165
Ag 9.74465575174363 3.2194131553922123 5.967661773082083
Ag 10.160883124445432 7.9812032080497906 7.459372463987634
Ag 9.658728295058879 3.263964975395634 3.1656210967759537
Ag 9.068425791322971 5.885991164177799 2.495629072335726
Ag 9.574549727111455 8.051436158051198 4.531472942213971
Ag 9.565608283715799 3.3029095232356553 8.825161448752423
Ag 8.60218641750945 5.938241319661215 6.21889792053684
Ag 9.45743813363499 6.076631814690983 9.498475669910563
Ag 8.013240834562245 1.4619913064718157 4.545058483369295
Ag 8.330392458479464 1.1788873708834255 7.336677447984788
Ag 9.267803418288302 10.448616938012846 6.242093080705839
Ag 8.09835747095347 8.82137791835665 9.417991015679865
Ag 7.278095760147887 3.7907096400680835 1.761347789686265
Ag 8.290855592396744 8.488012452944028 1.9580377333990486
Ag 7.517687586558773 6.758060955193014 11.456800560805737
Ag 6.885265906214478 7.044185259300906 4.003451356406134
Ag 7.45656569925492 8.468188386789361 6.677439479821123
Ag 7.175692394375035 4.166341099252826 4.555624885398533
Ag 7.270275273500604 4.17220958100283 10.246325093395342
Ag 6.566083844649525 6.479409751726727 1.1869532657745052
Ag 7.22949758668803 3.853198245196586 7.383798032985987
Ag 7.44020643058923 9.981595529110658 4.074797180639756
Ag 5.74060656435888 1.7493365903847826 6.209192701233581
Ag 6.756650311599527 6.501042589041465 8.758984179209978
Ag 4.958096458377134 4.989424395198573 2.8298372447939646
Ag 6.186309821055916 1.8717689121327443 9.003550831245713
Ag 6.558189364579696 11.348123038407914 6.271792995556507
Ag 5.460933804586962 2.239340934458438 3.402776000359911
Ag 4.916644828516961 5.656170705972365 10.853703214358763
Ag 5.471519549458774 8.474917099826815 10.69582365674412
Ag 4.961956022929856 11.356148248435899 3.916345887441555
Ag 5.042942253592237 8.949293806802874 5.436015917409022
Ag 4.2495748859024225 3.9435106836895115 5.330888575465007
Ag 5.564570262406748 9.759219644444777 8.276975563719613
Ag 5.588761860636617 6.172989033150102 6.2990365696044766
Ag 5.233709777609107 8.729000106849535 2.55151739731398
Ag 4.6566679923414895 4.213575213790732 8.315250841296269
Ag 4.054516554168257 7.244710443010093 8.505358420842754
Ag 3.575886732203125 6.808888624774112 4.391133891087699
Ag 3.6648438210360132 11.10122730019999 6.552501135838543
Ag 2.8244410337471577 7.615531006073664 11.009663513354855
Ag 2.3923526449373638 5.076255869266186 9.727012883801073
Ag 2.39346933093167 8.500046779682572 6.444045924887437
Ag 2.7999457305804474 9.55223563426522 3.9064901570416537
Ag 2.8803387950483113 9.749840713224645 9.02345389264191
Ag 2.5762357213731657 5.62202544730179 6.847870111528484
Ag 1.19387653388101 7.389265102507406 8.678353360685174
