43
Energy = -92.92547034 eV
Ag 1.5084983728249735 4.3767008856167555 3.7229109993864844
Ag 2.5564536173182733 6.415622157123535 7.975771866350352
Ag 4.107768429686629 3.3941532054484838 4.216902768608791
Ag 2.3205935945123404 4.028123469408954 6.389326244671559
Ag 3.5274731163360697 8.42248068629911 9.740566365751034
Ag 3.223633142869019 3.6116663415547032 1.5994095560224417
Ag 1.9454543183768536 6.7701645387425895 5.150702660242925
Ag 5.170305605318849 6.255233534612894 9.225135583598645
Ag 5.139782040333273 3.2090862680833805 6.86785487892304
Ag 4.419407864569407 5.756816900152082 5.848519871218419
Ag 3.192837015765325 8.8722926529391 6.926391625213666
Ag 3.4993776985115606 4.0216834542691355 8.973579578364337
Ag 6.9352367851483026 3.7064476771210018 4.776977087186968
Ag 5.508011679622058 9.96474114379401 8.547415100666417
Ag 6.2010776870385795 8.340426438705476 10.888874769959003
Ag 5.775850825158786 4.642489039546123 2.2650554672664143
Ag 3.3790772482028606 6.14168675742882 2.7199449097711166
Ag 6.2392577819439135 3.633810094556565 9.45197426813671
Ag 5.854395963075909 8.051364131694044 6.459372325189083
Ag 5.090284203876916 10.65318532829462 5.813250549336995
Ag 6.955219078580197 5.502628257699922 7.084124809955364
Ag 7.619811787477718 5.788236988211362 10.64216984803101
Ag 4.187989518296046 8.325456400475119 4.235774286731745
Ag 5.674349600716843 7.563813759081307 1.8998302430319152
Ag 7.578715569132997 7.780706461914536 8.609107608809436
Ag 8.12588205466089 3.0580097726297177 7.406330697165983
Ag 8.900784849584927 3.3161855147114876 10.122036887875291
Ag 8.102063319399173 10.2783901597232 9.673592493397418
Ag 6.629196676173501 6.4998262734672965 4.241458061919504
Ag 7.807535420368995 10.209727911161183 6.7316364166873734
Ag 9.547998472788384 5.581974429396944 8.407841455587702
Ag 9.41256744597499 8.01987797337314 10.697099456965141
Ag 6.864045865352983 9.383775983591383 4.080544545761447
Ag 8.5351897424204 5.067483628251818 2.8641726242712373
Ag 8.68601305329543 7.510309308325527 6.031318279122938
Ag 8.44905275770227 7.866719731745856 2.3985896823097197
Ag 9.434420677888507 4.823119866603766 5.598720586294576
Ag 10.436385927331838 5.441345615880719 11.097883055192971
Ag 10.114959437962934 8.996603800454388 8.030382232694484
Ag 11.767664003526447 7.175049882446816 9.362757681767235
Ag 10.502479637971284 6.881123314099185 3.955658762760622
Ag 9.629017604306041 9.577459997543574 4.525067442807659
Ag 11.356515191288576 6.871739252804301 6.614467259999393
