48
Energy = -104.89715696 eV
Ag 6.053525838790769 0.6546739507949779 6.617624731371114
Ag 9.055615767608826 3.0778479878991964 5.233052149852616
Ag 6.7196727945707835 2.020737400076045 4.251313329956841
Ag 8.957231082401355 2.0056704105907115 7.828986372706595
Ag 7.8827721510886315 4.496516050331611 3.1304586719354583
Ag 6.525085844047089 1.705601713384011 9.193138699134378
Ag 4.022030872540167 2.118393373236039 7.9752174982558035
Ag 4.127882419579193 2.184960609417291 5.194413645223282
Ag 6.72515148384576 3.375043545008629 6.877330543678724
Ag 9.891169904090189 4.6833650925021475 7.3187990751989025
Ag 10.406872021980641 5.36592226199883 4.49225175161484
Ag 5.046767396007812 3.9524336583417536 3.142438719620478
Ag 5.283621364203909 4.200314127552059 9.60785550120281
Ag 6.318826509476571 5.616913089536329 5.131031684997149
Ag 8.051466419775226 4.208367800203284 9.41319312570023
Ag 10.972759392543216 8.13948159078521 4.4399587432296554
Ag 8.63797667351228 7.211975522291772 3.1839975757269112
Ag 6.684111286333803 6.207736100303786 7.801141287810792
Ag 6.699207485127598 6.65302891656621 10.491756036909658
Ag 2.3362991158324835 3.604792991726686 3.6369105166658384
Ag 2.510484388144395 4.19922346678089 9.080965962659686
Ag 1.8745064096658555 3.500654223406502 6.409870747431999
Ag 4.299342452799748 4.768143866491101 6.89513070812493
Ag 5.886824468195566 6.644674058719959 2.5903877323003073
Ag 8.83958172712926 6.962868624486429 6.084476806831545
Ag 9.175466163157619 6.786145207929236 9.088301870859345
Ag 4.586854766840032 7.586361527284927 6.444151287271507
Ag 6.867685455824679 8.566408688989297 5.07460369097779
Ag 3.98909405833092 6.643873645606908 9.227960564756273
Ag 3.553486324324612 6.115773966282894 4.191270627596442
Ag 6.8594106624978615 9.235711035752612 2.2857934757592027
Ag 1.9566744224643846 6.344604007610311 7.31042174066827
Ag 11.38049696177695 7.203652844184154 7.078474985065608
Ag 0.8628552400819779 5.671963593141702 4.84286862400575
Ag 10.760910242448734 9.0401207167558 9.094495505394955
Ag 4.423813515455232 8.868344910694967 3.851306381490714
Ag 7.947738797199579 9.107607767563888 7.634838143374453
Ag 5.525924341554337 8.911678944224565 9.167922698367917
Ag 8.992859462534398 10.109635479937987 4.060115203812607
Ag 5.249115226476763 10.341194332055471 6.6763964368748265
Ag 10.491237798987221 9.976159014424864 6.456347390971162
Ag 2.919002002870847 9.061957741739572 7.986401370847522
Ag 6.32771234210732 11.195920332600807 4.188465260493358
Ag 8.166834081851459 9.213231170794005 10.363434569493416
Ag 2.072831628207701 8.28119109760513 5.3037554281012325
Ag 9.457433285182786 11.398594877203157 8.690154289819969
Ag 6.713460769786722 11.393191882906269 8.848575879090268
Ag 8.069845698596282 11.603750592932471 6.277629867079748
