41
Energy = -87.34282544 eV
Ag 6.675463596764958 11.801252716895064 3.527067544041948
Ag 8.116426331539815 9.493943290164834 3.5018332172065607
Ag 5.70852825367815 9.492126290865137 1.9970926996312348
Ag 7.114030258044348 10.393975579172578 5.949474728976195
Ag 9.304256408295991 7.194205816268201 4.381901573618308
Ag 10.960834334108107 7.238231638088531 6.675972354350633
Ag 12.070830040064783 4.990818316808801 7.846006126283616
Ag 8.98552868529161 8.983075811685103 7.463808664364729
Ag 4.6658132238505035 10.194853871862756 4.521775120449892
Ag 7.261324294687819 7.0406894358039 2.311382162681261
Ag 7.0500820437022576 10.573554720152774 8.730272997816806
Ag 7.68032554550655 4.935747627378388 4.238453785392478
Ag 9.962959077524566 6.526007404846055 9.200035749177733
Ag 10.116325535805352 4.6690139318556225 5.815004938771812
Ag 6.353493756751346 7.720663721483822 4.873292428450486
Ag 8.152591585032669 6.404423061335009 6.7872188148180115
Ag 4.620319417762568 10.499132155335449 7.277137884536224
Ag 7.866247225230511 8.211772176623745 9.934146310401813
Ag 4.756262358723142 7.117606442812811 0.8498886438317692
Ag 9.710428852205586 3.7813321900017174 8.50410288423112
Ag 7.5030106531693015 6.389900260410107 11.907186122964672
Ag 5.174228942779972 5.266092796393125 3.1067061587288003
Ag 7.3233140818363145 5.421990172902707 9.212812218342195
Ag 6.063093997808492 8.045892348645452 7.794978708096379
Ag 7.606344499336069 3.515689257817005 6.676082239426279
Ag 3.783977153921433 7.849278343383789 3.2955482478732674
Ag 5.434573037632711 5.496001831249596 6.356847767941549
Ag 2.689002642986651 5.585850076278675 2.0073170025446276
Ag 5.643707569700171 3.0022767732474134 4.704801194525772
Ag 8.847969373594413 4.101838277433971 11.157761488481112
Ag 3.7254234540024074 8.05131528219189 6.089391941367934
Ag 5.994431687962715 4.11806856125918 11.333357697381535
Ag 2.8712738394001613 5.6827617691047045 4.905845512346674
Ag 3.4094191530034554 8.477901453784165 8.828551968757518
Ag 7.24678443753309 2.548411936774583 9.324928895080744
Ag 4.924558802903053 6.500801520675285 10.062169750590991
Ag 3.09925686681592 3.2478964664100163 3.600991467000286
Ag 4.790512355947187 3.897244362789625 8.803310031529683
Ag 3.0604945023570727 5.879454427743033 7.848841934044033
Ag 5.560667583116967 1.7313751806294473 7.196091170471088
Ag 3.3889557398000862 3.3929582764562936 6.416715812123723
