49
Energy = -106.77062525 eV
Ag 9.95960068900999 4.655428936079113 9.201099038145951
Ag 7.916166726152755 3.1986656605925825 10.658253726409308
Ag 8.137562322907778 5.972539404820234 11.058625018197784
Ag 7.8289285584856785 8.798912168145362 10.826029991713714
Ag 5.66144844320767 7.4337077533010945 11.961224438365415
Ag 10.973361428317007 6.327846579478428 6.99585034213328
Ag 7.9899767333091205 1.9849996047981213 8.148607371302244
Ag 5.581363178109772 4.815808159511811 11.000364456132958
Ag 9.686646430257307 9.009015261747097 6.751049956972002
Ag 9.437138733083858 3.791972470310664 6.5722699433768845
Ag 9.049743110576632 7.293855539595279 8.774645136937197
Ag 5.537749190519393 2.4794899017624403 9.354926166625338
Ag 7.303716471796511 4.751973754247628 8.342073729029778
Ag 5.191977125905983 9.61548448040178 10.078712441341311
Ag 6.170230924597414 7.130496511691753 9.152951410935566
Ag 7.2403601612288835 11.66690600172454 6.173517351191153
Ag 10.322070408209477 7.9435234046775935 4.263079725092908
Ag 10.566158498517156 5.171889391223922 4.435339153727129
Ag 7.395808103938428 9.674384031942832 8.203281813674439
Ag 3.5286455225437856 7.177220236328056 10.134707762924346
Ag 9.427093214923818 10.64927779589528 4.521560016729932
Ag 7.853505515008937 1.620844765689704 5.390052185194084
Ag 8.384770104183149 6.4496225443458854 5.963517788643962
Ag 4.241999893616387 4.889213442305386 8.574052016660604
Ag 5.60019065268853 0.7739264155763116 7.0171865567848775
Ag 4.914873449504578 8.853901002100496 7.201619335732465
Ag 7.136747280917392 8.99339941811404 5.338129190180834
Ag 7.904883641318612 4.204933430437348 4.220988507913055
Ag 2.6771093324193203 9.54782392912381 8.837149021246116
Ag 5.883161498641659 3.417005789805055 6.293765421921057
Ag 8.962106755994153 6.215928067353966 2.4076968925040148
Ag 3.3013394606100315 2.3107338646030513 7.772781781106568
Ag 4.981648369181962 11.47290963934794 7.89042028910504
Ag 2.8079428071290438 7.081559738845308 7.3632389369252875
Ag 6.971109923174053 11.413246765557158 3.4076681778199434
Ag 6.020843360281537 2.3421113086336987 3.3969600312576813
Ag 8.29911395825113 9.008266191743536 2.5976904790781004
Ag 5.627084839008238 6.2270327226712405 6.434354945858443
Ag 6.553712437232201 6.795408225419232 3.7180471535698674
Ag 3.7289288865156545 2.1038428903777784 5.0188437037842455
Ag 3.0109148884112855 4.584806038241619 6.136372057674915
Ag 4.783159227434635 10.715826250500438 5.016072092561893
Ag 2.439620276803619 9.65961543153151 6.0716754473154495
Ag 6.490434402397682 4.673225509251973 1.7973263899102714
Ag 4.674449869844317 4.7222840609400665 3.9843900491439084
Ag 6.818180289395282 7.361537159995095 0.9230942453834099
Ag 5.42309242882219 9.224071505754617 2.646480411062698
Ag 4.025408716378699 7.77429100625062 4.675967714951748
Ag 4.2798360183359625 6.718339853837839 2.002077437427311
