49
Energy = -106.57135058 eV
Ag 12.546076825854351 8.520595168543355 7.326359377524219
Ag 10.847858811076753 7.463310789761128 9.451268961590756
Ag 10.66202216066448 6.590552791543016 6.770273262352878
Ag 10.79322153823326 8.864617266354745 5.065573174710016
Ag 10.07213671078609 9.665153539979915 7.708791690004342
Ag 9.406644132466411 4.970125062910026 8.712688410601864
Ag 9.730774558510227 4.011275994764063 5.960930183717118
Ag 8.486263200675193 6.5033163584196485 10.889578327259274
Ag 8.947943346805653 9.386712165825823 10.373878122601335
Ag 8.638776978524646 2.3625133362458968 8.167100889696927
Ag 9.129338832987091 6.578522656182243 4.482688691743046
Ag 8.326994800694653 7.5623498809349 8.209192968731754
Ag 7.339595072124261 3.7460870185086765 10.332071675655687
Ag 8.039115807810507 9.039778640819279 5.726388623757428
Ag 8.87077201842476 8.96044748298808 3.0007821247735613
Ag 6.3499149137797515 8.322909339808813 10.538208108081378
Ag 7.2861627344335345 10.236768492682684 8.17914310310084
Ag 7.888642387922951 4.2213350246095445 3.71873430561812
Ag 7.415586304221126 5.369587432211919 6.530552615383258
Ag 5.808579627492119 5.759703258761672 11.733573680111977
Ag 6.649350965356003 11.04898811370476 10.730450879579244
Ag 7.5131741974006125 2.2139545173624207 5.656160002331751
Ag 6.277234022950118 5.898035395073884 9.01842213189849
Ag 7.601601075380804 6.545068666681525 2.123568810684576
Ag 5.772350245462325 7.902232775533669 7.104691401401198
Ag 6.811110803199382 8.920215866260579 0.9850014722313366
Ag 5.966052853342581 3.1891974802282017 7.832889499243869
Ag 6.144031728730793 1.9326970340112202 3.177662557348715
Ag 5.921616316156772 6.400994549965384 11.733573680111979
Ag 5.336576462548779 3.9109570278156136 4.956027646386282
Ag 4.6035903755655205 9.906718371929516 9.035659246305356
Ag 4.320880033086841 5.55194070344666 6.886012097267047
Ag 6.140683789115777 9.345197486512701 3.6803534977221464
Ag 4.204727160721431 4.3110463634398535 9.9155800345668
Ag 5.1596715637458335 10.37034904453738 6.218839436167146
Ag 5.502384676233884 4.573026942130436 2.112263824865179
Ag 3.8567565378855417 7.138212782028602 9.85496332231093
Ag 6.068836776959024 6.588730507321899 4.4765554734824065
Ag 4.69630201011926 1.4114613730932937 5.793114004582199
Ag 4.616163922055866 7.4914690760760125 2.125010097691895
Ag 2.958818540821189 8.261385262587192 7.507428857706031
Ag 3.445677066187205 2.6747213311443296 3.362785125608662
Ag 3.223117950682725 2.8664171712136515 7.781383035636108
Ag 2.144985034974704 3.9012357348859923 5.552755634004045
Ag 3.824485696750383 8.261161964947323 4.843665478488549
Ag 1.9870575719114716 5.44288435909642 8.225786272538055
Ag 3.3360182751527723 5.51303704194332 3.665421546381855
Ag 1.6400059509110891 6.639038478922516 5.657997420772791
Ag 1.8382474391521924 7.684297586002912 3.0051802605326916
