40
Energy = -85.82891346 eV
Ag 10.905679675165493 6.224167284085913 3.497555670514029
Ag 9.606394728674315 3.7634051254404137 4.2650496119914285
Ag 11.352452831807692 8.226485850562907 5.4572228678551555
Ag 10.481067914453416 5.739906790139043 6.177908152686796
Ag 10.151856841905907 2.972458064830092 6.989799279488174
Ag 7.976467532258521 1.7989169697252012 5.64108156289117
Ag 9.343172994203274 8.624315051667164 3.5104685838995273
Ag 9.533389049306114 5.205730564867927 8.714697741509589
Ag 8.155594845756646 6.111629008798579 4.0458087344895795
Ag 10.277194322801478 7.942243762768799 8.111170952124349
Ag 6.167442799052491 3.6993272240919453 4.267423705136359
Ag 7.901940551233983 4.488497243264899 6.383484064220129
Ag 7.860088027458239 7.300806644802203 6.906917207322321
Ag 9.058941058016014 9.738910267784853 6.060879500552621
Ag 8.286152037029032 7.211184483650102 10.161399512156297
Ag 7.776592389743718 2.818417908634707 8.672937434233555
Ag 5.650292293555823 2.771558371773414 6.937078596824729
Ag 7.664254114524304 10.97812586937821 3.917553340610761
Ag 5.614134918389466 5.784995015423794 11.257356598240621
Ag 6.527089821789782 5.479330330003157 8.60739519124047
Ag 8.007883735082133 4.449244042546001 10.923780072741188
Ag 7.889881066852799 9.540056098582358 8.630537596524103
Ag 6.716989121380968 8.455844000928602 4.495605275169181
Ag 5.664576128593671 8.121804916891454 9.73201854664323
Ag 5.586390209797098 6.099787498972114 5.925963634736061
Ag 5.61680197710136 6.20348871720994 2.999690964176342
Ag 4.9622996756920035 3.4817483994805674 9.57699970778319
Ag 3.709389786828055 2.344447687198142 5.065430279182329
Ag 4.842293280246498 10.551415666453416 4.534509134705262
Ag 5.204197379496176 8.762348657437606 6.902542797970696
Ag 6.70738870117851 11.172018918099244 6.539449118228104
Ag 3.765023812672624 6.132673312513881 9.129640525802627
Ag 3.8760484227755563 7.899769862005502 4.2920808811702695
Ag 3.3092942549124427 4.1874489531956645 7.210203222225722
Ag 5.356121311406035 10.755032360925894 8.994647858853181
Ag 2.8105660690347496 6.893200692594424 6.661128461227775
Ag 3.454678696674732 5.045054250121622 4.490954409682218
Ag 3.9278682902829196 11.762005968924473 6.896545470475316
Ag 3.090913650358464 8.89072418698539 8.67542908266123
Ag 2.438336715317878 9.59861501005094 5.966795684865379
