48
Energy = -104.23178343 eV
Ag 4.412335955830594 2.70101473146118 8.832988879414364
Ag 6.325240189983366 4.512974584466283 10.159752183408772
Ag 3.0606720150946427 7.98046121922746 10.828977420497887
Ag 3.685976477824497 5.282843293560829 10.080484183650555
Ag 8.99195569215541 4.020374769374318 9.437377814506952
Ag 1.4623177266282672 6.626477409657718 9.044890086374604
Ag 5.661534143393372 6.995723786911339 11.431263861391018
Ag 5.899451004766549 0.7094888750680203 6.77465295178187
Ag 4.430616712779342 2.8836182012401905 5.961717557464118
Ag 2.430554619905512 4.342287336428356 7.6704254138336445
Ag 5.115256600807756 9.839766696437396 10.457124077033527
Ag 7.034948025907627 2.939070984982845 7.816748054240661
Ag 5.187741449362896 5.109430499543855 7.4964932058890374
Ag 3.2028438405606234 9.532109405457854 8.318776541178243
Ag 8.392525636359348 6.347926135947594 11.090078815695863
Ag 5.111599577411993 7.5585428861701125 8.811540220103538
Ag 0.6187029680454348 8.782719684224501 7.585874471962585
Ag 7.684245807470405 6.330008374820598 8.38553059187666
Ag 9.798557953888412 2.7660979065668756 3.8948004285308406
Ag 10.104252397025235 7.7006248744247365 9.153049969667721
Ag 7.087627911561818 2.5311218917075844 4.918399919121352
Ag 9.682403835259857 2.9603634357140507 6.650981892401801
Ag 2.8162874678296843 4.991977184156433 4.933838788629823
Ag 0.6660546638047256 6.176726573291614 6.390991888135717
Ag 3.2465829239246458 7.12947663320199 6.757762324702445
Ag 10.347461704486728 5.491192627017415 7.545526546442988
Ag 7.847419563163567 4.998556750201672 5.981083733179711
Ag 1.6600574709916198 8.525030124879292 4.982546423566632
Ag 5.511355143107018 4.931187288051392 4.305881635178078
Ag 11.018721199410882 5.01763747724959 4.977056039437713
Ag 7.607450482071498 8.790734778684081 9.82390068771944
Ag 8.066701487511047 4.775693526928038 3.1558722909070607
Ag 6.14235940772508 7.365555888237359 6.100105212984926
Ag 6.081094780896973 9.97177703613676 7.692544140494451
Ag 3.974615193853353 7.32182847447008 3.934316643247344
Ag 4.230773376161618 9.620517415953989 5.593435170765441
Ag 8.645225572448066 8.847378069262254 7.052546270770688
Ag 10.767074688614274 4.815648829093568 2.2164914424723534
Ag 8.706696190297041 7.256014195414483 4.648206477394302
Ag 11.154055247788474 7.732731059359908 6.22735675618286
Ag 6.498835078371367 7.148390713904449 2.8615218975094208
Ag 5.193253476045937 9.67233720872335 2.936421319282836
Ag 7.052621638902203 9.824021785612032 5.0033412403137305
Ag 11.448861805266061 7.329283221692347 3.4663445277347775
Ag 9.121354943628692 7.007568772302291 1.772924227261432
Ag 7.938240924894778 9.510644651638604 2.3626402217937867
Ag 9.978407086532334 9.661247185470407 4.494202686885771
Ag 10.649154726394029 9.315372524668009 1.7193726707665622
