46
Energy = -99.48124131 eV
Ag 10.531370329443902 7.7673360987254965 2.82405447850171
Ag 9.759251660385862 9.076799900754068 5.552158289064644
Ag 11.43178346878487 6.917105032885652 5.369160158508572
Ag 7.940602543425496 9.488110227812655 3.477896516868894
Ag 9.35777698355521 5.24236400201199 1.8522460061652806
Ag 10.76734382799117 4.572245316721571 4.076598330107655
Ag 7.720860405787138 11.030789830116422 5.903461738058964
Ag 9.15431307486053 6.827313598976339 7.164246069344697
Ag 7.871775227530568 7.543060299809974 1.5187412947702439
Ag 11.018409459278818 4.622687601408779 6.887515756745677
Ag 6.946952993335935 8.309574821283846 5.925214725326411
Ag 8.021068302583991 9.334031427172532 8.228801761718326
Ag 8.333375464647911 3.0585865860816734 3.3471432343841703
Ag 8.501228501768296 6.704420662080298 4.241465484826194
Ag 10.05848259521732 5.358702761367383 9.3963637600332
Ag 6.60179702238353 5.210920779053626 2.509583727466621
Ag 5.373444216875236 10.265144532251838 4.401195084532159
Ag 10.110550632709366 2.2651983865838545 5.589888728645548
Ag 7.853451145927445 7.056036727248502 9.878911249679105
Ag 5.412395835571017 10.313750747328164 7.331261054796726
Ag 6.858819134214541 5.167971686103419 8.0504743604918
Ag 5.650393037138345 7.748055224701142 3.3047794709936564
Ag 8.351981487121146 4.430307848238675 5.77897297494856
Ag 5.494553413864187 7.68605267007364 8.507318057530995
Ag 3.039815037218272 10.64342086084764 5.804675509031711
Ag 8.914188347668352 3.057091403350304 8.178860747882544
Ag 5.894604611242715 5.759744283545428 5.488424858605132
Ag 7.75702518647616 4.31684838400499 10.574895853887725
Ag 4.113742619354403 7.941238900457737 6.00475836836746
Ag 2.8199070355374283 8.469802482974107 3.724637619473015
Ag 7.3527334337787815 1.8649650360252759 6.0338496691708965
Ag 2.951683743171354 9.237922384743456 8.25748243677462
Ag 3.8419516501353628 5.65912502561629 3.616213720732773
Ag 5.541889065279279 3.241925830830501 4.08272264378256
Ag 5.0007276983209525 5.115182813078278 10.106736907382624
Ag 6.241652332603709 2.5045809902015215 9.073717649877354
Ag 5.1147327298882335 3.2686278835309506 6.750878383246447
Ag 1.0577515504835135 8.821170708071607 6.169656282848166
Ag 3.3009007869204283 7.409490779377578 10.264961983835503
Ag 3.694862209763663 5.63067089233511 7.640607320785426
Ag 1.756673264685166 6.235708049620071 5.457885904398975
Ag 2.8259005788820493 3.6653701904656497 5.306882859336477
Ag 1.200011167153216 7.026065905518393 8.263948458791068
Ag 3.387299178274072 3.0011676690557096 8.825629957926411
Ag 1.967514187395552 5.018507296592596 10.053894316808199
Ag 1.13872069139371 4.345188043256492 7.428916069675569
