42
Energy = -90.2032085 eV
Ag 2.602494728391498 8.952604375410981 5.177689716890858
Ag 2.043004117480672 6.192460996617756 5.91716512397899
Ag 2.150447849475549 8.465785814835943 7.887407520289767
Ag 3.819282406131926 6.921491552801544 3.751960745090466
Ag 4.312726249953989 10.260568356924619 7.062134364011629
Ag 5.406429917668102 9.142382355450083 4.661526779829577
Ag 2.9075616404460938 5.936388091548553 8.643126654713825
Ag 2.4485706002222067 3.5253930573644237 7.101026501540633
Ag 3.572535946710014 4.307546992397212 4.474921628597389
Ag 4.474035215726913 7.420222433313556 6.6789600226218875
Ag 4.595075564085306 8.23518512157648 9.34859306612782
Ag 5.803296459381324 5.2992508482929415 2.6293968358914634
Ag 6.770923713473383 11.312074076179343 5.835898553803825
Ag 5.700043945407323 8.18760624676671 2.0507454456671037
Ag 3.914049218107808 1.7127140806102983 5.5145168326800835
Ag 7.287779912400052 7.69093451599531 10.26070965685514
Ag 3.45396306529695 3.4962556668133673 9.796247033573808
Ag 4.00806911008695 1.3589460001360407 8.235196352218225
Ag 5.026540727453992 4.537466583583149 7.13227655602241
Ag 6.759560489287363 9.557533706698111 8.132127829091097
Ag 6.483190569744117 6.3770694720405405 5.075729607654243
Ag 5.315761833363331 5.605433016925984 10.095468699420232
Ag 6.982553801041686 6.6493954578217265 7.781688914337821
Ag 6.076216432240306 3.1333573508061363 4.383917207166981
Ag 7.561547902412225 10.107089457541642 3.0889653027389192
Ag 9.106402462789468 11.02704097374613 7.483775961985019
Ag 8.091583296900163 8.856637868378689 5.627707796409581
Ag 8.113651458202547 7.235625919317633 2.973859811610197
Ag 6.4029803151637665 1.7412824846639487 6.868855306642676
Ag 9.426347608748301 11.359161414172764 4.756973096180863
Ag 7.711416191059957 4.249888001586383 6.499880976195308
Ag 9.283718568021234 8.244256371364127 8.219094963635767
Ag 6.173589102272229 2.9639326321924133 9.34284956022289
Ag 8.030435690903728 4.943303701403117 10.005066574852007
Ag 8.438993289132757 4.5806783946062595 3.7712087867078226
Ag 10.171992224865306 8.989389050047636 3.511698788905273
Ag 8.54749698424515 1.9613921513247654 5.097670066878446
Ag 9.694440420854571 6.6276696307358405 5.370140426614806
Ag 10.878252661488204 9.28154798171533 6.163732338798139
Ag 8.88422580184001 2.718362681523344 8.399940932566848
Ag 9.794521158100531 5.536691723761884 7.988241651692919
Ag 10.398611097589756 3.9398853983883213 5.8087276917068404
