40
Energy = -85.84620469 eV
Ag 8.999806956325799 6.93495318266296 10.716072980496659
Ag 10.933558985008624 5.707464017946824 6.509741067176451
Ag 10.42647824219891 7.6770637863108195 8.391855529640463
Ag 9.555832330908801 10.288507079282496 7.567550911111695
Ag 9.861834090175945 9.698679700532283 10.331407071896708
Ag 10.176583868651083 8.350242530333768 5.582810470202852
Ag 9.406975719700176 5.9614855691694 4.233663239696466
Ag 8.837860732207774 3.8340737285786917 6.20600533428942
Ag 9.456748529641642 4.920039229933225 8.763873398709203
Ag 7.266191531092326 4.109517471007266 3.9438982494511405
Ag 6.93202179075092 11.194976729533401 7.988463025686236
Ag 6.340163164490217 7.892420808484235 11.189695081217852
Ag 8.18376475286666 6.681422180565873 6.75223431929419
Ag 7.705243177516982 8.607729559048513 8.84088724050171
Ag 7.468590708890839 9.42637638896396 5.900731044430512
Ag 8.385862227311911 8.589766988333876 3.4145753459561385
Ag 7.2956831069900785 10.65652698461222 10.740652719917357
Ag 7.885470820837449 6.158108713878122 1.9834293943057892
Ag 7.251046528652793 3.1540370353259584 8.473602716247768
Ag 6.8207346361713 5.823705143712668 9.292674910945001
Ag 5.5460421639341195 7.603277813807947 7.213122429682604
Ag 4.187960287047129 6.775168273654463 9.706706147336337
Ag 6.326675566516358 6.895714008142557 4.385461406633049
Ag 6.549037609878925 2.171806501844702 5.882356831230369
Ag 5.0093364031870555 9.58178494579557 9.358946137149134
Ag 6.348292899465459 8.423744409187295 1.5104124533460868
Ag 6.01049198811704 4.900594101596082 6.5284880386225295
Ag 4.639755606102422 4.073410950503057 8.94156227293248
Ag 4.699239216201742 10.24446396383786 6.534533724941638
Ag 5.522915175909542 9.576669055341911 3.9212433756476495
Ag 5.308747029156302 5.064408386475531 2.2391926694587165
Ag 5.049860057128181 1.364648984856746 8.116786203346471
Ag 2.868700971044968 8.522283728734013 7.952397200054507
Ag 4.753267834000897 2.71986349260479 3.748354167403631
Ag 3.417549601042116 8.035833456673355 5.290809966416451
Ag 3.995585158403489 7.507274994209305 2.6767325348029325
Ag 4.293675502031047 0.5558967970189623 5.486161160056608
Ag 3.818342119084691 5.317084820269074 4.561653907929348
Ag 3.1893278375000493 5.812187698612723 7.21622529354792
Ag 3.7623038063978944 3.1541395836624706 6.380915116360478
