45
Energy = -97.08782682 eV
Ag 5.760950607106384 7.023892471658906 2.827410777424702
Ag 4.833567198662556 5.769161557368184 7.158370373288086
Ag 7.166613561614968 6.7668454491780885 11.475769728448904
Ag 3.7453103241825807 5.892333663595597 4.500666232691245
Ag 10.846434922164399 7.689978143669691 3.3662542688777264
Ag 11.203732665786134 8.911672843594252 5.910516928511636
Ag 4.49252947552544 10.577837680322641 5.310892531972726
Ag 6.704122001745233 7.2434543713865756 8.651853384802257
Ag 7.002484237799552 2.4271634434417777 5.782768259367438
Ag 10.213026014088376 4.941507557958128 3.3717237303719747
Ag 6.02475389126543 7.799050551328951 5.645044825344
Ag 3.562379576480943 8.516136085632333 3.6723997814493226
Ag 3.3338140361547497 8.240935045223656 6.484360102413754
Ag 8.334507579987488 6.892287987981824 4.379392642508344
Ag 8.338393722278678 8.185445951838942 1.9445190923413556
Ag 8.579896240624016 2.445976251268196 8.093366768230872
Ag 10.788524725330412 7.463845959969086 8.375573543806444
Ag 7.2004443441055255 10.801107627753478 5.952361725212546
Ag 6.019442423648202 9.190083393115032 10.540963011429652
Ag 7.786020265213148 4.716311582239247 9.605802849839726
Ag 8.226800567777987 2.919297159319554 3.339463424666375
Ag 10.25922446527958 4.723213329236341 8.25594883280009
Ag 6.333878014774588 4.79547551084007 4.44752631849152
Ag 3.0310597810168964 3.9914149624176503 8.391106099282649
Ag 2.336172807458175 5.765074490821005 10.53247048497951
Ag 1.7651412647450813 4.4719091043281916 5.9069395328000835
Ag 9.85991489587744 6.161686195860034 10.690207511422255
Ag 1.681254851886342 6.437329361402802 7.849134968591771
Ag 6.388369608936311 9.684495141604039 3.4412641911033126
Ag 1.3009588363770326 7.163396842621683 5.010327923330993
Ag 5.3982256807406195 9.601609939062406 7.787705760254141
Ag 9.094876830282072 9.723872892883943 4.213577765958645
Ag 7.671353150575451 10.766812338081712 8.756047689109616
Ag 8.827582137037705 8.645419047104678 10.059244492649288
Ag 3.8375675559376177 7.710328221457384 9.209574245531567
Ag 4.383466403596816 7.183487279137216 11.922266918551855
Ag 10.645018093363218 6.173798252767411 5.877670420164535
Ag 8.553076375624531 8.469800169381358 6.890796389355257
Ag 9.630372492968629 3.515812309874483 5.714959237392427
Ag 5.867162935469763 3.3282755371280657 8.15354559542208
Ag 4.307816767925213 3.3496071374582637 5.796391710594906
Ag 7.853658609564835 5.52310339392616 6.809640016364843
Ag 7.830183397222484 5.377989612449462 2.016340077845506
Ag 5.048840601533465 5.226428497289117 10.063132295417377
Ag 10.359360401515447 10.223619996273593 8.242991880838034
