42
Energy = -90.51924502 eV
Ag 4.4491546837293106 7.403856295746546 1.849023214087503
Ag 4.041446697575939 4.582245511164442 2.2380894622881122
Ag 6.801377381541974 8.66120256623256 2.7322237506718956
Ag 4.201694304876986 9.085618980614905 4.10254608806998
Ag 6.074844186471737 11.15330157914454 3.877900041567258
Ag 6.385546343779031 5.868701930209932 3.1798615423962033
Ag 3.778261050990355 6.320028092874432 4.424055741803579
Ag 5.927870984786477 3.1099974502020595 3.7649551366416976
Ag 3.384312482649704 3.578641499568446 4.7914238650399374
Ag 8.866444496832282 7.142673972809355 3.980929081561844
Ag 6.319657378883223 7.763853677246686 5.421587739772258
Ag 8.4450945404879 9.86924978059246 4.6534587310547435
Ag 3.6312603850086846 7.99082006920059 6.6850205958528495
Ag 5.13681499285569 10.323926376962307 6.453171073657231
Ag 7.3753766752713465 12.03552436151145 6.2335892629871985
Ag 8.307416301643785 4.46180721334336 4.626764976141548
Ag 5.850682117798976 5.04986621239468 6.048941014528912
Ag 3.0344206224947587 5.266150909027432 6.967338448394793
Ag 4.574563452958944 1.2177730716367368 5.556684406666467
Ag 2.2883682154477167 2.2472185836857386 6.9762697234050615
Ag 10.793742961934244 5.576194259591097 5.438141996811773
Ag 4.785752463197382 3.0149102048169487 7.795801841407441
Ag 10.294232717449066 8.34254258632046 6.136997832649046
Ag 4.5061032124656135 9.346029224663061 9.130349138434527
Ag 7.062842942244121 2.3955153674859355 6.202279325890603
Ag 9.823316327990913 10.980633237488906 6.915816553259678
Ag 5.975339952414703 7.035266357802599 8.217519621017473
Ag 9.58958510198391 3.3850693327038406 6.8434329964645535
Ag 8.38847670344209 6.331924077055126 6.854876051582007
Ag 3.172679161756718 6.838606489706236 9.206464602913728
Ag 11.78291778632348 6.734447195175131 7.826882184084818
Ag 7.72380476475595 9.24342587565555 7.385018812370199
Ag 2.558282705384671 3.8786788724144183 9.296049771940112
Ag 7.352009130375876 4.114929383726145 8.41060453718852
Ag 6.4514164788705735 11.32862570775899 8.761065093563564
Ag 5.15841138905206 7.420742766964666 11.095847667791078
Ag 9.96410178539326 5.017271474850905 9.094358765650611
Ag 12.17012588365254 4.044661349759942 7.432717419718087
Ag 7.200273795189303 8.985043196796465 10.13723783791396
Ag 9.5242979265391 7.836903473029462 9.02201251993371
Ag 5.1228437789700605 4.85015298824861 9.89721583968445
Ag 7.6647347384580975 6.132812902783625 10.360770474271499
