47
Energy = -101.4662936 eV
Ag 7.241140149040106 10.25643836962935 5.305837714751692
Ag 4.690010122278531 11.10546192733476 6.599751076615954
Ag 2.3609842703496664 10.89160378969259 5.134598945177209
Ag 7.08198584810998 11.02539751245958 7.968449024476401
Ag 9.534084191156143 9.67549132656045 7.274609458013674
Ag 4.8674227937567265 10.638483313471042 3.777084403332316
Ag 9.75275392064658 9.319202571411687 4.444277727124003
Ag 2.6582358512425976 9.093451390201256 7.282146054786559
Ag 7.49606662786358 9.061232618442304 2.7978793844179415
Ag 7.207187563566194 8.12208960605909 7.237036251724206
Ag 4.914529926592608 8.53151808954655 1.9404084757911961
Ag 7.681475361614564 9.127535369012644 9.84185203569201
Ag 9.422303862720037 6.907737037659397 3.0821199654825504
Ag 2.694147668567143 8.59113510726736 3.611476510314565
Ag 7.080069985772328 6.887898628665627 4.723072224047036
Ag 4.894947395455685 8.503246507391086 5.519903626314799
Ag 0.589556689780072 8.679724013216228 5.419792113317435
Ag 9.05737229931584 6.539933406919625 0.3470607828465284
Ag 3.0812038541000657 7.341480493217902 9.476452605301883
Ag 9.688241745726966 7.052870802919978 6.022991778576496
Ag 5.0083718189606925 9.283677820576095 8.786621259757572
Ag 4.457805301567212 6.342333091641727 3.5885912155804762
Ag 6.7830297536092266 6.450262763375385 1.8819176774548214
Ag 8.686472466752809 4.34708801016986 2.0000869628860998
Ag 9.674773268825204 7.308027419082393 8.875368686630454
Ag 5.525185963319783 7.520591374034841 10.967946161529827
Ag 4.847214300313232 6.533242369212616 7.466304537878264
Ag 6.374473128270806 4.275396072373701 3.697855264650638
Ag 8.47031284808608 7.161156903765307 11.541737055905584
Ag 9.07830576566225 4.622775061339273 4.797107501418817
Ag 7.171761414555393 6.100062485029109 9.181267814051333
Ag 9.483317932434588 4.737395140478721 7.673654355472771
Ag 4.198931415261683 4.375171258752185 5.534969031021359
Ag 2.5457186943122583 6.690623148717791 5.723848394618196
Ag 6.858545606620664 4.689652977023605 6.663632257285899
Ag 2.6158222229641916 4.892719186656138 7.940683035134398
Ag 9.290700240702126 4.651257071319723 10.475154928233302
Ag 4.629606275634083 4.993684153208272 9.916084263609342
Ag 8.204239983750336 2.129489208926693 3.6459293580543064
Ag 6.702435695525115 5.041425934172383 11.824471532127681
Ag 4.770158882179323 2.995852166890997 7.889985722595647
Ag 5.95901438273129 2.12105008558789 5.487335825532105
Ag 9.39360818283216 2.19470186012203 9.062753494057668
Ag 8.764760167160375 2.346385820083155 6.3736599395733755
Ag 6.940980512128941 3.3057560473291803 9.5585532972545
Ag 6.861847710699607 1.049665317798744 7.936149369005006
Ag 7.723808720029037 11.448623835007659 5.406569371889842
