41
Energy = -87.86318679 eV
Ag 11.141439593222765 5.30598661922584 7.2718747599359235
Ag 9.42010857030493 6.104837878997436 9.356468529308605
Ag 11.519330867889778 7.816429570064926 8.692427013094346
Ag 10.080773871324809 8.149467249711247 11.211880189542137
Ag 7.57052572451227 6.906346435720336 11.245573808178762
Ag 10.335454772300578 2.925020707684032 6.0479910111007
Ag 8.421330931097618 4.625485326945219 7.191254855183069
Ag 6.869360721413677 4.7622890999346446 9.538543291925487
Ag 12.360625937200325 7.408604718320867 5.93146279917546
Ag 11.894630391947445 4.810789992530152 4.649989549748785
Ag 7.400643980731696 2.6671159113137066 5.441600815634007
Ag 7.665028305381842 9.732743603980678 11.332277031183764
Ag 5.026765799433634 5.688911405523647 11.403041759872982
Ag 9.652603014575318 7.754872344963036 6.652440735087149
Ag 6.110222794251862 2.5637268300697174 7.860812522555779
Ag 7.08860220496132 7.228095245079708 8.070015825019782
Ag 8.96254146904931 9.201086094592021 8.908612864739604
Ag 4.2337844967092675 3.7743855454651363 9.482414897640316
Ag 9.089996047747151 4.485967524298339 4.178304134548391
Ag 5.321134915361624 8.384280614141906 10.566945120667933
Ag 4.270277725227558 6.519533398027685 8.776837918208908
Ag 10.30150270252999 6.996735598175222 4.013069972839768
Ag 7.529931485528357 6.701423566289591 5.241468694075322
Ag 5.681472987115075 5.076448498081375 6.733584012963614
Ag 4.504802171624279 2.9302193583812737 5.442231286064724
Ag 6.397498984562534 10.266528836458049 8.815993022653608
Ag 2.906113951841187 4.630443477731755 7.105572873002904
Ag 6.195357725628133 4.638540629265431 3.842634618146563
Ag 3.78188464765501 9.264277301733474 8.406441210499967
Ag 8.021764450670883 6.331199652066113 2.3941824720490055
Ag 7.498902187967819 9.571516241955708 6.345602027400844
Ag 5.096924070810366 7.920851097837402 6.209136346093275
Ag 2.3753839504555145 7.371779246170984 6.680835980028572
Ag 8.21395443517742 8.867024898910993 3.6601370627226895
Ag 5.5915529233802586 7.40347156185449 3.2599870514723683
Ag 3.7270898876181042 5.821367871089898 4.713763090413463
Ag 4.97938659957006 11.005160323151234 6.513648447059689
Ag 2.232701152731458 10.191174042711816 6.311921407320802
Ag 5.779325360683994 10.071847765414237 4.056017007505203
Ag 3.2338380262815356 8.628291012353738 4.178714209244606
Ag 3.415135035084228 11.43045261567002 4.1293239790933765
