49
Energy = -105.9433762 eV
Ag 7.391063253950835 1.26089350351827 5.818347343114709
Ag 10.097646618933572 4.985677920538138 7.908718614262261
Ag 7.939484968716473 3.1374704483560207 7.823750048720125
Ag 7.892924672937376 5.076126890528445 9.822968853893371
Ag 9.440070083874462 3.5955397435232452 5.458634957396544
Ag 5.906935979304011 3.2449933837560785 10.194761066830587
Ag 5.834999525716729 1.3137652890474398 8.22374001602676
Ag 9.852006424270341 6.930178149045457 9.982810945939821
Ag 9.80236036045425 8.695704239914267 12.121128422474744
Ag 8.31969915089417 2.1978506235587254 3.3392600267861248
Ag 7.391422574134639 7.308406323352758 11.536183531868886
Ag 10.054216699592352 7.7320014975453715 7.2610502379839
Ag 10.035484032480486 6.297651276548333 4.742390166871205
Ag 5.170795788858305 6.02340980774012 10.38421837191081
Ag 5.51295575137846 1.6549249568770135 3.6406937807882445
Ag 6.6480556508500666 3.8500869167313585 5.11440146274045
Ag 10.622926681061253 9.508922806623222 9.509473910606502
Ag 7.9002204794554824 5.9507858204213555 6.5193666089709295
Ag 5.626347229644965 4.790469781226505 7.812488701597845
Ag 9.299062713873221 4.673718905916956 2.469824442666856
Ag 3.574597127057192 3.0615813771821414 8.682426408710203
Ag 4.452598269118822 2.430329374368461 6.1212743695636656
Ag 7.1207120040818594 7.562831849876986 8.678952597260176
Ag 7.919283611680777 9.848013994047458 10.483791930828533
Ag 6.364667860048262 3.806201732695727 2.12242300002921
Ag 5.20040598059985 8.937276940040388 10.259212041460454
Ag 8.19854718339366 8.494212732635198 5.120016050360888
Ag 8.565509893042485 10.013801838590393 7.733232009545972
Ag 6.170902591414203 11.118567415042948 8.720132654346656
Ag 7.2762758110239725 6.18033907623095 3.6221872764994987
Ag 4.118189339420987 4.1837121079653095 3.9434589246565532
Ag 3.084628787917086 4.99498391139841 6.528892179174082
Ag 4.32574586237328 7.4051681364911355 8.003985250224728
Ag 2.560569790847503 5.587816172557615 9.23788313088249
Ag 5.361800808731067 6.63847040071397 5.5106138128425615
Ag 9.231271188429417 7.603297909429381 2.3431892503598926
Ag 8.311881182957713 10.267832874947674 2.960263171082237
Ag 2.4018759468896533 8.277663660319478 9.800988492736305
Ag 5.971970705624172 9.274554417071919 6.69849019861946
Ag 7.29854724734892 6.013460048872546 0.7919373746428588
Ag 7.623143208916816 11.29537674863027 5.519119481602076
Ag 4.782186294281082 6.223758856133334 2.200985824009602
Ag 3.5653136614799354 10.152857159670102 8.06119694077328
Ag 2.8130849391140123 6.678374858973035 4.298047919221877
Ag 6.491466914033238 8.432468984192447 1.9094590713190573
Ag 1.7598594241429932 7.550575744388897 7.035477011260676
Ag 5.706847447391435 10.035075867212106 4.0112896873613035
Ag 3.461772697710888 9.136495808974304 5.453154792535206
Ag 3.7094237914152735 8.767055725910888 2.6213061763081473
