43
Energy = -92.75776943 eV
Ag 10.50126078073215 11.12716790480839 3.8119397835132682
Ag 11.515321460782836 10.736025660570448 6.4365452111344865
Ag 8.666241807697832 10.89982390117855 5.84557947664709
Ag 7.664804278627256 11.725784855701338 3.4063773418146543
Ag 10.494974263480112 8.51516239990653 5.157153778890046
Ag 7.503852925561526 8.318664702726942 5.892410553079374
Ag 8.642680378902952 9.116877209696181 3.2146130027214848
Ag 9.506346888684243 9.473787350783244 8.059625035132472
Ag 5.87852017408542 11.278779816980341 5.606592799274078
Ag 11.931575791916954 8.134643691202925 7.537050465231268
Ag 5.951305210085059 9.407494950439725 3.5863990707160878
Ag 9.896041223722937 6.654306195706488 3.099164595778464
Ag 5.124054184340145 7.733837756631239 7.281636583719399
Ag 8.659016561948828 4.703414414776578 4.593577642054031
Ag 3.499523149304631 10.03684064002784 4.714032434176007
Ag 11.240262937354279 5.61083647945553 5.394674613304437
Ag 6.851772098633165 10.208539765457388 8.03157641702023
Ag 7.04162191799508 6.741848583828926 3.607658459235921
Ag 7.980235537269559 9.261442123220272 10.607857881189446
Ag 9.203481617295047 4.981720068440215 9.728798046764629
Ag 9.535250251993338 3.8665673349607563 7.139894718832266
Ag 2.727904536013954 4.221385923002032 8.979253471734127
Ag 4.853713690905256 2.8906814331904505 10.228519955746274
Ag 3.9028428141752336 5.381173895727554 11.3722576904481
Ag 3.0155217133759282 7.086318833628289 9.0451334173899
Ag 4.799193619367505 3.2020305256472303 7.258417564185526
Ag 5.308691757665435 5.431737954913312 9.048936125471759
Ag 3.4611459494827437 5.522056109272495 6.561201788407517
Ag 6.876279418932216 4.546131204636604 11.277562829247383
Ag 6.020188604615023 7.194634968721175 11.493954051899248
Ag 7.253834398879596 3.2543813463149536 8.75493790740997
Ag 2.460328638032736 8.132200146289623 6.454571767179603
Ag 5.407887760243331 4.567758298632045 4.650927252893722
Ag 4.018816990824424 10.296287197049551 7.473442454054971
Ag 6.926299040903122 5.5202684620994855 6.734771928104943
Ag 5.030954333543685 9.053571831465678 9.776508045208518
Ag 7.202425439296542 2.7478601981757054 5.961251536381235
Ag 7.4236672414527405 7.278712211228362 8.90067955615249
Ag 4.443838482456654 7.280337527182612 4.558660807897955
Ag 8.68806867242392 6.707578951685386 11.927611190931392
Ag 10.336789640268858 7.542104198318697 9.855492070180233
Ag 11.607902910809969 5.417665462523481 8.309680434427634
Ag 9.470788924261711 6.716785532137574 7.148298262760496
