41
Energy = -87.87589233 eV
Ag 12.043597765365199 8.101774632170095 6.964738615641955
Ag 9.979655616614565 8.669706564479995 8.77342781404579
Ag 7.8252532357155005 9.16891427322224 10.507871107200241
Ag 10.737986094008127 5.961647843065095 8.16192504421358
Ag 5.31071800727379 8.441131945054797 11.684992865206295
Ag 8.597034127148964 6.484317199226323 10.02047142539738
Ag 6.016150611896993 5.770699269571296 11.13135817663892
Ag 9.284438452659302 3.8837189155932377 9.257583435167257
Ag 6.950458565244954 3.169927290162213 10.586307326136362
Ag 9.66538362772763 9.285921400171441 5.965703380975822
Ag 10.399347673300179 6.5129180804375935 5.372228658138734
Ag 7.544346887571789 9.915880782217172 7.798751014602509
Ag 5.344856323169757 10.347195083635901 9.577123532759257
Ag 2.8814550789748004 9.560672359699705 10.645205497480665
Ag 8.170941382087905 7.094757347267788 7.2135560615522865
Ag 9.005947964802916 4.314822832790218 6.530073470963963
Ag 6.028265958923002 7.634835534751192 9.032704912603355
Ag 3.520792636765395 6.852619886810839 10.150851345672809
Ag 6.620053755993511 4.928455437403742 8.484344955064287
Ag 7.353835266156563 2.3033602012614574 7.838490930887754
Ag 7.091370596816425 2.8164096414929114 5.058351788998012
Ag 6.363042752729033 5.522696006285052 5.69298329553758
Ag 8.50227677997668 4.975185199167145 3.845652317481131
Ag 5.001046507028815 10.889876021852535 6.83104736838674
Ag 5.650812738671373 8.2254037886697 6.251648950243019
Ag 7.795462735838208 7.709920225413372 4.440885537465635
Ag 7.12470760012029 10.440006289031865 5.048087298558866
Ag 9.859396828896664 7.166182807308241 2.6865184164346485
Ag 9.184738336860798 9.851855507662655 3.222011751213421
Ag 5.619412696851487 0.7659185564108534 6.246132935205868
Ag 3.4730624459517125 8.775030882089139 8.047272160356433
Ag 4.820490885267218 3.3565989387851793 6.921167829468388
Ag 4.132068685754145 6.0214405791905 7.517099378181885
Ag 5.7929223477673135 4.452185435146191 3.0856884047588293
Ag 4.355390748446286 9.851335100922514 4.259490633882591
Ag 4.373739342421893 2.3634466481174328 4.303165241149058
Ag 2.9635560617403707 7.689406625609983 5.48259598431936
Ag 4.950549534912729 7.171863213816312 3.5473371273567724
Ag 7.1615034945155145 6.628014480046073 1.9014544523692856
Ag 6.437284419293401 9.343138272339488 2.459970380327351
Ag 3.6260387151685896 4.9991154011525865 4.911888606859913
