41
Energy = -87.35148109 eV
Ag 7.851635955630122 2.5018591442622204 7.249867677391656
Ag 10.159413748981613 1.8708845103992229 8.721750914796862
Ag 8.116254437220189 3.7341925077038507 4.5017262885305
Ag 10.34812169309876 3.262501479340756 6.395288696374602
Ag 5.554874986628003 3.5096068579718303 6.169287844217953
Ag 6.26557591365203 4.175250404648295 8.81884368150894
Ag 9.068396818627074 4.455639528237767 8.85170010221122
Ag 7.676407352137743 5.476748378966323 6.5078069284647695
Ag 11.553032754253628 5.300434769658035 7.97139896539428
Ag 3.2483809399493726 4.750089176669745 5.300644663034086
Ag 7.5620662362541315 5.508842377979117 10.976079270609219
Ag 8.19494572028828 6.5907743710617295 3.8077658137238415
Ag 10.327432432510271 6.379267158907772 10.34826615900529
Ag 3.6336157498165846 4.751915307146396 8.042967388973087
Ag 5.739384900823073 5.221398250589097 3.9713726310629687
Ag 10.368767462903612 5.727182725889368 5.3257449512068815
Ag 9.737066756143717 7.351879269642022 7.637068082765008
Ag 7.017173454239892 7.052948503027295 8.684156420499063
Ag 10.044183226000861 8.437635224734528 4.908149047957938
Ag 3.5827064178463655 7.139663715898858 3.9651094169419276
Ag 10.676382089300555 8.309355594560126 12.319637201620772
Ag 11.056390317914964 9.87128897109861 7.071619541827252
Ag 5.114619862311046 6.760833068072206 6.41334893094047
Ag 5.928719976455965 7.606620778391148 2.5175025550775447
Ag 8.781850943020101 10.8731601768502 5.686832090935953
Ag 4.494664325230903 5.098280164666685 10.714815249866637
Ag 2.39373372377015 9.439108744541894 5.015058639090548
Ag 7.410577551810916 8.355879879803764 6.1644406936811125
Ag 5.907120688898335 9.563906642235617 9.324650153693543
Ag 10.845594393759702 9.07850821635639 9.701851651184281
Ag 8.325945063267394 8.383203460065545 10.778415034643922
Ag 2.3817656097217585 7.103669798337722 6.695853150155414
Ag 7.79535488912228 9.424374874062224 3.4775977991032687
Ag 3.978368604495614 7.354526694975843 9.081585256780484
Ag 6.519637041939567 11.864231454563045 4.296121159456458
Ag 5.190034066419973 9.387976854403131 4.592086462529224
Ag 4.029581245352707 9.421455850132695 7.248028434379822
Ag 8.50307296954241 9.911346237779945 8.345903565982475
Ag 5.680432583957668 7.567616880024488 11.25481131828181
Ag 6.303979734935911 11.05012623150962 6.985338483254551
Ag 4.008511901721134 11.751590304788929 5.535282222798245
