49
Energy = -106.62753037 eV
Ag 8.534704889106132 1.0533444515399426 10.675033891110827
Ag 8.17881862163116 2.1530785876836287 8.1338150708637
Ag 9.773861360528059 3.4732150805431936 10.051187624076675
Ag 9.858549866566811 4.5339806505055975 7.409231972838151
Ag 5.569160372088942 2.1824843507531333 6.868917665747811
Ag 11.076687139909026 5.906777542488565 9.473442394306527
Ag 5.995555787111914 1.1253634556032381 9.478700694959587
Ag 9.856779489761967 5.4254823445762375 4.651355540343669
Ag 11.121528208230007 6.926007316947738 6.748164637186035
Ag 7.8408296656036525 3.570193812612776 5.775385624091075
Ag 7.025582784833791 3.396849445284121 10.932573631405836
Ag 10.951817183363666 7.924913792541984 4.088600824797546
Ag 7.263613725865277 4.837068573797662 8.483662478536429
Ag 9.408510936582537 10.251061374624978 3.596455694041338
Ag 8.527801831342742 5.84906912319476 10.875960700911714
Ag 6.2749488667734425 2.233658889881004 3.994169022147312
Ag 3.669162638267024 2.571757370707222 4.841895900217695
Ag 8.903079836193742 7.376759487640117 8.517185104466298
Ag 7.652088567407674 6.376600715466379 6.114456545911727
Ag 7.4765162082199526 4.849813840634343 3.3039043263633245
Ag 4.741442532628559 3.616375379890807 9.225534300158108
Ag 8.043539149815647 7.7024215970603285 3.645792672431047
Ag 9.742797888904592 6.389025389955776 1.9874538349059925
Ag 9.200498683413779 8.89709835036059 6.087203484472659
Ag 5.679073254262979 5.901969905831183 10.634472223188595
Ag 8.404595290415845 8.997327380024728 1.2409995163918865
Ag 5.1252099768149915 5.082763899834041 6.617970928173219
Ag 4.732901119448237 4.279981183867396 2.868703216642932
Ag 5.9961845298517815 7.422400466883459 8.137922579941264
Ag 2.786089582873473 3.7689988410672126 7.201769881453331
Ag 7.680297446029531 11.284539538557413 5.578922519470294
Ag 5.464112219357184 6.616656767236018 4.224410698690471
Ag 7.194213475439571 8.349649504020377 10.582387305608174
Ag 6.297933177720851 8.889892551383118 5.665954332571196
Ag 7.424403477215809 9.864042164582964 8.131202738763845
Ag 3.434540229626276 6.103871933026222 8.839713825150945
Ag 5.834560839149232 7.9275355496782876 1.7567721545804784
Ag 2.845921337671286 5.258124278163078 4.7369875795698135
Ag 4.388036614399588 8.462901056475673 10.13596156090148
Ag 6.627320435487295 10.256263528607786 3.114313014738891
Ag 3.769778333099434 7.628448256568006 6.262168408229677
Ag 4.600870601425455 10.038245016185716 7.71908445927836
Ag 3.357231095683366 6.719164481984071 2.3631812045882024
Ag 1.4026875077031378 6.3083871887842395 6.907631698042179
Ag 4.0024635777445825 9.171802262530337 3.602956153009251
Ag 4.9142204617610235 11.33488147057503 5.1406060772267494
Ag 2.191655192503054 8.662004816630143 8.337324356130772
Ag 1.6578024775260405 7.8321816526669386 4.361986556989767
Ag 2.4542744444645335 10.142505042445878 5.81425195905115
