40
Energy = -85.80169262 eV
Ag 0.7531197280775008 5.5644760077244895 5.41929543007464
Ag 2.4379754887895237 6.589102170945273 7.449449365239333
Ag 2.7090129571817907 8.881791580807612 5.703260974359391
Ag 4.050591498748625 5.113189735360817 9.44360290829631
Ag 4.414631124777333 7.878854429118834 8.78364338005581
Ag 4.6745716402233395 10.337431864812652 7.509559743135961
Ag 2.279144368421113 3.7907401327380237 3.8820735328363587
Ag 1.4629322125902553 7.529579439390061 3.506762608040216
Ag 6.325054742987593 6.773700882833589 10.455476897836254
Ag 4.258508700341447 8.324886869411879 3.2108281474007456
Ag 6.675387052957168 9.429388862614145 9.313384541049947
Ag 5.170792431203667 10.49870512932435 4.782960226362117
Ag 2.7009094861721694 3.892687158296536 6.77342675984253
Ag 4.057522306113257 2.0031361630966793 5.219183291919909
Ag 5.024494026494447 2.643166546646817 7.8175887214833635
Ag 6.824905763472449 4.317964529899339 9.149831394812336
Ag 3.4589942472897293 6.1311103263217115 4.881956062462723
Ag 5.163933140555018 5.349187230979867 6.982711109238979
Ag 5.262829623251804 7.989836498558595 6.011401948007144
Ag 8.583343196867967 8.412275229017942 11.10042015989499
Ag 3.304059240521206 5.833794003341019 2.140076351831347
Ag 7.926002775251969 2.1022266400548597 7.697025047565565
Ag 6.61478476433798 3.1057166120441355 5.515064322006254
Ag 5.005813794572223 4.041513153721569 3.460252317202332
Ag 7.267795996281846 7.060436357680335 7.733703202085315
Ag 9.001513780424036 6.005269261302193 9.704985294052824
Ag 7.370452348515094 9.804506439076338 6.5460340861539965
Ag 6.9429929711556495 5.923039343836482 4.94427792770902
Ag 8.676311900848585 4.691088697509979 7.076109164773542
Ag 6.122047874077178 6.3727161064752185 2.278255201047577
Ag 7.074409555821129 8.6028218294096 3.80281758133285
Ag 11.179436544995468 7.68276909297255 10.157442403096013
Ag 9.325735414709136 8.862037615557437 8.388713157124954
Ag 9.331431531287906 2.828975352278381 5.04811732949874
Ag 7.717649969239317 3.987007503576724 3.012537481236789
Ag 10.728985039827736 6.55502793760272 7.585711092193434
Ag 9.117053186014754 7.829417456234426 5.616861270101178
Ag 8.915378566852755 6.567220926760158 2.97590401462589
Ag 10.421250223529665 5.437631216745698 5.0205859338332415
Ag 10.409395788548853 4.036736122757866 2.6468048812922356
