46
Energy = -98.98315368 eV
Ag 9.26379512895751 5.133131113093841 2.3549010031498083
Ag 7.39434080959419 3.650510405823345 3.887890575123956
Ag 9.770481069349357 4.555246264661095 5.046989141222937
Ag 7.430666459847301 1.6718962586134334 5.9072699087059055
Ag 10.27407166789175 7.2529379601600645 3.9708801110817356
Ag 8.804140377123309 7.861435487412075 1.6339814324299111
Ag 4.9247294032422735 4.5384473273471775 2.998726328477334
Ag 5.0140040754603525 2.9963505996669784 5.376967684903576
Ag 7.849435707007934 2.2220021684931313 8.63166414353322
Ag 4.332325970572148 7.224187663988201 2.861102498939495
Ag 9.816140123738268 4.152891938090274 7.887514217299594
Ag 7.07456629902083 6.478489218257967 3.4338640600274957
Ag 2.704933481100952 4.477103268085946 4.85758963842323
Ag 5.284281677528388 1.502680683765265 7.752751776602981
Ag 11.120997144982244 6.44924279984299 6.616045784008036
Ag 5.091101807185664 5.988992709462933 5.452937765792924
Ag 8.787905256402075 9.655384725859344 3.7547908065674687
Ag 6.361532142577448 9.035710876943977 2.4135846136409174
Ag 7.331879941371445 4.365219132886963 6.630296570975285
Ag 8.446382989888962 6.946368680607607 6.007043440919225
Ag 2.4245520796566282 7.299646982418921 4.854437153792752
Ag 5.5670637684551805 2.744099322617356 10.283243553459029
Ag 2.8007760356479388 2.9221740375486855 7.200988893049105
Ag 5.023346564645742 4.501505584467853 8.087611223534404
Ag 9.257744670237624 6.777407104378141 8.706083276514276
Ag 6.4828942506886085 8.692674034355651 5.312183296172118
Ag 6.414833847969463 11.33612637626422 3.9358464605256955
Ag 4.056138064852816 9.59583492611019 4.291379876092305
Ag 3.186299749642006 1.4939845957010613 9.562284501703797
Ag 7.5281918078592724 4.7971315869829585 9.572063010509847
Ag 3.929109667992863 8.425637641802028 6.907271400530638
Ag 10.221970119947448 9.173299067112211 6.197724396114287
Ag 6.338026994840954 6.98157485911918 7.757144936878509
Ag 2.6651303947789047 5.830312270055361 7.31708537006488
Ag 2.9962931085487146 4.307769403137098 9.877100232675122
Ag 5.3463154757759055 10.910054989442829 6.521233513728226
Ag 5.3692365481141 5.366575593111618 11.224152834413164
Ag 8.296296999110671 11.330591425676403 5.9284373469660565
Ag 8.019548360986642 9.251681592932922 7.935951732839204
Ag 10.054602687160843 9.109826846621587 9.90031408213275
Ag 7.047105049586125 7.552045923252787 10.404399498069296
Ag 4.105354800797016 7.025395436218488 9.419505965338562
Ag 9.942966441498838 11.291991827479738 8.157983491040381
Ag 5.431198805042623 9.525681128834451 9.013562198284339
Ag 7.102465398377045 11.938128506686102 8.391914331597818
Ag 7.673084661499671 10.313760005918281 10.581553382452723
