42
Energy = -89.6602522 eV
Ag 8.793177032174455 6.412046353479871 4.16609372645096
Ag 10.201245875767489 8.706678779092954 5.1439221953058345
Ag 10.451858411681524 6.1494224919154545 6.400033567955857
Ag 9.070855937321443 3.7989097246190298 5.2344593117281635
Ag 10.683944654569247 3.6612899094950215 7.533842468012239
Ag 8.715037352214594 8.916946772798052 2.703870351781852
Ag 6.97808312544505 4.366265152271905 3.4433303269138538
Ag 10.310526843428319 8.529348677039321 7.997365231728087
Ag 10.078275034443465 5.968879458129771 9.317730431856218
Ag 7.795042469037326 6.392047329154997 1.624158077023985
Ag 6.033136409101258 5.955663178202101 5.615771325791114
Ag 8.956089246861431 3.3136275639582253 9.696950048113045
Ag 9.97020133228907 10.986156191231592 6.727220629640555
Ag 7.77323002925035 10.259900554269542 5.137282725965605
Ag 6.263633819479826 8.632179708669396 1.1277067059240808
Ag 8.380138895548884 2.0046051897462207 7.3107908415014125
Ag 10.022470868905451 8.594329718538921 10.743409167458202
Ag 7.932741320510966 7.721115311226118 6.51743964378171
Ag 6.282535309152283 3.12024100506118 5.86955523050152
Ag 7.958504907632664 5.00599544629126 7.608084015620631
Ag 5.077591294438274 6.1484057945590465 2.37952703663091
Ag 7.87871177416695 7.645219799837263 9.323554741545905
Ag 6.3090964202778235 8.253386820555358 3.8468141027121634
Ag 3.713124427529505 8.544986736858913 2.1740924720410364
Ag 9.485787696961948 10.804860967270644 12.198943944088867
Ag 2.3221315430175884 5.9123975649012115 2.878833865837434
Ag 4.147837561037431 4.332571993967389 4.350197013086384
Ag 6.155308755876279 3.059528115009577 8.770688165185618
Ag 7.546430830331678 10.202901228341409 7.98156795609562
Ag 5.5441248179182 6.60636195777305 8.28859678772997
Ag 7.110359599191011 5.168048575529189 10.4113654592521
Ag 3.7706876022954092 7.4347051855941135 4.705974402268983
Ag 5.4056237819149064 9.034705706343848 6.371176542246343
Ag 7.311121372335825 9.856640187393147 10.891175448004399
Ag 4.087819819876699 4.306526801895776 7.2372627849016355
Ag 2.010938735669794 5.6047369020897095 5.780129382849464
Ag 5.105102016089056 9.323390539462729 9.116917550524
Ag 3.099939468622188 7.819875962645717 7.367606872965964
Ag 4.298376281494043 4.845004587513282 10.061838431123258
Ag 5.729948690382602 7.455314152514418 11.157925405061437
Ag 1.9190028009564621 5.52518277969093 8.549802643442748
Ag 3.16317524322389 7.462568533487356 10.079962377775331
