48
Energy = -104.278193 eV
Ag 2.5642994417154434 7.288795825866263 3.6585879517245337
Ag 5.1225833280975435 6.392141113664827 2.4219021247126826
Ag 0.7167936813471528 7.973136434036918 5.662859616567372
Ag 5.331373850415092 3.759215971790824 1.4823414490579152
Ag 3.2419494833431033 4.487847177860016 3.4246901454331886
Ag 1.9035187018982616 5.383690974896534 5.817376954575256
Ag 1.446526618895517 9.88924607209333 7.601956228885159
Ag 3.341775638835449 8.99142748224111 5.826517576586152
Ag 7.659019448167933 7.639969171127081 2.3231882746533716
Ag 5.225760678353981 8.755714076652913 3.841327614109523
Ag 4.634563765580036 1.9537717651066988 3.5942945054416415
Ag 4.092764263591825 3.378037418291382 5.915089954789262
Ag 7.998711962253973 4.9178485084617805 2.099541474950911
Ag 4.1841668116882875 10.912216881006866 7.735789339738317
Ag 7.21282097733822 7.07439140525554 4.9819824761420675
Ag 6.348618822899066 9.637758360660136 6.3749131522940115
Ag 4.493033965362099 6.32839122651807 5.41213120103161
Ag 1.9893991256053356 7.135439329681324 8.015645392647954
Ag 7.764810342568844 9.889370452742773 3.908721478598797
Ag 7.358532567418316 2.2356346598669594 2.845401979116113
Ag 6.726706380322623 11.995653060030284 8.010460650102017
Ag 6.103780269570308 4.4101827305620835 4.106616419310418
Ag 8.577631482553988 11.497695560722125 5.962515826738329
Ag 3.2957710060544154 9.116863575034506 9.603601931984098
Ag 9.849109051737734 6.361642845340166 3.721509272426237
Ag 8.864526540354717 3.7494764082331575 4.61406982238259
Ag 4.868099092272997 7.5257567318333205 7.9226478472072355
Ag 6.6930477086997575 2.204483698101339 5.699810684861743
Ag 8.763550500088044 10.048649782772141 8.325809152708928
Ag 3.704208647434627 4.9034721712917815 8.121139200984105
Ag 6.155619068622572 9.555027229966274 9.36219673189444
Ag 9.391410291857657 5.791824935287261 6.435402133266885
Ag 3.5942664402429103 6.466518016772911 10.354430103204843
Ag 9.447446486940825 8.727540626230835 5.812697023744914
Ag 6.566845985561869 5.045486615930937 6.863163966018035
Ag 7.648541708333692 7.488874192461742 7.813566245548433
Ag 11.814202320917644 7.078857381374629 5.886661421957732
Ag 5.714333013991498 2.794764885821994 8.263721440369364
Ag 8.632599495820706 3.241534517375707 7.576736347882515
Ag 11.497471235537967 4.4196086066178735 5.174714558067879
Ag 8.44036363516552 8.075155310623215 10.36200907916275
Ag 6.3726570740938016 6.055455902274067 9.930846655441913
Ag 4.7311240103801415 3.904082028390794 10.624763284630216
Ag 10.49340967474865 7.739444550056203 8.295164476297282
Ag 11.53606500591695 4.926862186507909 7.977584483017193
Ag 10.360101309731482 3.10389559528565 9.751466199418626
Ag 7.5392708954846865 3.4054069348451117 10.281715548472732
Ag 9.091736697364974 5.50795236157732 9.359196221825318
