44
Energy = -95.52267545 eV
Ag 8.7872430384194 3.9087187249194852 4.918945278767386
Ag 6.337024661324856 8.154039070067336 3.51122499264819
Ag 1.7132612651633 7.174065044689159 5.091214640154574
Ag 8.602846091710987 11.42784679215944 6.430672609986594
Ag 8.81980833950878 6.518255669436531 9.357407684708674
Ag 4.152795016944335 3.7949204398913374 5.024218272108087
Ag 1.8003473312878056 4.65921137203334 6.525456865925573
Ag 4.042326076811897 11.319251166665007 6.514951256625386
Ag 6.457289419047132 3.094619361861038 3.556631885357433
Ag 6.311171346605441 10.592603630566098 4.971860516725578
Ag 4.096781318299468 8.91139980044254 8.020566989677715
Ag 8.686412317240665 4.061137679367907 2.0861771132246965
Ag 6.556883047454765 5.627258918854673 10.77518297501051
Ag 6.399668889991405 8.100763543037164 6.44576486837103
Ag 4.215162439488165 3.772399356455257 7.90641617293
Ag 4.0576372767467115 6.455278852849444 3.510011964775626
Ag 1.7785709310008764 9.566721518509281 6.553118929546841
Ag 6.462349356387179 8.107192535217752 9.382413099019104
Ag 11.157434486435779 4.887159178178431 6.315771886210731
Ag 8.663207967822578 9.046019740534831 4.889924602175158
Ag 11.126470466720116 7.378089514777455 7.7918377379567865
Ag 6.489768719927367 5.586641628776865 7.87856568370087
Ag 4.108303774146309 6.375806830481199 6.4782306903999
Ag 8.770032623122377 6.486207232454326 6.389458780506791
Ag 6.372081031412464 10.567555158077747 7.956985978434409
Ag 6.520078192107582 3.0519577600869545 6.405841189993008
Ag 4.0300013274161 8.936523981575043 4.972073403253022
Ag 1.7766039307826758 7.152683990500369 7.981680884818562
Ag 8.878354541503668 3.987260580807015 10.636659425001588
Ag 8.726659107113864 9.020766114976219 7.935187588854298
Ag 6.427506585055582 5.610241092790975 4.97512176038775
Ag 8.851453425416588 3.883563012868083 7.800187311008325
Ag 10.948813333055675 9.789725061526537 6.375750280485052
Ag 6.366245725880949 5.694849407076484 2.080102473869119
Ag 8.690061614053652 6.568616923648397 3.4212768177042214
Ag 4.188475251357662 6.410490237873333 9.446992153589907
Ag 4.124311163120543 3.9498766637050076 2.1871338520749477
Ag 1.832249634838812 4.729145951996626 3.7248899128217348
Ag 11.000710113285345 4.962827167528032 3.5184702852960124
Ag 11.064059236987704 7.403923630095895 4.90299464343042
Ag 6.5836669276906274 3.0492774257494943 9.255590895163643
Ag 11.126336443908404 4.91027254298679 9.117439380210367
Ag 1.9567373165959165 4.694508697072299 9.324556417424644
Ag 4.315276564478069 3.8912783868263547 10.742695176425137
