41
Energy = -87.69173931 eV
Ag 8.174837008077054 1.5922393517950602 10.126720163395916
Ag 7.428133964425266 3.2184529370283523 6.051682733065631
Ag 4.717829510944113 3.8127787881947066 6.527774586395677
Ag 6.219084432105822 2.527733195786237 8.458063671501277
Ag 7.386928934545024 5.204379914270037 4.067834836184498
Ag 6.94328422646927 4.033407410567182 10.659291739390362
Ag 8.887071082580466 3.760652526920058 8.530220642967365
Ag 9.221612258626477 5.344468741892004 6.217399505220356
Ag 8.447066570953329 5.56631898761106 1.4225877513921183
Ag 5.676743633307158 5.843118376968101 1.9136321993626384
Ag 6.730395048005445 5.530949390316152 7.822214298276924
Ag 4.025280385888555 6.495161222211663 7.049660457135928
Ag 4.496378010105407 5.636068139093028 4.4432612950679875
Ag 9.898067853511067 6.343466329638124 3.6981082423711857
Ag 4.436891493696087 4.684373235611674 9.256562649576832
Ag 5.572491350321596 3.1585372249371892 3.8766811219169552
Ag 2.9602407930781736 6.590340333087461 2.2939889092634798
Ag 5.951507993848469 6.608099494346785 10.62466664876798
Ag 8.682892027929313 6.149310397080056 10.124544498018468
Ag 10.88982189020119 5.894738707432626 8.43863146823963
Ag 6.583676150312093 7.5007909283916945 5.70132572463312
Ag 8.621971149770959 7.724415340310529 7.755550453845672
Ag 5.0430315286174014 9.265763874573972 10.943982689516378
Ag 4.882213894209418 8.25484756301407 3.384014339725055
Ag 5.8277996027544114 8.416540316791721 8.348035092901107
Ag 3.4003870897548985 7.358007690827525 9.656817547125549
Ag 7.575587284745251 7.776848385289859 2.8370360882538765
Ag 11.234446886078794 7.262234899726705 5.972351755122393
Ag 2.605226358091638 7.658985433905783 4.873029718187738
Ag 7.768553058408829 8.818430509414496 10.420629354021255
Ag 10.451896222261256 8.438445091909934 9.787791944296842
Ag 6.734286525857862 10.068031281770923 4.309175227888332
Ag 12.622703435152232 8.255116528409971 8.122218240910497
Ag 9.115011460148487 8.769399842891387 4.987174747242613
Ag 4.556835554971199 9.53775972806966 6.064519611445954
Ag 7.607988034875424 10.268150516403093 6.9236374447504705
Ag 6.391180342668339 11.143261578244337 9.303923450703854
Ag 10.57508668218388 9.832987526886308 7.113151960238297
Ag 2.2252413921340146 8.641335945433203 7.430504296270449
Ag 3.783191551831833 10.446141687193597 8.71924059550528
Ag 9.16153863172354 10.922631475508915 9.215187445071614
