42
Energy = -90.58079004 eV
Ag 8.134618677000807 8.305399209324522 10.702917513879742
Ag 8.833551952182068 5.851100371667594 9.461481586512551
Ag 9.228027685377734 8.48658320982889 8.186701784600492
Ag 6.487097156417885 6.021233913393577 11.118593538195025
Ag 6.78616025529126 10.020572576586702 8.84282826008052
Ag 10.289789981874824 3.677367659812795 8.395399757474982
Ag 10.400366587593295 6.166119493877816 7.038077163232203
Ag 10.261004248909035 8.602193454963619 5.56571089850061
Ag 5.292778676772787 8.582365949221488 10.848848166522881
Ag 6.041949447860735 4.210782884936868 9.135458485239088
Ag 5.236009702759137 11.012046735467395 6.691942276824815
Ag 6.490260409077361 7.2387740098003155 8.528083382550381
Ag 10.991740311362092 6.166729881091864 4.30287657213595
Ag 10.525034614362946 3.6947788339247087 5.569225345015752
Ag 4.051681672330598 6.296111129571364 9.630647710022147
Ag 10.114208028063464 1.281132643864692 6.92892744289891
Ag 7.841831416486001 7.163679634910174 6.0169123924246275
Ag 5.253832952082949 8.262552070757815 6.029639368488206
Ag 8.00852564575344 4.50675773302636 7.066327385733577
Ag 7.8913877795473475 10.074442935765836 6.254080730808783
Ag 7.88209422998093 2.0076161134218204 8.374030128747085
Ag 9.090016310994502 10.460664989413036 3.763477016653725
Ag 8.74399140624706 7.649344172983954 3.3553172680234873
Ag 4.046977519751186 9.028919951115174 8.456608987509775
Ag 6.513659524412089 9.340056958656895 3.6058623575640727
Ag 8.423259826967701 4.9297929940540595 4.1884814352132995
Ag 3.3797387938212484 4.155397847804369 7.9128844774069504
Ag 4.24982429772279 10.988629102938143 4.105293892284441
Ag 7.9809254917894945 2.2046094542698635 5.385731390051049
Ag 2.8986697452657846 6.855261274650938 7.092267210711095
Ag 5.468184674856114 5.502154699915644 6.514677664786093
Ag 6.7937368432377445 11.990171150388122 4.488680737918514
Ag 5.600769652420645 2.581884986348997 6.944170240008233
Ag 2.73798007964654 9.57000195061395 5.958433327797179
Ag 3.819440681025188 8.264621435399581 3.5716397653814247
Ag 6.1144985918110715 6.541991649371768 3.714925603320603
Ag 5.860394590513609 3.7958937128324965 4.252579323178423
Ag 1.39126116364249 4.76745194048045 5.963238828297127
Ag 5.505253081950712 1.0572889177434837 4.644890530581537
Ag 1.4486565080076794 7.314872757262716 4.7493089980038565
Ag 3.580127491146354 5.5521492237736165 4.375260416679449
Ag 3.380123086729062 2.889941177813247 5.337001431787081
