40
Energy = -85.65621183 eV
Ag 3.0012045531516915 7.442852790572502 4.693626920916053
Ag 6.450718533567255 10.886060276364827 7.5911764400769535
Ag 4.506875084725541 9.471916817589115 6.082823305861076
Ag 0.7924607678705167 6.257961404937644 6.0426415624979315
Ag 2.91781872088607 7.658658224115269 7.51103529015862
Ag 7.039020912809802 10.200359318575249 4.935444310575214
Ag 1.8826735005428357 4.8289520326760345 3.8390081709009842
Ag 4.7500689222242425 9.181829668190133 9.02318964442558
Ag 4.63051594139288 5.295604686494772 3.6601560341329678
Ag 5.547793190802817 8.005956684793276 3.9123942134564516
Ag 7.861509006333409 8.878807708741197 2.5713307213475542
Ag 7.6334710986831915 9.305713974157971 9.679629470699815
Ag 9.002929156051133 9.862625462012291 6.974270925011237
Ag 3.449189575618995 5.126975632139835 6.270915759796143
Ag 3.243063506859331 7.08726779308349 10.18971558444929
Ag 6.75388267143091 8.075394019575082 7.355402530730246
Ag 10.182378967212468 9.447014293586323 4.372046590186407
Ag 1.0339772833496848 3.4891983475928017 6.131902968397316
Ag 1.7061977276124274 5.221631890699531 8.483458435475928
Ag 6.349774711505405 5.710652620264982 5.969630632455631
Ag 10.363533372906197 8.869033367287845 9.171184853839415
Ag 11.693000637240146 9.100758563687098 6.72678736756051
Ag 9.849592615438059 6.917815741389035 2.7839404218391612
Ag 8.234181947998804 7.601753994864005 5.002237791761134
Ag 6.075349732005464 6.981018947182048 10.17971282110362
Ag 3.734822201194997 2.798641982080713 4.867808553048873
Ag 4.491940665771133 4.987489212284193 8.937667945988593
Ag 2.996756580090624 2.7436586025970398 7.847495547948382
Ag 7.202887983390695 5.943053227191896 2.8843250697668332
Ag 5.621171480095552 3.2432297117578415 7.035638692892299
Ag 6.634556537905866 3.434018876838332 4.38927294931406
Ag 8.92414698630801 6.184318122574171 7.290538330937608
Ag 8.833037543224059 6.736048549501832 10.089105581303523
Ag 11.113957352130187 6.842603587514254 5.297237739732791
Ag 11.624551507521636 6.626763275897489 8.11345866665613
Ag 7.198662012291551 4.635993557546953 9.044496052740291
Ag 9.158627792921575 4.815677850656945 4.537682480826717
Ag 9.965897868046206 4.342222001171752 9.105241050531257
Ag 8.414750973551293 3.3536721446621067 6.809957838671538
Ag 11.070941962340182 4.344686622154842 6.534302316988379
