43
Energy = -92.38600701 eV
Ag 11.9011903111523 8.595096938142808 4.09978016646801
Ag 9.929692489582518 9.434042331761523 5.942628679701699
Ag 9.308938009468852 7.837823730950867 8.185311386738574
Ag 6.763094167276699 8.362476619482626 9.964498140355886
Ag 11.37410504271257 7.054689558045105 6.3392860507595366
Ag 9.274357143509139 8.829216811252877 3.200866953848585
Ag 7.3028880970063055 9.59030155588375 7.4320678623498475
Ag 8.50392174316347 6.074899348580343 10.23640232345378
Ag 7.698118883470138 10.621969598077968 4.7610805271094385
Ag 10.711923793367157 5.488609376170114 8.549614627034241
Ag 4.667723065841459 8.78952932847872 8.088485328483596
Ag 10.359601350772673 6.295919616343223 3.7529668331681516
Ag 4.458928327527772 6.555316348680211 9.818941773575144
Ag 5.1312481449180805 10.131188242413835 5.69824559589417
Ag 7.727355847277459 7.696805874527002 5.338041446728251
Ag 9.974198937893998 4.658116128474923 5.988602602766124
Ag 6.292177912066171 6.387661987337424 11.932318520097631
Ag 6.752228059038574 6.658232903212924 7.795258760766558
Ag 8.305480608287608 4.1873585174841335 8.112175719480675
Ag 5.410086306932307 11.358343708547892 3.2231531221804466
Ag 6.449321017065517 8.821276174444279 2.9925555872862386
Ag 8.825404687374544 3.947953249536379 3.578915493096678
Ag 3.726370586638542 9.083697865827043 3.498390832120422
Ag 6.284920790918276 4.377455378687025 9.989994582144972
Ag 4.884607676619245 7.195658419007222 5.691868999086579
Ag 7.667044385494863 6.34460488795187 2.8198154860874136
Ag 2.5259542412472236 9.117246353501915 6.078609466617509
Ag 8.293422738992465 2.400164704306549 5.945868196038675
Ag 2.6199095106408086 6.851616108185578 7.659244021775295
Ag 4.8147929287891795 6.516995548924679 2.9120202410572285
Ag 6.124268371378158 2.43357439482935 7.817820797126304
Ag 6.89765248177162 4.9253038178437825 5.54323802071281
Ag 6.092616327686295 3.998153178523892 2.9065005513056534
Ag 4.609697531930479 4.871417746174099 7.5299674230549645
Ag 2.364406066653403 6.832616294692405 4.400468616023289
Ag 6.781037508456426 0.13637187584828744 6.343598126561545
Ag 3.995625889289869 2.9438433378273183 9.538259978242873
Ag 0.29067092461129396 7.314275073313014 6.2199479602523065
Ag 3.9843418729285034 4.51109072689632 4.711592714240808
Ag 5.584195034697716 2.2675461452223367 5.071540777663383
Ag 1.5079132324245763 4.784956661107818 6.075450942181204
Ag 3.263283808470661 2.6179084272065425 6.770837961705389
Ag 1.8451442307458317 4.390949021487538 8.739012544119783
