42
Energy = -90.17573301 eV
Ag 4.082522839015607 10.444417119684848 3.851255401433525
Ag 8.172477416051027 10.558598122488277 7.688550396163672
Ag 6.098239470906305 10.275337996332949 5.747228688225952
Ag 4.1504658621378105 8.776875021539995 1.6655947586980446
Ag 6.600035825275267 9.644768904560022 2.856150658351926
Ag 3.6386645292834148 9.120839528338372 6.345853937145266
Ag 8.682738758144097 10.028574701551381 4.814327957797929
Ag 5.600028106777018 9.374860034024461 8.370589953847803
Ag 10.361642335993048 9.811344941821186 9.32758093666516
Ag 2.439967902095585 8.191328843061642 3.9259662445610797
Ag 8.283171848815847 7.523318987321831 3.739398272338889
Ag 3.1294614300606107 7.9082010845161905 8.786233124433666
Ag 5.403049682868771 7.644552045096921 4.465867837066215
Ag 7.773190011858285 8.047713386228482 6.648567558506879
Ag 7.836112218796385 8.6941850410257 9.855522992007833
Ag 10.621165509337713 9.31103833932336 6.623512714981311
Ag 1.4537077917908883 7.399372034902275 6.502852314007188
Ag 10.188680957634908 6.720852838000745 5.5762515482844695
Ag 3.5498898225225592 6.1771672217112235 2.349249807941839
Ag 6.2423774137788515 6.860136912282621 1.8696465336168584
Ag 5.424067090705246 7.170189564299287 10.193184336741192
Ag 10.151942641724176 7.1956104809722605 8.409918374507335
Ag 10.202776554926977 7.718455977993208 11.202919553545392
Ag 3.237997606952214 5.740116785864974 5.160179526065478
Ag 5.212899246637165 6.7418289352657865 7.117468223287904
Ag 7.469342248633866 5.493603464507979 5.724697066883429
Ag 5.409052153873772 4.700717268535636 3.781452673641948
Ag 3.0169808265841205 5.762407609992748 10.595083633317126
Ag 7.548466215730044 5.917086196490574 8.633289347826254
Ag 7.768829052502726 6.383018533277093 11.449744016096817
Ag 8.025490478626987 4.888962277486349 2.967886076727717
Ag 9.955248609930832 4.034526991452723 4.72432072621027
Ag 9.862673261801108 4.591485519504988 7.477009917319317
Ag 2.828849442389046 5.247230300361571 7.852085199834661
Ag 9.970100187771088 5.058407079619388 10.313179523838393
Ag 4.969224921852047 3.8956572372278093 6.443039000217856
Ag 5.121550411118887 4.4488837855906045 9.250742431064587
Ag 7.252825789804359 2.861204377756118 4.971986007372693
Ag 7.185156757774796 3.0033860079302124 7.847119354293035
Ag 7.4940779061782905 3.7599680042672934 10.528308625448243
Ag 9.460624139021602 2.006902918184408 6.532728500008035
Ag 9.628966807190663 2.4487998494536534 9.314921385918138
