43
Energy = -92.54339308 eV
Ag 10.202792113560315 10.450725077064613 10.279056750541637
Ag 7.755056678380265 10.615896835081362 8.887429788472552
Ag 7.9009460460051795 9.79878389452024 11.638561561445547
Ag 6.57186090384655 7.451060471145053 12.310486403091074
Ag 6.349060387497273 12.296002729353374 7.139330276987826
Ag 9.10426226896174 7.877697425485124 9.930011089628161
Ag 10.099325681609505 9.525113216999953 7.650592310452083
Ag 5.425829444061557 9.68190844931463 7.441617114347091
Ag 6.943634610273798 5.875015429184895 10.009644230839223
Ag 6.052467938263287 8.597059974919391 9.863423467325022
Ag 7.909226986251355 10.300795672912347 5.9501182033039575
Ag 4.344095352248795 6.599212684561374 10.681890427582188
Ag 7.8030340671442335 7.839476752114691 7.485368266352423
Ag 5.389077309123626 10.741367589610114 4.893076484258495
Ag 10.419076598052564 6.750580367651473 7.439080350686965
Ag 3.2685788466786145 8.139683285032179 8.472399153732727
Ag 9.474567370482674 5.052727372134533 9.338301774452047
Ag 4.748834497075467 4.160627307586414 9.16400920483402
Ag 6.126183917098119 7.763368571711781 5.211905938035997
Ag 5.3821538282688595 6.558135999100148 7.675448173872198
Ag 2.2576756073025916 5.594527865733497 9.183133694393058
Ag 3.481479973472584 8.647888136381297 5.682331395708023
Ag 9.522589233227833 8.239771167530566 5.131913133736316
Ag 8.169783276650211 5.6432318799636105 5.530510710534187
Ag 7.541074722955969 9.068574039888704 3.2709127294030202
Ag 2.5513870524910582 3.379425224925096 7.580272608129371
Ag 7.234451688298897 4.159292945316567 7.847929170472744
Ag 4.634140370765007 8.902353073258814 3.0026558864320227
Ag 10.93793792387135 5.8507254252921195 4.870248024192061
Ag 2.7609885467184077 6.021610480850867 6.4814667260201135
Ag 9.934254730515319 3.889137498803322 6.805020907405427
Ag 5.5271714610535785 4.958825826007209 5.203888770352685
Ag 3.514868206428779 6.466865920831555 3.8436636901153456
Ag 5.073240942291148 2.6285640983589866 6.789863382745871
Ag 8.876491946712587 6.454448379534874 2.9646945825354347
Ag 6.103542561078266 6.606364164420184 2.5498540390341953
Ag 9.679207802710867 3.6013493608464096 3.8880265901599063
Ag 3.090143279756295 3.7122087909798545 4.811088189833652
Ag 7.631488240858437 2.716421799135225 5.536852855416225
Ag 4.432234063731027 4.291723366236702 2.330356913705271
Ag 7.18377850921298 4.098350956817691 2.824902698146145
Ag 5.355503315780062 2.221233262084352 3.96714551836999
Ag 7.879380571597058 1.4147461036841513 3.0843956852814105
