42
Energy = -90.02600966 eV
Ag 3.2154149338352127 2.7439606654377906 5.227495591934554
Ag 2.102952441314319 4.278494959113463 7.2547849871234416
Ag 1.214604693119234 6.5273025424059785 8.603599931562417
Ag 2.878504660188672 5.644580207640121 4.973477587894237
Ag 4.231091452743726 6.982924293858777 2.8949101874598018
Ag 4.953810118172366 4.078858685205989 7.05021773790859
Ag 3.5438010172086933 4.9008806179975615 9.55433142060345
Ag 6.031869519042211 2.2977359614260613 5.13607702072495
Ag 2.377075945834872 9.056167552016275 7.831054837778721
Ag 4.80224645661268 4.213268934706633 3.4929355035345453
Ag 7.260595405310396 3.132838706435117 2.6773779886077387
Ag 6.21617080555771 4.097014846747907 9.63502997954252
Ag 5.616935793630836 6.344759675127398 5.283767894419738
Ag 3.8154858514703935 8.571679649990571 5.251820956891478
Ag 7.505005283777652 2.8433232836207303 7.460325160134837
Ag 3.131735880731361 7.581001408761239 10.289980321381057
Ag 6.887010164465361 5.937902786111528 2.7736009013035616
Ag 3.7948921223522483 6.7166348617399025 7.447332312036909
Ag 5.766853082288943 7.081643797560105 9.49051831202088
Ag 6.361353160006372 8.665941179976485 3.667665380150165
Ag 7.923953680907947 4.399066792590626 5.076593530083532
Ag 6.15588335226628 8.510188501182682 7.0310861637399045
Ag 8.2344667885598 7.3466145858570755 5.320510807582095
Ag 9.462681910769264 4.817393745820824 2.4534663214082495
Ag 4.345769724487274 10.843742910308015 6.887609278572751
Ag 7.285117948676246 5.806255691277691 7.510952808505854
Ag 6.6762881501351155 10.863178081266662 5.424960510319824
Ag 5.1805521526925205 5.703669389335775 11.752300942863734
Ag 9.080436691952833 7.637463997811961 2.629879951029165
Ag 9.825261559547055 4.475276403808371 7.326777616289518
Ag 4.747274168365215 9.63905141540068 9.328697038959675
Ag 7.87902090410182 6.015264362393404 10.887163060602994
Ag 8.94004421532263 3.56155378505153 9.807226608898599
Ag 8.32952567137241 8.208216963369923 9.005742250298368
Ag 11.669931744255686 6.633019549532779 2.629565975294127
Ag 9.01260339348871 9.712285309986493 6.6167028735659095
Ag 7.005447787651445 10.841749351241823 8.247538236407616
Ag 10.495695016209151 5.638857757592509 4.909115389522138
Ag 10.302074432252128 6.033586966328813 9.635748857120705
Ag 8.777155421458234 10.153662979997144 3.799059873965134
Ag 10.33225235222273 7.308607896998884 7.234101492184203
Ag 10.858191009511522 8.4653758574589 4.6860471158795125
