48
Energy = -104.54913627 eV
Ag 12.41849833261844 5.693327018334782 3.6221390152200534
Ag 10.082663523472654 7.260060362249541 3.916945013046915
Ag 11.329733018017285 5.870632755041958 6.138536583973891
Ag 9.931461363159412 4.437890701460084 3.6423891656043526
Ag 7.896097821654684 9.13408679611108 4.111472682472948
Ag 12.080384859002908 3.3195335172581952 5.090690552361396
Ag 9.432342356682948 8.078813466820705 6.475465886077367
Ag 7.602404270833341 6.08444510947169 3.424769383967005
Ag 6.777433374244042 11.954806067059165 4.924012530927524
Ag 8.520216851265493 5.202255911459067 6.036704131351274
Ag 10.411469832418371 3.469851571084721 7.338706767134276
Ag 9.65114504636519 1.9500719416075034 4.968294298225015
Ag 5.373987007028726 7.708831708532308 3.1865512002224317
Ag 7.5611941924177275 10.130328945922537 6.9210820220469484
Ag 5.5938022408305725 10.49386833097392 2.75190486488373
Ag 7.331054142954373 3.357886203221206 4.042149300245812
Ag 6.733901413212556 7.353463162230569 5.914043873340853
Ag 7.675968096129909 2.587668116502426 6.89317801752478
Ag 9.791544435643704 6.077682855747782 8.479491507705626
Ag 3.9322215323032985 11.975533044059471 4.6042339846083244
Ag 5.0196615711207055 11.679402821920213 7.249005428144472
Ag 5.018412041718225 4.886785536001897 3.3931177725885857
Ag 6.38775987678496 10.584853009003062 9.45035013730765
Ag 5.2821083710322565 9.65237075755886 5.360266681356854
Ag 8.243386781705533 8.427359670705794 9.004384935894326
Ag 3.895426801438017 7.157356355531694 5.729641578217176
Ag 2.722815098926665 6.582196746062897 3.20875720702668
Ag 5.184929030307298 8.431717513800924 8.007432196434605
Ag 5.646922096412655 4.694394982062951 6.135691115034198
Ag 3.0661200465345577 9.37315005040786 3.6642867209404866
Ag 4.779993930170592 2.3799118532620107 4.8599733885601015
Ag 3.4280383162437484 10.273195839218168 9.139873604488766
Ag 2.623851031673798 10.231203744656941 6.390901552783661
Ag 8.139810593865931 6.206775434180101 10.7871463318365
Ag 7.118847665056559 0.6916999749017975 4.982731202940036
Ag 6.883823116524182 5.892552466187442 8.322140191657537
Ag 6.180829622938257 8.19951439078921 10.874189015853874
Ag 5.399659522650155 0.9079279628802261 7.263621010549055
Ag 3.8778232879896115 5.579957364659622 8.175097623986675
Ag 8.439597114684439 3.737321401779747 9.381779812636456
Ag 7.421249477471467 1.1330960360361855 9.20316189524316
Ag 2.886622476189439 4.597979006216168 5.218072373022952
Ag 1.2608003657242035 7.934659432033528 5.272283573033999
Ag 3.4134585104092547 2.87237164594833 7.283014721892774
Ag 2.199495882441217 7.936828227206367 7.891033762254184
Ag 5.34040754342805 5.501402270695314 10.63397368797878
Ag 3.5601693565411012 7.630852812121796 10.246757428828301
Ag 5.644926848277387 3.320969112960356 8.8593301991168
