44
Energy = -94.51721491 eV
Ag 10.630198410466303 4.257147155313382 5.611973374181047
Ag 9.16436419341121 3.6234293601183696 3.1407152856445943
Ag 8.86272335992672 8.939062634802966 4.322358140425912
Ag 8.987094209428026 6.117187221015113 4.295078392970493
Ag 10.314399651926905 7.4068010133540145 6.302607238520188
Ag 9.266477889980987 1.5441904739246353 4.974285882094585
Ag 10.04430647921991 10.252439122980453 6.686879630229203
Ag 9.768949215225737 5.288176614540079 8.087185290673471
Ag 7.825029903072843 7.367603089527969 2.1270690228965945
Ag 9.498794916589503 2.505961564504932 7.577978479734001
Ag 7.676082310737876 11.403332804809997 4.734528953204824
Ag 7.812948693361121 3.96501954595646 5.662098980388039
Ag 6.536645754713093 4.8586778356029825 3.2390859091374127
Ag 7.450731354206021 9.494022364589727 6.734617452703368
Ag 6.290507014644238 9.584339585829008 2.875454810776732
Ag 9.327474577820665 8.335746554281883 8.735617149789677
Ag 7.580219202551877 6.648432061312214 7.1011629384641815
Ag 8.240530051551879 11.001215496220928 8.907201665406328
Ag 6.901525240894432 1.5702513037865375 6.605874785942399
Ag 6.927568832676852 1.9106689427233765 3.5274883286731775
Ag 6.442526045076436 7.383336528158326 4.570611512713877
Ag 7.1857937273411 3.9191627954427277 8.465760289017407
Ag 6.659848536216354 8.75894853912423 9.489648052533763
Ag 5.0569418919709745 6.98661285375306 1.9726928258943601
Ag 4.7668950304719555 3.092705883797723 2.11108653214467
Ag 7.880206296409267 6.220264626919569 9.962066430927338
Ag 5.331172444126152 10.829795719625583 8.103871173449644
Ag 5.336487283758772 5.290535490988332 6.1473434407601175
Ag 4.754383645640705 2.885800344348502 4.8817106358036595
Ag 5.2178129756654945 6.129200708614498 8.836195412166498
Ag 5.1039135345978055 10.377679994535319 5.29820015029718
Ag 4.737036064243829 2.9289286172067825 7.70344319187487
Ag 5.672970702275624 6.98274723341494 11.470228423421567
Ag 5.072558097433995 8.083874320379614 6.913001822408396
Ag 5.2673865762845296 4.197587893895515 10.671740673841196
Ag 3.685379362359507 5.34095543112086 3.709192070055459
Ag 3.7536464555450357 8.261690687201646 4.030605722749073
Ag 3.8267637719263705 8.7676136995195 9.332636479458367
Ag 2.7901786959800168 4.231550639301361 9.08018036398654
Ag 2.695408615384703 4.3624974002085795 6.224997378182863
Ag 3.073237138966444 6.4012367304644435 10.694937242611969
Ag 2.7015384829036297 9.285369452469894 6.493113977919473
Ag 1.7234273119213057 6.80038014350549 5.150235177346716
Ag 2.5773755474064513 6.739651417636989 7.803133657191226
