48
Energy = -106.04895033 eV
Ag 8.040051708944919 6.8670620997640865 11.576030632895105
Ag 8.43276953080247 4.557451408106343 9.895589069021344
Ag 5.74986027689307 5.311011741324096 10.818643694911703
Ag 8.790897919731089 2.338830010476391 8.0719415751251
Ag 5.595240867351125 8.185270230622121 10.918341288560892
Ag 6.116778230038214 2.969568230331109 9.016007837970417
Ag 3.5017261945879308 3.788705847222293 9.864000937841649
Ag 8.328944167057895 9.265123903235716 10.036473485583514
Ag 10.337893777787764 4.751784114361112 7.603423200102683
Ag 7.233057340481928 6.951239439908168 8.966866563165079
Ag 3.300905646828902 6.654631759391605 10.111922483591854
Ag 11.736958683834112 7.233023285246686 7.114730930476508
Ag 7.540170536269864 4.669192603150338 7.217733584360656
Ag 3.168446162530103 9.497061132827856 10.170165303775146
Ag 10.12904118782017 9.47967202336352 7.834791472129405
Ag 4.865327010858162 5.418501454482954 8.111872597179454
Ag 6.589349194517496 2.1557204676398114 6.235990136143864
Ag 5.851175935674041 10.619143720250834 9.510080679396342
Ag 3.844598516204681 2.8918459648367603 7.159033044503267
Ag 9.022333389249345 7.1348851656443095 6.824239262265973
Ag 9.171386671260677 3.2582566099586665 5.3514794114465
Ag 8.390352421409542 11.644489675420072 8.452772160026111
Ag 4.639128223002843 8.403742358620391 8.176208875467045
Ag 5.300374371229956 4.609532182477081 5.363338882510532
Ag 10.513731147756285 8.668111259047565 4.956926058815673
Ag 1.8269249452705758 7.916513989967024 8.051197462155045
Ag 6.254879333540069 7.038181952824422 6.337315616642581
Ag 10.678422418083276 5.790957004059474 4.8815053634128045
Ag 2.0703297584357485 5.10656060628776 7.754086341327821
Ag 7.245872342487758 9.456536516437094 7.335523371909497
Ag 9.443692273668473 4.348148719692904 2.716183536160154
Ag 4.382929894646407 2.197384133235277 4.418224254758598
Ag 5.0019095304391925 9.348935047130015 5.483209996296521
Ag 6.922820508795499 3.1797923227473506 3.463792604229135
Ag 7.6350513180913735 8.686265300653318 4.5329397591475
Ag 3.463167588570333 6.937373733795426 5.921344732958216
Ag 7.856667178582839 5.701136314193267 4.5131910985984165
Ag 8.978962310271836 10.94251327816606 5.650587671538896
Ag 9.216206316216093 10.065652369600821 2.8199702402406266
Ag 0.8007146482481348 6.474671891683266 5.629649609459978
Ag 5.322312840904656 7.108705115384197 3.670704061335786
Ag 9.421454247210457 7.230489490447479 2.7279487356043317
Ag 2.50511315695757 4.2951012825838815 5.031156125589725
Ag 4.472057075813395 4.4722034248405125 2.663892123348259
Ag 6.9982739181731 5.550944349873728 1.8166608425583235
Ag 7.023681671981362 8.383561799174709 1.7559255107324525
Ag 2.578084100832636 6.501961245423785 3.2527411228367025
Ag 4.571501990664227 6.804081904096461 1.0751751319010638
