48
Energy = -104.13519003 eV
Ag 10.856508335417086 10.94385180820278 7.057086552095104
Ag 9.14966422596964 9.881900639203518 8.931387929224382
Ag 7.600260282352929 9.069558912981716 11.202328717347209
Ag 9.358900521548584 7.216352595627003 9.86924261388655
Ag 6.519470067667707 10.934753806731049 9.408024695738492
Ag 11.13438084210506 8.06983469951468 7.865001019416001
Ag 8.357806391559109 12.141624158008812 7.385033577581322
Ag 4.710140924821345 8.517187062166597 10.238647738327431
Ag 4.077534611194213 10.319760333241737 8.08165015428006
Ag 6.661116329857 6.38761911401133 10.883196300830981
Ag 5.582639442503778 12.540901144283565 7.213688988250301
Ag 10.518943567065724 5.057134397095509 8.157670800746372
Ag 8.6920431156772 8.130352209296209 6.459179190505203
Ag 11.235129329584478 8.948466222761354 5.200045860821217
Ag 5.93223052397129 11.403288711668136 4.571866746287571
Ag 8.712372165676829 4.570418607144959 10.333798183427923
Ag 6.907286462580669 8.10339510757901 8.696617615461466
Ag 10.68801609642566 6.209584416108019 5.621604046365265
Ag 7.904144282692866 5.675355682244438 7.732134209083705
Ag 4.209364734254614 5.767657895812746 9.697894292908474
Ag 6.594652167908271 9.994016188107096 6.755436314769438
Ag 8.893327921855088 10.567303279000946 5.026075166922112
Ag 6.05499519022704 3.6524195011628806 10.417741564760727
Ag 3.2302988072994947 7.679510529552514 7.890552111298321
Ag 8.101666929442143 2.874254616655727 8.262129857858268
Ag 9.325149014471233 7.797549281791516 3.5739762480895254
Ag 5.56308097330799 4.19967391807227 7.710861282101269
Ag 5.530380898702305 6.884303925631686 6.576794768235992
Ag 6.834882465628272 8.740468031889815 4.218387875750505
Ag 7.522693176980223 5.971221583515319 4.884063813461914
Ag 9.10007709311753 3.8193216063598094 5.801208618096778
Ag 4.2330785350670395 9.129845771763296 5.427962706978087
Ag 3.4844681376575286 2.9847293320543433 9.31109663479269
Ag 2.8531225819287593 4.84627694124815 7.301290633916441
Ag 9.667108759734957 5.012834612587928 3.2548498244385944
Ag 5.675477183375113 1.454240729742825 8.389900946492649
Ag 6.642173739264126 2.2488723387832343 5.869318175106471
Ag 2.81085406213262 6.6639569102504765 5.2560806362050245
Ag 7.302491492374344 6.207598048173787 2.1625052486400858
Ag 4.929858556959965 4.583934977672027 4.993256831207444
Ag 4.90505849566459 6.98382808358532 3.429331712835696
Ag 3.777231008256204 2.2120630863079715 6.5219512095124905
Ag 7.281952886305642 3.5056534467879787 3.477030706584606
Ag 2.2553271724929913 3.713842247247968 4.742446120416031
Ag 4.725879226548065 2.0726246370053207 3.794917899599784
Ag 5.065567462832409 4.3922096963892 2.0420695611795225
Ag 2.586468771794597 5.553138637821242 2.7080557966553505
Ag 2.7168116527365838 2.8373971341482784 2.0666951185000673
