47
Energy = -101.94418334 eV
Ag 1.4086447358852932 7.937439987119158 5.948988251978476
Ag 6.5182888187007855 11.653147229237407 6.905780132005362
Ag 2.564310667077291 9.03735422744251 8.391720565992857
Ag 7.166762436370197 7.874421656062569 10.194004802002231
Ag 2.8137017182296424 9.706078316266401 4.272973733758484
Ag 3.688361577832101 11.008688910055815 6.69767290527012
Ag 5.420466016790771 9.72529269332232 8.562228067859678
Ag 5.30791556365588 11.17594131850121 4.494754321714601
Ag 4.380847002010473 10.565090430457703 2.0129304150705107
Ag 8.195880293073396 9.90947507338696 8.364207949222491
Ag 1.3920737660420055 4.971758387930912 5.644075707716947
Ag 8.689955196131798 5.8554733806631125 11.543527136277506
Ag 7.381369152487601 9.351584013345976 5.443528692693745
Ag 2.4651294916113087 6.1908752727888805 7.828174054209175
Ag 6.140539889641096 5.1455750697642335 10.624140191281917
Ag 6.900052155576875 7.4719578706531165 7.428522612436232
Ag 3.1519237488094 6.683787660760427 4.204536035928817
Ag 9.873462999191071 7.688706951023772 9.41295789738687
Ag 4.572464537928627 7.214612112676157 9.339085073134953
Ag 3.507822444456591 4.604736479483907 9.871876350695024
Ag 4.277697355438778 8.19204113838324 6.387588041337974
Ag 5.1859779937288835 8.441287393614699 3.561444217148834
Ag 7.254211348439412 10.093735302128394 2.6955264549163065
Ag 4.008884012009522 4.130429109361577 4.964487508665022
Ag 5.221016633732427 5.087818193172404 7.644857186345534
Ag 8.230945246755395 5.482386931206611 8.790316056862139
Ag 5.273958649938613 5.267626399822642 2.689059167474932
Ag 2.9898288185665995 3.337700485958223 7.406678738901092
Ag 7.489485426677924 7.184341685356458 2.720081149325036
Ag 9.95578363150923 8.606689158652635 6.7056259403831335
Ag 9.595643477551063 8.79931234390831 3.715595758878133
Ag 8.707547097707273 6.623384156627075 5.28009061542768
Ag 5.914201909727618 6.285148184090811 5.1372638261308925
Ag 7.553449123400619 4.313876451165222 6.382931715563327
Ag 5.5525096614964795 2.741289240321874 9.225330782646026
Ag 10.696039085130842 5.8680084936227255 7.365151947781682
Ag 10.631911734238509 4.669580006862168 9.9153096135317
Ag 8.211067425028757 3.1186371177572663 10.255769937881714
Ag 5.526173853224297 2.2994275800816246 6.417150736108783
Ag 5.899586543718608 2.533568689123725 3.614344022030257
Ag 9.81611401792265 3.184718212697769 7.664457785033711
Ag 7.882780101423503 4.4119410107263235 3.464079771226767
Ag 10.037150140098314 6.0483322205554115 2.7296636650800807
Ag 11.467545566590672 6.955804603984227 4.936256316687815
Ag 10.236138783439564 4.224283658379639 5.043119210080272
Ag 8.283677498184238 1.9981804138592 5.226685324924511
Ag 7.690926359816436 1.493839123274197 7.957789046111152
