43
Energy = -92.16183385 eV
Ag 8.25705353612186 3.592658413240609 10.121318955733722
Ag 8.718054597394987 1.223906155818778 8.921594457649995
Ag 10.355863234903342 5.229901135985434 9.326043171176496
Ag 8.053568563161194 6.335404349172047 10.443226487811016
Ag 9.921393535423096 7.968549509963614 8.865416810650483
Ag 5.788812773238648 4.449297561944644 11.233977767139072
Ag 9.46014457720574 3.4955246286523383 7.290937617594313
Ag 7.472111266553696 9.013964722518391 9.69909902094346
Ag 9.272442378233396 10.60415711614597 8.010675934668457
Ag 6.08219222766289 4.81594208592642 8.605646487251487
Ag 5.603292050166995 7.364533697374716 11.072370490577084
Ag 7.163138249396222 1.9336991340782763 6.764355169638492
Ag 10.374871223720396 6.195992874774854 6.755177484850754
Ag 3.6106695005088443 3.50389090916663 9.457223809332005
Ag 8.520190710398179 3.11099365265008 4.524848910562226
Ag 10.912374569554098 4.332385908126191 4.892484762242834
Ag 9.329624688561152 8.659774528717918 6.012565521174662
Ag 7.637866362209874 6.925088075966922 7.57170940689433
Ag 3.586826577168761 6.250211482500194 9.53190759378121
Ag 6.836050539730712 9.775283496084532 7.026047123260871
Ag 6.018523135551798 2.085972088386949 9.35811805296027
Ag 4.564385662210737 3.0247829550492096 6.88312571135521
Ag 5.770801678282462 2.526542062465709 4.407243943312728
Ag 8.595421886703795 11.40818018876643 5.392494454675188
Ag 6.840558149421527 4.7424616607592 5.964627002720862
Ag 8.950874532249873 6.292429477082731 4.310026509832142
Ag 8.457372504019844 9.399982941464009 3.444171505332269
Ag 4.853920612046095 8.68220027983766 8.759722106271287
Ag 6.656081917446699 7.750397916285112 4.933570874312289
Ag 6.628916131844477 4.918877725661436 3.1854364757573057
Ag 4.266779223445805 9.319599550152626 6.053443075307271
Ag 2.603395582039109 5.003871139473241 7.140509296668083
Ag 4.851828429879134 6.613645448175737 6.789512980173954
Ag 4.158250681239838 4.807920748656339 4.635935393971759
Ag 6.0210817992928645 10.707364940801458 4.44375681740429
Ag 7.688667027142786 11.947141271303055 2.6914948392466225
Ag 7.439086057311546 7.274640555145093 2.0527369709080414
Ag 4.790198891988523 7.121907256814723 2.9324487679268407
Ag 2.387738360279879 7.882862150582416 7.550103381269949
Ag 1.5999842147660817 9.653903119477825 5.3179978336175315
Ag 2.7471835684197266 7.173980721251013 4.856286622655591
Ag 6.014443831809906 9.675377094162915 1.8817887824027342
Ag 3.619631431436255 9.68646573958055 3.370488089127494
