40
Energy = -85.91897363 eV
Ag 8.326771520698076 3.117965690179226 5.215135656878865
Ag 6.549241306956773 7.805574203606524 3.9423454561678817
Ag 1.8008792938090772 7.626025184772307 5.3746408769209015
Ag 9.312581710188944 10.795648751180602 6.837981486001294
Ag 8.699982267721026 5.997136445564255 9.5639287417282
Ag 3.651968872730417 3.7826438732171224 5.264833242946668
Ag 1.5945833241344696 5.168588454850827 6.717201393470366
Ag 4.732909389248071 11.409869324992695 6.8937353960068615
Ag 5.873825142016992 2.7783415323929668 3.8280235003322085
Ag 6.895554041054763 10.26572796458299 5.463958556070214
Ag 4.403644527516731 9.116889537003889 8.42269981839858
Ag 8.26018158158801 3.352992409132439 2.448190337685454
Ag 6.598736305849459 7.838711945884007 6.867780302773313
Ag 3.76371832989706 3.9415930359926556 8.066582744377255
Ag 4.017280275298691 6.52347072769958 3.8260318801755386
Ag 2.2676435549330054 10.066017790520949 6.840076294064146
Ag 6.647732370424328 7.9609771544097105 9.783418989981643
Ag 10.708229655597831 3.9495010124274916 6.610390050228495
Ag 9.005551908895814 8.38954866245002 5.244167248413738
Ag 11.05807747232369 6.425437953818356 8.058191573143288
Ag 6.27416440904446 5.328282965510696 8.198094867237865
Ag 4.076824513088615 6.483315939496179 6.752285358116757
Ag 8.673014144062718 5.878287592934556 6.68763029870687
Ag 6.943872563080793 10.364285759623467 8.309329887422814
Ag 5.897755482432652 2.6854321445853935 6.663307665345928
Ag 4.36708976414392 9.009109843836631 5.313672551881398
Ag 1.9515646344777469 7.634735282337697 8.17804380925776
Ag 9.088569044718227 8.504651260064474 8.382670468006909
Ag 6.237974056099843 5.2607183954543215 5.331656009783694
Ag 8.322146995690995 3.3452809929614404 8.008738145861955
Ag 11.338642327203877 8.848842605663789 6.714487677124704
Ag 6.194598251958304 5.2882719234006235 2.511872119877284
Ag 8.65862158632408 5.901325392066435 3.765686513782082
Ag 4.151014989101461 6.599993457321776 9.634504007009104
Ag 3.6887150050581377 3.9670097098766957 2.49432806067425
Ag 1.5800999913034943 5.146873370886849 3.9223905761982913
Ag 10.641135666124528 3.9194009005057033 3.8255015565821555
Ag 11.136468731325621 6.374862504664937 5.246794149350718
Ag 6.339603592494071 5.450052402901381 10.99968761786059
Ag 5.956826914463635 2.848772335903625 9.464722071243978
