49
Energy = -106.90100308 eV
Ag 10.424249680514277 7.761910957419018 7.7102791304087175
Ag 11.499344560069947 5.8257356620739165 3.4784303705777
Ag 11.36359955651987 5.550656731601732 6.321019867972741
Ag 10.216244699854869 5.112915893230729 8.950481603081242
Ag 10.522062678064088 8.037918688726375 4.924358343001806
Ag 8.869095912798294 7.396239389731707 10.071223681308384
Ag 10.730499461558304 3.301830010432422 4.401717699504572
Ag 9.76438193677479 10.084034267072893 9.171128145493888
Ag 9.102756177310232 4.407509718037276 2.3353895671327094
Ag 9.413429835238313 10.177016213266834 6.328543356954383
Ag 9.305913172656378 7.265719968287477 2.495220783951484
Ag 8.78280207284544 2.5141347378555814 9.325923145581871
Ag 7.974690016557722 5.9951744318040605 7.544972051520218
Ag 7.467038172232693 11.516356956360719 8.253535286206825
Ag 8.99198848735723 5.51686961227444 4.838776281151199
Ag 6.026012090802418 2.481604374860751 10.016308310881804
Ag 7.557769082489528 4.86418929089399 10.103839321126378
Ag 6.049489738518946 7.258183719988393 9.891997285555334
Ag 9.38192098325599 3.491962207964383 6.8151199288616295
Ag 7.231263106790949 9.758591257250439 10.505648293484011
Ag 8.437465475960748 9.68857800493283 3.6545053480243435
Ag 7.602929562940473 8.76367178350588 7.93071063955741
Ag 7.356410917917197 7.752712316974406 5.288675942203911
Ag 7.72909919456764 2.945202597563377 4.53779735481076
Ag 6.97071941518788 8.31514366592497 1.3967642342941915
Ag 6.797655366216792 5.991364070717789 2.917432285894613
Ag 6.72289082565609 2.8784591180933887 7.369044624052524
Ag 6.25635342488993 5.0243801272854025 5.542851202607112
Ag 5.3048926746691 7.144295577660304 7.1773165708344715
Ag 6.613204430670808 10.469979432869998 5.826072433548697
Ag 4.979855291126153 4.8689876128325835 8.899132834570498
Ag 4.869976327815422 2.557134997725789 5.248544762434726
Ag 5.012994994673891 9.668862705873126 8.533865052834496
Ag 5.561358588198651 9.392775616760298 3.481116671643307
Ag 4.493440288110092 7.098654342865112 4.5627333689712595
Ag 3.989557151586043 2.424561921689143 8.09681583775814
Ag 4.401531324150444 4.563171007378051 3.279024975901846
Ag 3.514112402486395 4.825949604921689 6.228906125911674
Ag 3.9912370537469006 9.598148878426542 5.866083640003111
Ag 3.2757863728172634 7.1802884786506285 9.084482218123497
Ag 4.371157494340158 7.127946431498065 1.8520348650188068
Ag 2.078875765900795 3.336182942242243 4.247740671187929
Ag 2.056521421545356 6.098442186543025 3.709226804696891
Ag 2.2438052000024453 7.440501155225145 6.2213154192380085
Ag 2.1006318972288245 4.627370614744258 8.651929528456208
Ag 2.124764240723839 9.499307146754159 8.046985815080191
Ag 1.5791957979267157 2.5498510293214327 6.826354945271282
Ag 0.6890188070768356 5.1302533283133585 6.116201991831326
Ag 0.5746180642628242 7.0178351908974435 8.351134434259215
