43
Energy = -92.62695375 eV
Ag 6.944041638051718 10.411318723720694 6.70952649165671
Ag 5.072907696725655 9.947032762840688 4.659329413001345
Ag 8.514327498339373 10.229546169131137 9.201186809615969
Ag 5.859238409271151 11.234101738640181 9.117034211490251
Ag 7.942238380802928 9.135256689460105 4.281975171306535
Ag 4.445059810916155 11.890630333594103 6.699075968565573
Ag 9.084114681087533 8.586364609204226 6.790502879818629
Ag 2.516820046167955 10.027757720828237 5.644016563306391
Ag 5.850411327027398 7.871694920077211 2.856121567815497
Ag 6.14820900687518 7.709195778431497 5.895766330887985
Ag 9.535512155869867 7.535869338640859 9.296678348831279
Ag 7.672559735013619 8.159052117432338 11.254765612656602
Ag 8.080774677915196 5.89304251471074 7.2208170103814195
Ag 3.149247542066124 8.102579564957807 3.6203977454658314
Ag 8.615234445690545 7.499156230133116 2.131877611160447
Ag 5.019172477325001 8.857956023537637 10.547823135008278
Ag 7.652287688160864 5.938715243740764 4.221574255086268
Ag 4.3507060718916355 9.339192125085901 7.708810259092303
Ag 6.801418935514764 8.174072827592955 8.56116032205094
Ag 10.115060365649253 7.126934037552298 4.662639674712303
Ag 10.759717599766832 5.879084952594342 7.276750262452084
Ag 3.189871745076485 7.279113935402574 6.2403671018296665
Ag 6.691925974241885 5.463490744806952 1.6390655843625273
Ag 5.38867266253625 5.53748354157636 7.403635745347913
Ag 9.024917119748485 4.8868613093066555 9.696291434035535
Ag 9.830961338583796 4.335859729795142 5.037047902625983
Ag 4.8908146675972715 5.4525759816312895 4.629994979379058
Ag 2.1489598572910515 5.458684208298498 4.282258822260211
Ag 3.6804585119744884 6.903532616537432 9.034267204394762
Ag 6.938812225995559 3.704822226597038 5.839896483273049
Ag 7.85169470238828 3.312504470568677 3.1136872763167673
Ag 3.9286340672480824 5.896760688179592 2.0516641920841785
Ag 6.3321368433360945 5.9278309625573655 10.113393816408411
Ag 6.785523743842236 3.4061582370911228 8.851240208662718
Ag 8.769685409215986 1.6615886141936667 5.135085138829959
Ag 2.794642324984667 4.5761373484402545 6.942326237210162
Ag 4.609465866546246 2.3590438866151824 7.233808677389036
Ag 5.109445264001487 3.3898365790678087 2.6772364086400624
Ag 9.274256134372994 3.161088018298711 7.520053957054978
Ag 4.123243432817485 4.113789001659791 9.432866830043622
Ag 3.393644567512499 2.89691073576111 4.77786389989006
Ag 5.8949090047231225 1.4792136577506123 4.614410054195547
Ag 7.113481079730365 1.1433758178512043 7.270925135295922
