47
Energy = -101.97536016 eV
Ag 6.380996014229463 9.273785724955223 11.680922732347682
Ag 7.636014754764583 6.763622742949278 12.146416040887395
Ag 5.131311902735684 9.179540309251545 9.173125249091266
Ag 9.901909543920715 10.497734152341701 8.750680646919035
Ag 7.232650980769252 10.950825636975226 9.464026081273817
Ag 5.1743617950537155 6.892702715838955 10.753686909811771
Ag 5.502063163080152 11.089255036052121 7.132969943450496
Ag 8.559868860455529 8.48359695087042 10.174509077644196
Ag 3.2920276155052717 7.209696340485083 8.590681677776612
Ag 8.258620913576303 11.623524689721354 6.795859217984215
Ag 9.680413844860473 5.8863551606335225 10.328660654833792
Ag 11.01064566462431 7.936834848289917 8.899573933387545
Ag 10.176293499797392 9.046821010485145 6.430240809312734
Ag 7.021329365903208 4.8838946454365475 10.154829492231848
Ag 7.481420323688231 8.989866490113627 7.420759643418352
Ag 6.395233533601913 11.81940365650372 4.636847692781102
Ag 5.98130483287359 6.381491639367507 7.963591572923668
Ag 4.270598508692978 4.61487792692889 9.221122979922415
Ag 4.815368505002993 8.411618367387893 6.409196843276016
Ag 2.074843291391783 8.05557219313209 6.185111499168454
Ag 8.758147312579084 6.530119021383811 7.73841414844825
Ag 11.20671773903255 5.3758785339197335 7.726644279597348
Ag 8.694147409790833 10.246596365224603 4.3697774424197435
Ag 3.834543814433697 10.448161237803562 4.875496083115812
Ag 10.110111303089617 6.536701780668833 5.194070037092049
Ag 2.1987329287132362 5.1764798057319075 7.071722811674581
Ag 6.384788839917936 2.6136889756965274 8.608040235208811
Ag 6.131938830924408 9.13869422094025 3.8911600818992094
Ag 4.503673925644688 5.580870412060549 5.444420256845978
Ag 10.999811943605888 8.801489702835612 3.7584048391737817
Ag 8.527448833694718 7.7227661434819685 3.1351849287115114
Ag 9.720241042579163 3.836827890653974 5.813918887905917
Ag 6.880345249061084 4.0966953408294975 6.282767969999663
Ag 4.124232852124545 3.1126220843694012 6.926118601945911
Ag 9.022112733002903 3.759613155083217 8.560618607533987
Ag 3.630300221219177 7.80235944746544 3.7978314176435854
Ag 1.6227636868525974 6.0009483776571075 4.3890354186908125
Ag 2.342969341276278 3.377895066990536 4.816038700132235
Ag 7.128037760242343 6.899729069037214 5.457635057543875
Ag 5.889058797847047 1.1302188549489598 6.162787190080895
Ag 5.985170086366895 6.467952321228076 2.9131000917094854
Ag 8.466522348553667 1.6295779896868876 6.907883773187725
Ag 8.227548579308927 4.9424855770074325 3.6913429662786843
Ag 3.693311908870707 4.938036289611785 2.782060000762537
Ag 4.979511305854098 2.8343163235723017 4.212037750551799
Ag 7.7357464581719215 2.264647417483056 4.180031978710185
Ag 6.272953534832681 3.7917740590250797 2.0288094468111177
