42
Energy = -89.93832105 eV
Ag 10.907221353784266 3.172441365443631 4.732158568854199
Ag 10.71729828191871 4.29131848689942 7.4350579006397375
Ag 11.707692984050437 5.842555488667384 5.26867246258107
Ag 9.434364354457792 1.8234362137316094 6.801183797170156
Ag 8.048357428933286 1.1850167775332496 4.488230030781849
Ag 7.959349192748616 4.002739388401828 8.308967847442569
Ag 8.601002787288067 3.3412107272146145 2.587082980220862
Ag 9.500422178174968 5.858194617347437 3.6332045232889625
Ag 11.263206187508034 7.290268747534511 7.536807195284023
Ag 9.361362577570755 6.236319740406923 9.326641404827587
Ag 8.333809009974756 3.8078445327215547 5.259657475680675
Ag 5.136474809802604 3.9444625413680803 8.673538990572085
Ag 6.450835015859974 2.171175417252911 6.728974930233991
Ag 8.89608869645202 6.144420398284489 6.586712032941967
Ag 7.857473433471641 8.408769322763215 10.250544327143817
Ag 9.830556838241167 8.323528911249895 5.120846980797029
Ag 6.808749188068658 5.625326955423667 10.373804518902556
Ag 5.837454954367291 3.027302404355175 4.067519183977904
Ag 6.375301791730658 7.2453469052488835 8.158194320179904
Ag 6.785735748168011 5.573346268111493 3.276135957587259
Ag 7.925179649199598 8.238108203374901 3.0126797100282667
Ag 3.861198846257957 3.3326313742442366 6.16918254753027
Ag 8.929026498035972 8.83844026106664 7.708746247312905
Ag 4.118328253754441 6.288852020343747 9.865928202112167
Ag 6.8693928100339425 7.540635481738067 5.402813130977012
Ag 6.120986188373129 5.036108455918315 6.216114792011103
Ag 5.138467950915369 8.930490443396714 10.15371299719441
Ag 3.87478230395077 6.536987701424444 6.920899376294844
Ag 4.135572623698055 5.325955225047148 4.080309187752753
Ag 2.3725151915447262 4.683274272512271 8.238410221788557
Ag 1.7878425960867494 5.120190756840279 5.47777880152037
Ag 6.748039564056612 10.405483672699154 8.322519640896875
Ag 5.068784436348239 7.8829367794668865 3.315379246969314
Ag 7.6171661705209495 10.194597958638207 5.578644007465709
Ag 4.8812234020803436 9.112129575547124 6.550687173547006
Ag 2.7853962075842507 8.524190148110629 8.820174004511193
Ag 3.9756024104447536 11.004497933175328 8.525984029587434
Ag 2.635566936611306 7.785081437046564 4.652613882847638
Ag 1.1380049488476942 7.312598127567096 7.031771015784414
Ag 5.317024871231009 11.798831027914664 6.214926042357088
Ag 3.9267443933873687 10.276977056584297 4.206781753779273
Ag 2.209585870568745 9.992149845504509 6.512081451846276
