47
Energy = -102.30253872 eV
Ag 5.434459881488112 8.46735367393804 10.360004680069515
Ag 4.08806165311764 5.739746464585454 4.349979520752921
Ag 3.457644663337115 3.286688137187332 5.913978065784716
Ag 7.391148719490422 4.709523166430124 8.901359209800125
Ag 6.820705194591671 7.587540091977843 8.038794469109645
Ag 7.217814795372266 6.508923946111539 11.398474510594674
Ag 9.819086877615755 10.957558682721196 9.537687789819246
Ag 6.77002513678478 10.026461249193389 6.260722545235103
Ag 5.169818644979268 5.41150601623322 7.068838978753169
Ag 2.1800432168201365 8.732509901771682 6.40112226420697
Ag 8.595742043171825 4.428595070875069 3.8278888400819984
Ag 1.5108798401914108 4.369742061046309 4.244514374925065
Ag 4.502895338449047 9.85258459354775 8.040705332658519
Ag 1.0925890881377895 7.103434930358635 4.3822728972504175
Ag 9.057801537069485 6.44506415630154 6.598456682968322
Ag 2.54234193087023 6.036555795355225 2.1271102814920795
Ag 9.245533777290278 4.4813654404594 11.064619924593584
Ag 9.193299388445883 6.815803162904074 9.434281186004904
Ag 9.202201368276137 9.123938112650556 7.528957151563848
Ag 3.394957229954814 7.3610908182972405 8.622015082344625
Ag 3.8216799874357053 3.3410898823270263 3.0104018122680882
Ag 9.844169891048248 7.03126524114133 12.228729198265073
Ag 10.891686608633329 4.658660537905986 5.622493105830062
Ag 7.083403326045839 10.404116292274276 9.016504775483732
Ag 11.686875110106701 6.860532511758686 7.884536916519799
Ag 7.818845895564287 7.059801699290053 2.4174881150669796
Ag 4.141469130575267 10.555834259309727 5.305225657292967
Ag 10.276645443303499 4.389748947357815 8.371697873600006
Ag 11.68028272145155 5.760225342218099 10.43118586835878
Ag 3.256131515731349 8.562867610476184 3.5059207188505703
Ag 5.767413304799181 2.8048480452177404 7.616031241474735
Ag 5.023065516333556 5.6525519873751735 9.99798889512782
Ag 6.053197695704321 3.4101567969361906 4.828568436545964
Ag 2.1841708878462627 5.845919035698626 6.595921902237584
Ag 11.149503243747029 8.6108295362324 10.259004398333351
Ag 8.346561853089135 9.086388872731453 11.074380181706163
Ag 3.1864966128091474 4.183145825885015 8.590116650300201
Ag 4.776942367849462 7.9334188625742055 5.990239575366437
Ag 5.045393283042096 7.235235419457899 1.8414563511933464
Ag 8.601071126520893 8.644533195860085 4.684240683729999
Ag 8.282728291947658 3.6433195446907813 6.473848632185245
Ag 11.887129171497644 9.779695467981638 7.871130348436104
Ag 6.151564001410925 4.776491342040089 2.3999973415658182
Ag 10.26898711118426 6.5947835824418775 3.6833178687790795
Ag 6.060804567280156 9.09417942660372 3.6431354093517183
Ag 6.788332933195529 6.312062966289515 4.912894587084786
Ag 11.216314269838378 8.300228489425118 5.619675860483438
