44
Energy = -94.2644234 eV
Ag 3.356367429310447 10.16461754419024 5.425946309859019
Ag 5.826391854653843 10.034414290818626 6.8286004393041075
Ag 5.8365220870496035 10.851139193854078 4.181060302108961
Ag 5.360431497340981 9.85620582012951 9.599469482829187
Ag 8.310527639411422 10.499864275804143 5.650560295084824
Ag 3.6374909491166774 8.622159589733828 7.712557286479669
Ag 4.950821383214213 9.108024188467619 12.215939041043162
Ag 8.03918437670824 9.89342953441721 8.51697761414213
Ag 3.5549160497732046 7.663307765895165 10.284654251520818
Ag 6.06165533407771 9.869966525858544 1.6082983966538722
Ag 3.9929069520983744 8.719973145826325 3.2371463980186923
Ag 7.549910904376167 8.65937497420916 11.068142740845934
Ag 10.340879438141696 9.130471438849385 7.035695729410316
Ag 2.961253349485986 7.292177773230086 5.382528047729323
Ag 6.313957450481588 7.252177389350323 8.976865663445755
Ag 10.879586101322268 10.442173184105185 4.435486119678056
Ag 7.717626691748961 7.856308718130449 6.559921463379508
Ag 9.320064913438097 7.435063747629569 9.03908929732404
Ag 5.703232133138644 6.472238982701537 11.683663528416531
Ag 8.484625575199749 10.393750958361494 2.8848220358818617
Ag 2.914476849667334 5.973244528458956 7.989072277250335
Ag 12.118425057756985 7.99909128750185 5.314763146261783
Ag 11.96041148116547 7.007154207903874 8.007876273267701
Ag 3.736729940792058 4.851967884342032 10.407620052331035
Ag 8.410646801179618 5.942733738885278 11.27477017167973
Ag 6.720633721732627 8.164926238928885 3.8376402375652967
Ag 5.367715511326325 6.322603467906835 6.531754667598694
Ag 7.751969441979621 5.205655214857583 7.663792332956304
Ag 9.467431861798195 8.100060723901063 4.213269421950169
Ag 6.419184301552778 4.226158324855116 10.155461256233673
Ag 4.277159474542007 2.9918417031270628 3.594378000425042
Ag 3.3048672812102486 4.437892584154735 5.694237443785104
Ag 10.099476693224624 6.159281687616389 6.075879726678936
Ag 11.033560745238262 5.652951544441797 10.322950786510964
Ag 4.671864263856438 3.7439853066427125 8.052884149218015
Ag 10.932294825482082 4.32569050430022 7.85863370625926
Ag 4.987510338607611 5.728455147035788 3.8088478057697337
Ag 7.760943677594332 5.728782043521261 4.64693803485091
Ag 9.084012181765955 3.695808150624211 9.796302283643131
Ag 6.1260651962229 3.619773747346993 5.557607236076176
Ag 8.991761840258953 3.42739973998676 5.933382891233643
Ag 7.188004810584375 2.4549932746726046 8.063416480876489
Ag 7.333043117146225 1.1563013991907114 5.657344079336129
Ag 5.4367909302912585 7.1597409632991065 1.5070855501484686
