48
Energy = -104.36184167 eV
Ag 6.12967594980474 6.00795647813666 2.2822980623701277
Ag 3.906660392268668 1.948210840161502 5.737488309596396
Ag 3.610146653862502 7.2966044741863385 2.931624186972887
Ag 4.630043713854616 3.8758663572508727 3.658227117959067
Ag 2.8685885740371595 4.5544357110848965 5.750484896002196
Ag 2.287500347364344 7.233431232534413 5.483072641927672
Ag 9.042565472654436 4.877813115910009 2.1314211685280617
Ag 6.8236797324499445 3.0754196876714412 2.0543308655247223
Ag 6.452784438153122 1.8139357080584482 4.561220802078747
Ag 3.6652857333020674 3.461270188516752 8.204489358539716
Ag 6.050670178906104 8.720550061887895 3.1507416288923493
Ag 2.552191973581065 9.064752939602915 7.60154726466865
Ag 4.010925236066128 9.305116339829151 5.02517232581807
Ag 5.053648650851552 6.4153671794767035 5.025361526499002
Ag 5.665264471277592 4.089144258390683 6.422014569828077
Ag 6.09874712524326 1.6062190999469061 7.519024288795567
Ag 3.9638600042071093 10.955139604562119 9.481701642962683
Ag 7.3808415619839565 4.64562577538446 4.3499909981972635
Ag 8.488963546709867 7.1715301947363255 3.5967797278720792
Ag 2.7883862414875997 6.226340123868718 8.082793082221274
Ag 8.374641876609 2.860066794918326 6.345457120378353
Ag 9.119515767742651 2.5437279907896064 3.6912087429555993
Ag 6.20928493891568 11.037422709834862 5.352937105601404
Ag 4.107667978071854 8.104311665120992 9.851584663935585
Ag 3.8299914038274876 11.573460877210938 6.765075063100176
Ag 5.317419081976412 9.380418009441561 7.619401324414966
Ag 7.021441510436638 8.30149453695436 5.740847183154052
Ag 4.561317713123666 5.284164798312203 10.07167839612751
Ag 8.194502590810881 5.906107822851726 6.8555862470742355
Ag 8.475644557940921 9.995219389013537 4.005636397461996
Ag 7.058743875120855 4.237599551126201 8.934662732186471
Ag 5.681637088128504 6.588062923892721 7.849585453656339
Ag 8.516067623339115 1.7985644791503965 8.896102362664845
Ag 6.419774972071872 11.884310999010674 8.192812284047864
Ag 10.047362920489883 4.042382876058798 8.119922090919356
Ag 10.101249497719397 5.172966658502604 5.0189873068261095
Ag 7.907032550224049 8.43239674788287 8.37471193821394
Ag 8.633322527082827 10.711774231021892 6.775053019047561
Ag 6.394416583727587 9.903142087605756 10.397501478542313
Ag 6.669890299141458 7.0541155424832676 10.550562036271774
Ag 9.833569319661702 8.207468802935265 5.8066021082601615
Ag 11.082227565579265 6.547520068624814 7.601238198163911
Ag 9.142428219102953 6.16528709362055 9.64281301884272
Ag 8.784356321778825 11.159254544237351 9.56330367515478
Ag 8.947925502798537 8.705002486517218 10.961622157226442
Ag 10.609878670364592 9.319105078090002 8.277559497993115
Ag 11.512779393150758 7.56761675622997 10.220531086262573
Ag 11.19963116644729 10.34045992324904 10.79552844202819
