41
Energy = -88.29503857 eV
Ag 5.1357470990587055 8.826416944695293 3.373929582156736
Ag 9.897311340365684 7.391241313646194 3.332355099681009
Ag 10.691544258850092 10.039166813871171 3.9738563423616293
Ag 12.597439391213694 8.001654813708768 3.6871905664104383
Ag 7.145900434185696 6.778126375669876 2.9445227974772092
Ag 7.9104476728959705 9.468649746261601 3.6110539295100765
Ag 4.430222143703703 6.1116608377519075 2.62987631219911
Ag 3.518764775159022 10.114456097825315 5.348117711580976
Ag 8.874441653957284 4.914326122112793 4.2534961300344145
Ag 6.102984507665346 4.262510778307001 3.943576192026908
Ag 8.103918332944207 7.405600210217107 5.616680163544654
Ag 11.612734984629059 5.5748343207247855 4.70962651391488
Ag 8.993004965830515 10.078538414908925 6.214485612027238
Ag 3.3662473868202825 4.649157280810262 4.800893345353136
Ag 10.93086769352256 8.011628432951955 5.9696620728273375
Ag 5.349926640361029 6.75088148516205 5.279261426602122
Ag 6.1702760228718985 9.595930748168339 5.9159976746491925
Ag 2.7436212783457625 7.494718010240818 4.542242198163709
Ag 7.84811146617759 2.522628322386881 5.402313839749813
Ag 4.570868109174728 10.608101080947145 8.033645435945441
Ag 10.541760289130819 3.1791498062251233 5.652956841396928
Ag 7.333529800652144 10.154107735386242 8.441726826952106
Ag 7.0912046807583895 4.861504133061663 6.6554301590948555
Ag 3.4794133397732834 8.106185522207191 7.243522862304041
Ag 6.287693383017835 7.407068685715805 7.864258245605858
Ag 9.871508562328568 5.530874670714413 6.996115418853585
Ag 5.073103634438151 2.762443148236874 6.115202216327671
Ag 9.143601205119433 7.986124251563951 8.235900030149667
Ag 4.344631582698752 5.286263495089323 7.497177799028436
Ag 1.6937694455354009 5.937438371793256 6.709396624821961
Ag 2.4306865600012286 3.2151908293473364 7.124823471705752
Ag 6.758371594469347 1.0624949984192142 7.509699785511947
Ag 5.837812405559377 10.682161976714825 10.662845532449818
Ag 8.02710846129092 5.575321522335537 9.228361112950736
Ag 4.423268324972967 8.473791821268636 9.896597284638437
Ag 7.191232582235133 8.119563904045096 10.430397084355963
Ag 6.150052951606116 3.395525495560293 8.903023520573205
Ag 5.360742484265214 5.834581719683923 10.176304863925571
Ag 2.6047661119439427 6.403723811756578 9.38334829661058
Ag 4.1195800059718595 1.3912076605343524 8.409450531085573
Ag 3.4210343973512134 3.744075480715888 9.719180533950079
