40
Energy = -85.99912812 eV
Ag 10.503921541513048 5.387335309195636 2.129787211292931
Ag 10.797764468021903 6.666226897967722 4.714229321718851
Ag 10.969584165751188 7.871009357220688 7.233398140911023
Ag 11.423765553317624 9.106456148649448 9.67797901210177
Ag 8.716993791239165 7.400214568919864 2.9221185846335587
Ag 9.845552289350339 4.057678367073199 4.547420096556405
Ag 9.030715723607951 8.802614163749505 5.39927011677262
Ag 9.882788166062259 5.313875512939153 7.136846720914563
Ag 6.787176100984678 9.262726292749853 3.7580443748347934
Ag 9.298496952974475 10.00173194049167 7.997311140449881
Ag 7.068416193911627 10.539678524294768 6.397765757382748
Ag 7.857268010051614 4.6818020392194155 2.618619873182224
Ag 9.885158884597804 6.726067856927607 9.616920715514343
Ag 7.882158797360451 6.087721701844058 5.26574136505767
Ag 4.877325108041688 11.01477696326436 4.783392260789644
Ag 8.832318811863114 9.161128144925915 10.632609161619653
Ag 5.848953376492975 6.597896629672339 3.311627912209648
Ag 7.902608034285864 2.1341491918766273 3.9203884758116314
Ag 7.865983670063818 7.450749370839192 7.791126285826841
Ag 6.618407717599867 9.72018106257751 9.043705941244548
Ag 4.328630077103021 10.109947602907832 7.402166023400038
Ag 5.939159608945777 1.4998413667864574 5.86887128302835
Ag 3.859582647482038 8.49712462647389 3.9356672466620215
Ag 7.940290147466652 4.707739344130629 9.079370403158777
Ag 2.418589736371158 8.715604437028956 9.063507930406786
Ag 3.8347875871105703 5.813639040798275 5.106030102245394
Ag 5.730995978185096 7.953957003863688 6.010648806827457
Ag 5.915325460561596 5.348651389023036 7.141323566612919
Ag 7.058730026899788 7.025968804751441 10.48175875431618
Ag 7.956632194017375 3.3506956112317843 6.502200420577052
Ag 5.861022972341802 3.9714255079221257 4.457745586689054
Ag 2.274257481924077 10.41481745614385 5.397430763415388
Ag 2.980503561347752 6.4736963305243895 10.550220301007453
Ag 5.972099247465338 2.730825284681572 8.42229498025717
Ag 2.9863399091421603 5.571919370618815 7.905376138876425
Ag 4.883759807046554 7.5640791606146385 8.717140281034885
Ag 3.9492117507727227 3.348032053280175 6.476450803497147
Ag 2.722537629430053 7.930048553802088 6.452335320650728
Ag 3.2797462471349226 3.0969142580409232 9.194202100362517
Ag 5.2404710900173885 4.943733551018995 9.968916078389563
