41
Energy = -87.99341459 eV
Ag 9.26892437126655 3.744791714141441 4.150825092593214
Ag 9.22750103007127 4.426816653703954 1.427390183075055
Ag 9.18285360585083 3.1136314643076544 6.895384050711475
Ag 9.500560635335992 5.795045929236488 6.028332146944398
Ag 9.602691450485644 6.502550182433997 3.2988728507492415
Ag 6.912757481679916 3.2069520560229594 2.7304941534479297
Ag 8.940437719249514 7.209820907164792 0.7027995738874737
Ag 9.279031044620575 2.294247958865948 9.539389871148412
Ag 6.7616417479641235 2.922826868249124 5.570683891951915
Ag 9.563244086458063 5.059685149775613 8.848331389225216
Ag 7.051161838007497 5.57738152282918 4.364701722470666
Ag 9.455744369682048 7.747356598500869 7.990414077393818
Ag 9.786954611655787 8.525064168312515 5.28865160020292
Ag 6.753709520549693 5.6441852514848545 1.385262166440287
Ag 9.555583419163376 9.294112483757296 2.6163412467641725
Ag 6.734377917345475 2.6842042725585875 8.425375242085366
Ag 7.609890608610053 4.178679969496595 10.694630146402806
Ag 7.001552149485531 5.294585547531448 7.390309827324029
Ag 4.584146247658767 4.009365258071051 4.180884064262788
Ag 7.204214979073196 7.866241117370356 6.1520415263082935
Ag 7.093487749569193 8.059552628920592 2.749538560696588
Ag 7.822848856519296 6.891789811951469 10.057072799703441
Ag 4.493592327024956 3.745058354541388 7.05119581215838
Ag 4.742613495277284 6.3877911248545844 5.83689872862532
Ag 5.112415203536581 4.816389381436239 9.590786209708819
Ag 4.6799669328899585 6.57838499755188 2.8970278551188655
Ag 7.357333957871728 9.427539139566973 8.783056498246365
Ag 7.546696535305786 10.14880484024594 4.528399863544299
Ag 5.90156977132993 6.017494515253124 11.991385729003628
Ag 5.398212834520545 7.46779540709115 8.371678734794326
Ag 2.3126728851928564 4.902773895218776 5.645435002178937
Ag 4.983483980597932 8.912703318073694 4.406813325021549
Ag 2.9433262069580928 5.932859640275426 8.179227367730643
Ag 5.961224458876729 8.697099148191791 11.095597951737654
Ag 2.5074203252348064 7.476092496887238 4.372467403585794
Ag 3.719598419456795 7.135062913577836 10.663455154785764
Ag 5.697730792694692 10.276003341402436 6.727266680101687
Ag 3.28703911631415 8.817177469222885 6.703359954246201
Ag 0.936800125303748 7.158934002659626 6.675560708031565
Ag 4.317330306835889 9.89822642351196 9.14887471397448
Ag 1.8701243350869738 8.438664243562915 9.048396122879964
