44
Energy = -94.58722762 eV
Ag 5.514610422106962 6.988350644074167 2.564620701317866
Ag 4.848814127688849 10.3169368217729 5.4143752426584495
Ag 10.965500408106214 2.201040284645878 5.315888609374776
Ag 6.9122138974497895 7.293547674316591 4.933564359695498
Ag 5.393153020740945 7.921202374086406 9.726176330983934
Ag 4.729271583310112 4.708647182420706 6.717720468351205
Ag 9.909087175808061 6.330642225231169 8.95325866230291
Ag 3.5785284496306207 5.78037789950996 4.249986900568327
Ag 10.849094460672429 4.8673513394169206 4.501798261126028
Ag 6.70920187810697 6.514790094083948 7.730536761322602
Ag 1.9221113219638497 4.200803099349359 6.213803711624148
Ag 7.972553708988006 8.479633332244358 2.5569159627132425
Ag 3.3451394068621245 8.485211000792978 3.7103259113762395
Ag 7.530642168248579 6.2026837182468535 10.597029046743053
Ag 11.021600301189276 9.608924692879361 5.851441628779905
Ag 6.420494019287501 9.469029972628483 7.485229402370525
Ag 8.243619240884575 8.651350833441187 9.466224476001832
Ag 9.987483158492747 7.5656922430075815 4.256376949314884
Ag 2.136334146793496 9.728280832245243 5.890876602901861
Ag 0.9855834584253114 8.47595725342529 8.14946050987799
Ag 8.610677663555816 2.226083104898803 6.879323037615945
Ag 3.691071337201699 9.537075895399495 8.152693259222398
Ag 8.53483755769498 3.0360636224848174 4.176054888713519
Ag 8.40628184144915 5.168883454372129 5.997812514171839
Ag 8.121919764574903 4.225358960920267 8.743516983563646
Ag 10.664241095878175 4.185434743251754 7.295939704375142
Ag 11.438330849252713 6.818131802458477 6.553936593880657
Ag 5.61454534471014 9.863415801530541 2.7911267121135754
Ag 4.463247086618065 7.602117777229656 6.258301630820793
Ag 6.105931942901918 4.580573720625509 4.044396207208067
Ag 1.6981457258613273 6.988128575202572 5.888709462826399
Ag 3.6465321203173438 2.0970074735394464 7.073675135136655
Ag 8.924819634811229 10.72945907482368 7.532523597955617
Ag 0.518095880106935 5.684013237994795 8.098586611691198
Ag 6.088304513840112 2.4779390232202845 8.29430630862849
Ag 2.653086783443683 3.9276202248329146 8.929097192142974
Ag 3.7662868367814273 3.0214139125485207 4.43980697017453
Ag 8.888485881233105 8.060123058874286 6.7732223146012736
Ag 10.946047470769518 8.904563838148185 8.554341566293715
Ag 8.402352326497555 5.684776892516372 3.000355181966757
Ag 7.700150217685266 10.016924769698347 4.973166891933856
Ag 6.180935762142416 2.2084324481907958 5.552719115606194
Ag 5.240184628282437 4.923289983672278 9.516428903302293
Ag 3.1271291166938844 6.649392822805961 8.601026453707973
