43
Energy = -92.33951879 eV
Ag 7.0214331694817895 8.147393152679772 0.970890453652451
Ag 6.350843169571161 5.525899363956393 0.652314093774492
Ag 4.4950531165678855 7.244355267595893 1.968461233215365
Ag 6.069735927161295 9.360208056140195 3.423228404440254
Ag 3.458982949043888 8.530756315500273 4.276935895838518
Ag 8.893438214770782 8.61296258513278 2.938676721130719
Ag 4.220921846618613 4.351909125279924 1.9536497198866312
Ag 5.698502277126695 10.458378389522668 6.040709496031253
Ag 3.32679208330883 9.312729943281969 6.959205678257689
Ag 6.815051340916335 6.62263618869583 3.423022372478475
Ag 8.216697197643565 10.537708513464613 4.8622838684322955
Ag 6.976816640629972 3.7773173491407652 2.7158435982722877
Ag 3.9736023065036012 5.767120761116918 4.344933240449259
Ag 10.760929452497095 6.792672752123957 4.0075012897355915
Ag 4.823244994886027 2.9151732326183177 4.361623035728682
Ag 2.186961138043175 3.758661714825867 3.7883570848293244
Ag 2.4134202317235074 6.742355430037018 6.413943564084632
Ag 5.607016534069076 7.643532907660362 5.823886812277353
Ag 8.646292337748902 7.724109373929757 5.564862626656057
Ag 5.579737323837318 8.791703567570448 8.506454749440893
Ag 8.951187392745869 5.951733265004245 1.8247760694798907
Ag 8.999417021237699 4.747826339589809 4.476725756816832
Ag 7.4840673362110035 2.4290856034836983 5.130867825942109
Ag 3.061797613336627 7.621598787260277 9.160226388221707
Ag 6.433863160864496 4.990287919012464 5.640827824389558
Ag 3.1975021490616515 3.89396428372203 6.4356154825210465
Ag 1.9798480020864182 5.063850980159576 8.636621756505116
Ag 8.001551424642413 9.685654621112183 7.494772691247788
Ag 4.739991319149514 5.731382504250876 7.843545141082826
Ag 5.746190168998069 2.9339346411183493 7.353133398400637
Ag 7.962390554725954 8.276948664454963 10.026835220576423
Ag 10.440226407899967 5.813975492311847 6.637609347741515
Ag 7.444363673934909 6.610309951753962 7.834431497735795
Ag 8.5096853595528 3.8702289139465695 7.306726542601453
Ag 5.596394636900338 6.770451870119977 10.423860272447477
Ag 3.186048215049925 5.639993749866528 11.190896903792533
Ag 4.206178408700818 3.59012442194783 9.599717029160688
Ag 6.966936636375996 4.3278918617320565 9.598875585166553
Ag 10.09728622440236 8.025717728369493 8.247604558355524
Ag 10.36259717117972 7.518126823288267 11.146202523610398
Ag 9.576686687307058 5.508975625851255 9.379746583667735
Ag 5.610121727116295 4.543305397193062 12.058737601253828
Ag 8.0216578141636 5.97500171122682 11.71534217211592
