40
Energy = -85.58406207 eV
Ag 5.638728997720869 11.651138035465276 9.774676584630749
Ag 4.786078889255735 11.516010378928813 7.1567232309952
Ag 7.524209070500626 11.906736090489076 7.19557719773359
Ag 3.9402619208482146 9.219794267518052 9.4568729708399
Ag 8.422382015928388 10.776563862328922 9.574006704619315
Ag 6.373551124532369 9.328592843759715 11.074456896367161
Ag 6.378809551283588 9.416863012307383 8.225810952681512
Ag 6.244257447557087 9.485181627576521 5.475295994999776
Ag 4.057339563178818 8.137679185552026 4.208906081749146
Ag 3.317543851463442 9.279740472264473 6.686758369256021
Ag 8.929703967969298 9.530065721961602 6.902903864144693
Ag 6.403781393342783 8.756251322093348 2.7823961824994994
Ag 5.647283351822099 6.945421102143938 9.655669016969895
Ag 8.38847404258297 7.897050682867517 9.69548632712985
Ag 3.0135456043716204 6.585208962224242 8.732697810438209
Ag 2.199896952537016 6.822461587047221 5.954236335465338
Ag 8.467619715799124 8.005354260200356 4.426199503749539
Ag 4.722913828726431 6.80906776265617 1.8563231930559243
Ag 7.650818587420188 7.126744802927608 7.122861395072446
Ag 6.346416589279403 5.972205028003437 4.645356494169907
Ag 4.928248104394468 7.125877349636544 6.803289340370995
Ag 4.635708987878688 4.286968662037123 9.4821138338691
Ag 7.7093429347375455 5.114243564363701 9.710070732032351
Ag 3.35144730511433 4.465667848264142 6.800223300992128
Ag 10.0493561583594 5.984503205774994 8.519889380467545
Ag 3.5254494913796117 5.322555288592573 4.015292002735083
Ag 10.481122649991224 7.277709282098863 6.113106139271947
Ag 7.684814909466263 6.273543004156588 2.2166817973022814
Ag 5.611987394273929 4.274522063900233 2.34944231618909
Ag 8.788131819162002 4.900995831906848 6.028809710929936
Ag 6.246604067052572 4.62764117885192 7.240854195107973
Ag 6.961755539391083 2.5411770673739746 9.15746316643627
Ag 4.797511311446745 2.204516686858096 7.472029480428942
Ag 5.2264677350843645 3.245274360662035 4.902101057420396
Ag 10.05482428508483 5.703861024786893 3.72067036563858
Ag 11.517716690704102 4.6850439775615955 6.483966373513368
Ag 7.893168984719501 3.6197899602700643 3.707018619898922
Ag 9.515541046480372 3.2332064993226686 8.160376143790755
Ag 10.072791701273077 2.6191036795504483 5.190890356973515
Ag 7.4987094516277235 2.283628523686068 6.285372366705184
