40
Energy = -85.6218472 eV
Ag 3.8169833849148604 8.950024961727337 8.024672529993124
Ag 8.580958668885359 6.7177324851085025 10.278527224494267
Ag 6.170802631141427 8.011627922739933 9.436442534032544
Ag 1.3985911887539313 7.374462345274077 8.345189127647759
Ag 3.892110863743111 6.383862361110602 9.217146132880899
Ag 8.623741472849442 9.214704269017721 8.978943648844417
Ag 1.4737799708342827 8.680105314262946 5.790073173894229
Ag 6.304608298041371 5.159958336444006 9.979026555412592
Ag 4.18309942372282 9.309192062549322 5.276668790270667
Ag 5.82716537539327 7.44991419700613 6.662820735238076
Ag 6.579885402565921 10.01710570937271 7.139253563999881
Ag 8.870265150705642 3.961645333599007 9.536755885090324
Ag 10.459262013129996 7.026966091600491 8.152807217795639
Ag 3.1736545858717515 6.6336404769078445 6.24567108374554
Ag 4.088884910652842 3.5013232134849765 9.46296542509758
Ag 7.914429897285446 5.681399459550486 7.651731436968497
Ag 10.824557587126524 9.72443991948469 7.306892151845238
Ag 0.2792944724332059 6.046627274455008 6.174026465821088
Ag 2.03741197283492 4.624067004836405 7.921950096315042
Ag 5.147946823112431 4.871213147899204 7.17344633106386
Ag 10.039777470977041 5.456781218709133 5.7796624873022715
Ag 11.473998407242744 7.808764283290511 5.464917517104182
Ag 9.266772154237513 10.30153187633649 4.947427005153121
Ag 8.642154933786033 8.098181575404574 6.362778063293928
Ag 6.567238975052213 2.773756566915253 8.278544661587643
Ag 1.989430166307501 6.164806778586707 3.8251090627655926
Ag 3.839496555963986 2.545368110829896 6.6844317215106015
Ag 1.5398491253984963 3.7282160490850593 5.348608843718977
Ag 6.80896319278375 8.971945167667537 4.353538987953016
Ag 4.102869916538611 4.350052023298834 4.4532710048868775
Ag 4.7343287514331855 6.953994653446891 3.8139990240972184
Ag 7.330415774283651 5.930232690300567 4.845219993514497
Ag 8.896621406554898 3.0882334786077434 6.808256216108574
Ag 9.324101483948425 7.821067487740665 3.5311155216002628
Ag 11.381594773408253 5.902902307604907 3.4127739500610845
Ag 6.4358251240075885 3.066701305411559 5.373851955724709
Ag 6.907855209395595 7.271336273223033 2.1496800056492713
Ag 8.840241669348293 3.54121895617145 4.0503775223394545
Ag 6.3272880972807215 4.474659353990455 2.765697309526038
Ag 8.9459633820981 5.4405085507217485 2.079980600438126
