49
Energy = -106.40546599 eV
Ag 6.178673761924077 2.7880138621657187 2.408131959435279
Ag 4.942845834964556 5.32364675442778 2.005198113583978
Ag 5.295336124579892 1.1308114716083302 4.611618645894643
Ag 3.8898604547602464 3.4471869882902952 3.9608328511356925
Ag 3.4264633308231884 6.238736778557998 4.2277265618084385
Ag 8.665164985695187 4.15081942556256 2.5165833224258396
Ag 1.8187557736684206 4.275097985622957 5.663282589159998
Ag 7.497723880658 6.6018941643237605 2.098636560130867
Ag 7.920303652358951 2.1969700896126763 4.457068251010736
Ag 6.398509689744865 4.903919588278544 4.323066157557565
Ag 5.4139586195435845 7.92743546081054 3.320566954935622
Ag 3.551713283050598 2.2073575436897084 6.640732322779326
Ag 6.362670681872499 2.606887333898558 6.760231093889336
Ag 4.449063634102765 4.816770633048301 6.479993959694839
Ag 3.47962428816271 9.033452174719926 5.112824535804923
Ag 2.4828327630669382 6.856288627817833 6.789729777141182
Ag 5.572813416809408 10.616792646090676 3.990962819957324
Ag 9.2674369333205 4.645238561198715 5.190315789333365
Ag 2.3240127192014035 4.473480131914055 8.418695454433136
Ag 10.099112887923896 6.727977225477224 3.2158515428602237
Ag 7.924382848485303 9.267579093082867 3.052150529059958
Ag 7.081725078634637 5.330042398623013 7.0990295864120725
Ag 9.146038282744648 2.482278769518435 6.949487534649199
Ag 7.929066105052967 7.174236289168894 4.8966851655481
Ag 5.456904267008603 7.520275999578229 6.3268487180005195
Ag 4.923763943057634 3.5686845805923273 8.992316605215704
Ag 12.435424974721064 8.05044438459842 4.124747818131264
Ag 10.861047669562296 6.789439785532629 6.044413254902057
Ag 10.024983233240581 9.204824702198216 4.892445154313657
Ag 4.749770819331091 6.529323741980437 8.910030918174279
Ag 1.958732093853347 7.087682610072849 9.545209163838143
Ag 3.2854474571531544 9.19354590170797 7.997085345809305
Ag 4.996404645455166 10.947729366681877 6.706220965660841
Ag 3.4547452095682627 5.126488177335133 10.924741219139788
Ag 7.469268689234526 9.867975084137237 5.911971771870836
Ag 6.240756155659707 5.054179215584242 11.001925806642527
Ag 7.798519618516893 3.6345778934197766 9.198020334716832
Ag 8.395264955116673 7.748798881515919 7.547140590446364
Ag 9.863513848138929 5.089018592666264 7.934529045407003
Ag 8.572314463580733 6.34585795840063 10.069545189026336
Ag 6.096336078278767 9.032143367549798 8.618968550051806
Ag 12.216709693815682 9.12962224930643 6.717895510953041
Ag 3.9178942773409227 8.778498773393213 10.65820583680883
Ag 6.465825025316635 7.802831227330105 11.116712554691397
Ag 9.787023405677322 10.245114548964725 7.595029234104877
Ag 10.84222062709659 7.7589193990721075 8.820688376845244
Ag 4.727467638169283 11.253584183043388 9.493577651475679
Ag 7.376018004876153 11.471097845278067 8.364168151794052
Ag 8.62022811464944 9.204939278147538 9.961278885456611
