45
Energy = -96.55232045 eV
Ag 9.62970766141138 3.6118827322429032 3.792438654156439
Ag 7.886192723335062 5.158438956457288 2.27275092483915
Ag 6.066250039745722 7.1673956534666665 1.5019416350364077
Ag 10.44667178754999 6.190679867323948 3.2617902033520547
Ag 8.362575375768145 7.914652111640297 2.9361898392780663
Ag 6.4698283579934746 9.88447787611083 2.1958636298690353
Ag 6.94106991485399 3.1485821476843823 4.558404520857351
Ag 5.267745400680124 5.188655576309278 3.502312531717241
Ag 9.193037333102605 3.1123703319929388 6.426558518437993
Ag 10.855895102410104 5.28683178428125 5.899509796716331
Ag 3.5084773048974034 7.415320034308574 2.846002163238199
Ag 7.962700950407808 5.73277131863373 5.0189442340537935
Ag 9.787749536139373 7.944684225075669 5.50378503557431
Ag 5.846251452534714 7.956992109489905 4.252997207166255
Ag 4.368618630365637 3.378118455447048 5.694507333382132
Ag 8.4841590958082 1.8539379181874285 8.810261412305875
Ag 7.864297186340017 10.089076622406571 4.635320158958487
Ag 6.647875161133491 3.735325386549828 7.368429790979526
Ag 2.7768989344445925 5.5727327113395475 4.857166202823627
Ag 8.793240440790449 5.754295563500788 7.686261475692792
Ag 10.513734199125226 3.890774685819967 8.815750947347357
Ag 3.983395202344573 10.124491416388368 3.5398991851134167
Ag 7.245463424867779 7.978065948807744 6.672480442602361
Ag 9.347936670508721 10.542262158321035 6.876601848970606
Ag 5.979568616232901 12.069921438045212 3.929330314386977
Ag 1.8285968605766123 3.920252786597339 6.86156915851109
Ag 5.242650653591427 6.019117599395637 6.279072548178845
Ag 3.28585049372753 8.32382439667811 5.556687153805183
Ag 7.962214513516964 4.2008001567849815 10.081916107904954
Ag 5.8604347951757845 2.325726618051128 9.695249859002438
Ag 9.63220817718278 8.312298788066743 8.343408193506194
Ag 4.087769112448603 4.302218825247915 8.483621066324876
Ag 9.818097491318412 6.316383067066078 10.290880369645
Ag 5.3005836272112195 10.285901468409373 6.0667688690024955
Ag 2.548597650024367 6.5350647223118346 7.539206179842561
Ag 6.307925617914727 6.2918807454576875 8.879136338198771
Ag 7.2032020119586875 12.24197871846845 6.462186205560685
Ag 4.580004116581532 8.48350521926311 8.029907198819652
Ag 5.324567503429844 4.642373409268834 11.076463338049406
Ag 3.7050247268866934 6.717604778446126 10.062478438908352
Ag 7.392212174389419 6.510496832055784 11.629479428066372
Ag 8.601207847233512 8.901184787472166 10.81105483970021
Ag 7.018030240995348 10.04837181535399 8.473564300819854
Ag 5.798529121808061 8.599554754579323 10.554824130942931
Ag 4.85447762520647 6.916239639555962 12.642061371914126
