47
Energy = -101.88742138 eV
Ag 9.59882466005278 10.802423064311968 9.264785668376854
Ag 8.772580609385983 8.577157478761142 10.616422447755262
Ag 6.844360872911711 10.218547701838485 9.30585503916734
Ag 11.140081075547236 8.296357410394924 8.980682696214206
Ag 7.929843657041774 6.423693367296142 12.100286180111317
Ag 10.148045265205381 6.066842235061386 10.35460573513022
Ag 5.9521280552617375 8.165961943618745 10.998093024552725
Ag 10.91530004062036 10.24682717653332 6.915013339708995
Ag 8.10903759096979 11.225238300109472 6.9104254779145275
Ag 4.220854016142518 9.179808028929267 8.95706651112838
Ag 8.634680155853506 8.524371889316017 7.671516634795088
Ag 7.422730081850774 6.503284021829979 9.15368150700349
Ag 5.347256290474728 10.973153266567836 7.053521221568373
Ag 6.547573372575739 8.527879509689209 5.788883377312438
Ag 8.12963928575864 4.040224337476259 10.703852539443062
Ag 11.708211443406347 5.6978541376179495 8.007240417153863
Ag 5.59889571760139 5.315580040597077 10.95665553039005
Ag 10.881365516772869 7.5587960265021215 6.118994580779295
Ag 3.440929779618198 7.038956398517028 10.528127466123006
Ag 9.134037719666422 9.503914946823246 4.901199726033754
Ag 9.301006369585691 4.3675905929652465 8.2424828737844
Ag 6.59551852614226 10.938672273700464 4.495418918142661
Ag 3.738279228903068 8.924784857381717 6.211735858855518
Ag 2.4430554149798183 7.009209762785128 7.898859115935774
Ag 7.657667082993485 5.968454681178988 6.324584502267626
Ag 3.7012918409691715 4.6703251647381485 9.066940934399767
Ag 9.150607549274914 6.874533297154546 3.9823143221364248
Ag 5.0378203355558915 6.423714907452017 7.158559923888018
Ag 7.39655788858708 8.736199024645506 2.873698045746979
Ag 10.189810932393073 4.884079020979806 5.667093097186061
Ag 4.671543737276055 9.061080831455245 3.5330381608718757
Ag 6.40433318227918 3.9524282446642496 8.424322162352542
Ag 5.353053657066816 6.447065862288382 4.281571123204715
Ag 2.543314664424293 6.781854836242733 4.999258310376262
Ag 4.222505879620552 2.3142524806558256 7.679558470948313
Ag 5.38869087798828 3.9657847897988265 5.676479966700852
Ag 2.710236916724123 4.448954450165273 6.47145301111431
Ag 7.910736850847681 6.316390425992097 1.5378511967045552
Ag 5.531959637819111 7.742214722147008 1.1060459631586643
Ag 7.521099749074712 4.590534726744798 3.7583707023949615
Ag 7.983437665458559 3.078910070166625 6.148178373169655
Ag 3.231333242373236 6.869296086884586 2.3230453435456204
Ag 5.933127740353784 1.2110659926512883 5.661348906356654
Ag 3.281148570816123 4.424113230837879 3.638863624195952
Ag 3.2712071696141627 2.0327878266660644 5.048087677015309
Ag 5.427799978595577 4.994669414209756 1.8017421793900688
Ag 5.4416670861959275 2.5993481262877327 3.2173750981260327
