49
Energy = -106.13070588 eV
Ag 6.176006291415852 9.505108744249146 11.0141550447744
Ag 6.974056119541073 6.84218150405317 10.758254837986433
Ag 9.706397197176612 6.332914417222097 10.181687753111214
Ag 4.235890816022921 7.664128396377415 10.062162304305298
Ag 12.428818428251356 5.755833179195953 9.916841019210999
Ag 8.736390901431093 9.023084660599999 9.773807022449844
Ag 11.406036393272068 8.240714498370155 9.042851867625648
Ag 6.86403060968929 11.324992323218876 9.016559995954324
Ag 7.827951519556114 4.148566738809858 9.987802378826588
Ag 5.265281987424939 5.16734621130757 9.197668679038609
Ag 2.449345051036384 5.784425596458937 8.968740508448127
Ag 2.1557529696062456 8.616931768412773 8.228334929871082
Ag 4.183366719275641 10.33749954903521 9.184308549090053
Ag 10.637778957926768 3.6977521861806606 9.655220820769038
Ag 4.222152182603407 7.23531192133908 7.18708481665162
Ag 7.710424563664439 6.2567354849443175 8.159630516964969
Ag 3.6510840123818884 3.725454166416932 7.431679903035654
Ag 6.445217296908227 2.8545409198970466 7.7411750999634625
Ag 10.947817381246583 5.860326622785171 7.524305590113187
Ag 0.8881626106184618 3.9439054572450774 7.482217851473693
Ag 9.361188002889973 8.329770799992597 7.127445404652841
Ag 4.745036816064204 10.174121665609599 6.445708804242757
Ag 6.388865759253794 8.699808081015295 8.271588145163035
Ag 8.72008842623262 1.6848670534383041 9.06155866773546
Ag 9.109152996436253 3.782455036617729 7.326376734489327
Ag 10.968534838962062 7.176850072730945 5.068790305062134
Ag 8.482173824686543 6.020556077681687 5.544496014337188
Ag 7.617926406351357 10.446631710870518 6.460051946316708
Ag 2.2499837358444887 4.004497453313949 5.0295829926312265
Ag 3.4512370838270416 11.257566900072826 4.2628679328120995
Ag 2.4861941298217163 8.837640850419204 5.350567927578916
Ag 8.72561190923101 8.8857615811145 4.392282643161835
Ag 6.310649296665392 7.859507746695753 5.429833749763284
Ag 1.611586760340286 6.39797583287781 6.334341505171346
Ag 5.859790753141153 5.155717432988682 6.273210621400579
Ag 4.926169648487442 2.7080879054257876 5.169571019054021
Ag 10.4739133714974 4.342553984019839 4.818371928015268
Ag 7.713125110466256 3.163644850784726 5.0439695462867356
Ag 6.256561836423563 10.434749846261658 4.026367994386062
Ag 6.462192747222965 5.349863156867881 3.543694932294172
Ag 3.9766241267609193 4.084760406803413 2.910903246766288
Ag 4.1293003798699015 8.871077436846429 3.087322389503837
Ag 3.7886265835397523 6.40615943210378 4.461280247051169
Ag 6.784157739675686 8.035859936793404 2.5169157819642605
Ag 6.345076188864936 2.6091461417753137 2.649549207452856
Ag 9.219531061018424 6.504131671904767 2.8779462270524405
Ag 4.569214053576177 6.542547362895407 1.7011262420224236
Ag 8.828333006646377 3.803005772339212 2.554076345533816
Ag 7.284496697909892 5.6574203236784975 0.9488801704302884
