43
Energy = -92.26838165 eV
Ag 11.635128618995898 6.025416932357963 3.031573022287338
Ag 7.480165592990973 9.835560189316157 2.8969336695049788
Ag 8.967577697704126 5.274110345106214 2.8541399861582386
Ag 3.586365195724098 3.8590995991439145 2.4685115603363164
Ag 9.62824678463614 8.000701693001224 2.866807042920887
Ag 6.315820939857058 4.593288498703785 2.6377335816634946
Ag 7.019314020861273 7.183079165793585 3.682090650590994
Ag 6.448244842972496 10.773176935738622 5.427544611802503
Ag 4.992523675645588 9.038625826203514 3.886440240453729
Ag 10.405313302971607 4.877887532351004 5.236581061882681
Ag 4.2641538871780815 6.500118268929831 3.003279982688194
Ag 8.852118305247217 9.318680221107387 5.230404384423174
Ag 4.891913083976249 3.7526835399581118 4.885491782623996
Ag 7.508673154241959 4.893057297327048 5.277610158273614
Ag 11.136611722101321 7.665409953289821 5.247104307690838
Ag 3.594068005960925 11.102598354982645 5.166272774026061
Ag 2.5745447492783047 8.196510981370208 4.78372385628503
Ag 9.311876622857346 6.663280701910296 7.1037154626672665
Ag 9.02546905726193 3.8472014534939296 7.431849577112115
Ag 5.128892294375225 11.717617709629085 7.639279746930353
Ag 4.91754522416749 6.582969448589077 5.752373697955102
Ag 10.396915612093036 9.23360625764526 7.483005292717188
Ag 7.942162248332238 10.682962820325528 7.800532494426408
Ag 2.531929207980814 5.216723576167958 4.853264503587898
Ag 2.383714443801986 6.782094257400627 7.157649981003344
Ag 6.368953057653869 2.8733369480744764 7.031176784916437
Ag 6.825671738442243 8.216246684242059 6.825771139004337
Ag 4.0329591576060375 9.182169975219548 7.0246340415456245
Ag 9.874657062318345 10.305314045902966 9.978266083479179
Ag 9.034330563813395 5.462922301756461 9.749207720242644
Ag 6.790895730837804 5.614700723823228 7.961341340631561
Ag 10.836534359167821 7.613387953499677 9.721162132817764
Ag 4.060965392038659 4.487851228043972 7.5280615495302055
Ag 7.344875212942615 3.195995124838758 9.630883398596309
Ag 4.571143024740684 7.116652647882117 8.767608238978381
Ag 4.701112095546588 2.209977728264546 9.175913504658842
Ag 5.725820571520381 9.59960151177791 9.31794925644274
Ag 8.187471973886435 8.215227774304822 9.276252736589717
Ag 8.93456348144748 7.290229935643815 11.848723680629075
Ag 5.0115551243191465 4.787191721573909 10.220282973934568
Ag 6.2316226363055565 7.26830426405704 10.975403264151938
Ag 7.345594468929029 4.889598957460218 11.933179792883472
Ag 5.7300342818686305 2.6175988124521594 11.815875588478098
