40
Energy = -83.96369411 eV
Ag 11.98239702670108 3.729358487543483 6.726618387515713
Ag 7.79280498782468 6.571606607426947 2.180945045976877
Ag 10.998061517317883 5.23788650797904 4.591942381905137
Ag 0.816805505643338 7.642955903684796 8.51706684405247
Ag 4.562056158341861 3.590816083652189 7.792619837967906
Ag 7.50254897192163 3.0832646650014914 5.523778160922522
Ag 4.3147540914519205 10.498046914866677 8.70193128522516
Ag 8.710517335221795 9.153388964322309 9.685115622892763
Ag 11.000829386721545 10.508593350742405 9.027127442347458
Ag 4.7124254295924 9.454958415129509 5.059030141749173
Ag 9.347766192441808 9.8972104903641 6.866506910093975
Ag 4.559912834277219 2.483706516726259 2.320669293716437
Ag 3.628936814442712 4.9301363246365195 3.4226851065198414
Ag 2.57495522884147 9.088287041283644 6.9589107331423685
Ag 2.963916989102005 6.004624825776596 7.8320360159228395
Ag 9.815878600081232 5.343868136297257 7.200650021734795
Ag 6.653045295585808 10.20598288867459 7.274646819245711
Ag 2.4480491860372524 4.2323691424622 5.8578951152980006
Ag 3.1152673137075264 7.015105403379367 5.156665528185016
Ag 10.202525753125277 2.6016919822472224 4.880343053721331
Ag 9.09094729175332 4.090922310745787 2.8428290520052535
Ag 6.3667000809651 4.374230226673226 3.1909895877139105
Ag 3.3766204644834286 8.046226072408945 9.660975014822405
Ag 9.459916380603241 2.610582975588061 7.558160478873404
Ag 4.75773289837889 2.797380473291081 5.08480603852233
Ag 5.075633600074829 7.9088664311499 7.26481293194505
Ag 5.5300423796840334 7.092828574059118 3.7330145890284516
Ag 2.244424509685907 2.4197347725348126 3.8104703178992456
Ag 5.632458225483812 5.416031677312699 6.0333301534660535
Ag 6.1034470964533165 8.59434588855064 9.874844870140281
Ag 10.664384209783426 7.772066104481266 8.317080133232478
Ag 7.517341063417824 8.742492072842985 4.898524201162245
Ag 8.161230411657732 5.909464205468596 4.80400171435077
Ag 7.3192103842128775 4.309777846394006 8.068314716897605
Ag 1.5845814897772528 10.215863003122006 9.320747590173282
Ag 10.218384421865819 7.702234116223609 5.506851402346566
Ag 5.429640091694876 5.936143509122874 9.247211741158134
Ag 8.218579589542244 6.418179071995179 9.790126781645862
Ag 8.415528642428924 11.730047982913753 8.815014589836426
Ag 7.784083273600553 7.293065156853851 7.25505147057345
