46
Energy = -99.1980621 eV
Ag 10.39170169806534 1.9466444249306287 5.9652371598437455
Ag 7.960439419103842 2.0875942984108886 4.437691495924639
Ag 10.275871510996025 3.499860455147322 3.5885251706587695
Ag 8.018040587872234 1.4955881944611278 7.28222926500196
Ag 5.666819667364688 2.2161906167112058 6.086948982778248
Ag 10.803999649649656 4.651869465494408 5.9747225769216925
Ag 9.57659955383992 3.583830929312758 8.237071559850008
Ag 7.87287600440141 4.278259809994793 2.5434687037121053
Ag 7.65472815743825 4.621224651079658 5.534005248171346
Ag 5.402374916788552 3.585093083339747 3.7859388401842144
Ag 4.057337895673259 2.8024043850130336 8.188493126960655
Ag 9.272464009983175 6.406688659844546 4.12027704203647
Ag 5.006540150073681 5.453844939529449 6.274568160101693
Ag 6.70832758310505 3.811903957620176 8.20355819978908
Ag 11.413592991781226 5.815703456870816 8.472527143066149
Ag 3.082791258817925 3.5520748966696583 5.583901720677748
Ag 8.899376843591467 6.306004260897692 7.478486584781212
Ag 11.377996820720753 7.267150603578304 5.969792932641674
Ag 5.31462129232745 4.962388911479271 1.2945257485046182
Ag 7.520778901780414 6.781521154193559 1.1977030745283992
Ag 6.209000793297425 6.2624978484154425 3.548079660190795
Ag 8.156432162822906 5.1997144865759575 10.080493192272648
Ag 10.391689975763219 8.56994927710135 8.250157407571203
Ag 9.308591461146293 9.012908154557282 5.548506845133234
Ag 8.391281641790595 7.973834113927034 10.125328148667071
Ag 4.346272808764155 7.560198779501539 1.812223574480642
Ag 3.4738602160297467 5.7075438924824455 3.7939872933349537
Ag 4.6446374409951785 4.925780682234189 9.806223492543714
Ag 6.93500246756614 7.5036923550888295 5.876043504217621
Ag 6.26589735472463 6.790804875784207 8.487557608590008
Ag 7.6117662102804555 8.67335755737673 3.2440814215317477
Ag 2.501747817844889 5.056357904372363 7.934014791822383
Ag 6.7876116593251865 10.33292094596991 5.385891080305725
Ag 6.1119386173075725 6.793669200143402 11.278326517232973
Ag 1.1139473069925163 5.807976191280747 5.495258673207505
Ag 7.718851582978188 9.432967539703055 7.880502297954503
Ag 4.809689529633581 8.624111097767694 4.344221526452428
Ag 3.041216481551853 7.509845309409847 6.311209069561326
Ag 2.1075611551103455 8.113049788172033 3.565519488523694
Ag 3.5571736767720363 7.458352618109437 9.195881750048125
Ag 5.711124844360471 9.217527270745745 9.905097574339722
Ag 4.918901801696252 9.317333788752263 7.231880138553063
Ag 0.7599356595666904 7.156090918483695 8.090722930601014
Ag 0.46936461232186294 8.636069735279575 5.767835107852046
Ag 2.8068932080392885 10.23427362081932 5.385590537112539
Ag 2.1400325681385146 9.586895886145248 8.04033282088081
