48
Energy = -103.87255065 eV
Ag 10.454230840214516 6.4845537123014525 1.5199578605744095
Ag 9.781410027777966 5.064062398191144 3.8235279674444254
Ag 7.8010804278550685 5.373543976339926 1.8486679167790037
Ag 10.816423254165201 7.646797610489046 4.061200791801702
Ag 7.336275940529071 3.5298226422026233 3.9157781758867194
Ag 8.46230277231638 8.050041450340435 2.465559696661748
Ag 9.245195761940158 3.497323496228132 6.076909377777054
Ag 5.183162788556513 4.493360521779314 2.3537561302192644
Ag 7.274696604852822 1.3136717215802742 5.7835035235258285
Ag 10.389669767194405 6.132724430179051 6.4902520750894155
Ag 7.668748584590962 6.142561655837426 5.359226987145532
Ag 5.910569701870953 7.1186470992418664 3.135534933896137
Ag 4.789803831596092 2.4124639694117196 4.844980307395451
Ag 8.61190094884442 9.199625013007166 5.001376645366788
Ag 10.587993168466536 4.02457412424518 8.625775369743817
Ag 6.435153796870595 3.789976582544412 6.596340491107517
Ag 3.1282738620861394 6.613611097132832 3.320065283556187
Ag 8.048904159264392 2.4024345561862424 8.478314842720367
Ag 6.5191956527883095 9.848101419254858 3.247239748416146
Ag 8.230367101126726 5.240510484328285 8.12897614865918
Ag 4.7676743213076715 5.338571449210778 5.026032797854245
Ag 2.777169474722241 3.7515461662638137 3.5014930728781803
Ag 10.933944403703537 8.937317084542826 6.491286689391389
Ag 5.230064451627799 1.6849258442444284 7.8164372436256
Ag 1.9163767810093282 5.278378443826937 5.600719844881138
Ag 5.985293560589577 8.475527107924837 5.6880565066083335
Ag 8.496764961252662 4.248199455557783 10.690087634382397
Ag 8.36336773208914 8.031654316425616 7.634024569946403
Ag 6.67448110200874 11.265948665996014 5.6465305433091455
Ag 3.4295675571662536 7.548259807996203 6.377527882617964
Ag 5.877311524784774 4.020284445049235 9.432228706249433
Ag 8.917369472210721 10.879782877826274 7.265541758731385
Ag 5.7812892166618 6.384287292071604 7.520855177488696
Ag 10.491881475711082 9.469746660599784 9.144262800556522
Ag 9.861431124128721 6.6915036663851035 9.764081823280522
Ag 3.743128142864738 4.257742751045784 7.508073617773071
Ag 4.269921132110054 10.294508508630617 6.952297824642634
Ag 1.6870957990805922 6.257848006334858 8.182555239145602
Ag 6.79705415631119 6.558928294789216 10.285614935190196
Ag 5.872662299339091 8.90591702087469 8.761779700294015
Ag 6.461800306787906 11.800134029933643 8.35875457592708
Ag 4.030165299323739 6.2031323150741065 9.738392506418476
Ag 2.8482608095405624 8.615611957545473 8.991365508314848
Ag 8.815558217026933 11.567362486180143 9.940266517177118
Ag 8.266911245681259 8.85194668578152 10.639965357428874
Ag 4.675560629564402 8.526998822578767 11.215160850367687
Ag 4.016502216663362 10.99748109301576 9.661464921800643
Ag 6.39133485581656 10.757215249789667 11.012100124276273
