46
Energy = -99.18293297 eV
Ag 11.238779898813597 8.354724839125595 6.363764450216729
Ag 10.390074302266278 9.630795865427913 3.96680577162736
Ag 10.272355530782372 5.802315960082836 6.099760495093638
Ag 9.629825327857423 6.367461034455701 3.308349672564115
Ag 10.83646448743603 3.981445125863534 3.9828789419471353
Ag 9.157981915000159 3.26185005688874 6.081685392900345
Ag 9.540808007391322 10.597182917601485 6.459668712391467
Ag 10.868141572823442 6.797077086167356 8.957263847507345
Ag 11.263832340891625 9.771116731946586 8.70545707306805
Ag 8.304210449989291 8.652271587216541 2.4221817297850046
Ag 8.642174647511355 5.082257961295379 8.268275214113155
Ag 8.578146789995673 7.981283606313805 5.319815835396627
Ag 7.117567862359843 5.514905744394401 5.773400688137061
Ag 6.716875348751375 6.47389445686532 2.94014002986914
Ag 8.049029623877725 4.034533451620351 3.5249026459550095
Ag 8.562144190331962 10.99961375054863 9.031258455308839
Ag 9.570978742160971 9.0366278366702 10.765923246935564
Ag 6.707170216389839 9.942694493604773 7.172255841466457
Ag 7.6089824900733785 10.484574459034775 4.419619713766626
Ag 7.529725462576488 2.4914090559333744 8.223787500828832
Ag 8.821841987985641 8.256947646298403 8.079366697329949
Ag 8.19949004638829 6.699019199291374 10.451509627467065
Ag 5.788183655737429 8.076922074134039 5.173696071708966
Ag 4.914809187576653 10.775038460498427 5.18870119319688
Ag 6.122638988070001 7.073195020876884 7.874593244320195
Ag 6.78432923967975 4.353376171661283 10.304962305396945
Ag 6.47236344579713 2.744349357904484 5.5645217434731595
Ag 5.08636096012664 1.1983976971926913 7.365430909644785
Ag 5.466788593835175 9.137923288408714 2.717218914795474
Ag 6.738024665695966 9.083097365454302 9.914092051730364
Ag 3.8943654558711973 6.7638372054909 3.093994858780901
Ag 5.318780054511783 6.734237869825337 10.50492958804279
Ag 5.294563212706784 4.201350211717782 7.917027428529595
Ag 5.230613238409892 2.083788857182417 9.968244157943056
Ag 4.230940109312884 5.8652435521576525 5.945317171224129
Ag 3.967245460012267 8.899058803056 7.118301969378492
Ag 2.9754392733010078 9.063048882637712 4.339276462743681
Ag 5.112910517059662 4.320287585562333 3.73506953749361
Ag 3.740787596921598 4.430141929190892 10.285986688242273
Ag 3.609690906676092 3.0208304461871913 5.819338111580417
Ag 3.296269713673306 6.587458443104961 8.513047380038975
Ag 1.1139986071721635 7.262496005254703 3.3350546374749275
Ag 2.128252882000117 4.890379977890296 4.317364954181353
Ag 2.7921751776783577 2.460364528773268 8.51185056769937
Ag 1.7585004974005236 4.628388160204298 7.16243252998216
Ag 1.7666696634552268 7.225519720200465 6.118663063885235
