42
Energy = -90.06834101 eV
Ag 12.129901511651 9.401820293511935 9.194717081741041
Ag 9.407257972673241 9.791279407928926 8.743787577253553
Ag 3.827101050929936 9.288428027333314 8.70148579342272
Ag 10.230489391831911 8.003382507211372 10.742182587124088
Ag 11.113669308732316 9.06264380342428 6.5773407906643415
Ag 6.493502796983447 9.966349949063373 7.789963611659908
Ag 4.846879281592272 7.482954280302293 10.673991826365462
Ag 8.895964832457727 10.793789714604019 6.175317668988648
Ag 7.5277842135185855 7.987601688714851 9.897024961128954
Ag 4.282706867705495 9.121256934815616 6.007661738550048
Ag 11.14163385476262 6.914261791204134 8.331813258330609
Ag 2.7294265230397703 6.985753857184502 7.23665478290618
Ag 6.595215725883271 10.04244648519241 4.85486820851129
Ag 8.30204615021507 8.053574779616204 6.853111901435009
Ag 9.14346266640235 5.618372124031602 9.8197121032372
Ag 2.09412671366072 7.482252034432145 9.956089236091698
Ag 5.644066469027002 7.284757164624492 7.915126907624088
Ag 6.437613983853507 5.29337700052446 9.9621541965487
Ag 8.640078287605109 11.067368854058781 3.298239123707555
Ag 9.46685498481129 8.663580000486386 4.3246990833614785
Ag 10.254594008988406 4.372493439021357 7.590685324693232
Ag 7.356647089622699 8.625367876578672 2.513719388025261
Ag 3.7012845063124837 5.302942907821334 9.391928865473327
Ag 6.2487907663434665 7.173585125472783 5.099500089721597
Ag 10.248905735908725 6.371159927123036 5.67411184755589
Ag 4.626144696624506 8.925519085006881 3.1372036391675535
Ag 8.034524999742052 3.1882909639551436 8.939757756117537
Ag 3.3976531269365866 6.88682472702834 4.507206631944309
Ag 8.372726899288871 6.156060691982721 3.5109748239782785
Ag 5.218958667039935 3.054909983760961 8.638358862579107
Ag 7.565622634967298 5.330152531468748 7.086280978088864
Ag 9.01630635316723 3.898093382557739 5.096490601713028
Ag 2.0034100351165898 4.6319461674418765 5.223036307893139
Ag 5.715181996507369 6.37894837974303 2.393281920252494
Ag 6.794464100669532 0.7767133231417424 8.459153643077608
Ag 2.6994615550448886 3.461057338020884 7.592716717665596
Ag 3.062263030057606 6.920446540483394 1.7461220463747449
Ag 6.342802039986807 4.301887575619504 4.200654986153822
Ag 6.780378347461041 2.6154282663559356 6.3808356851175985
Ag 3.7047471685313935 4.506467102998579 3.0328310006292365
Ag 4.706649360806004 5.07184775502294 6.473642615514247
Ag 4.153778919605246 2.6996848371937454 5.2106424556752335
