49
Energy = -106.25998584 eV
Ag 9.956604086935185 8.277417272914239 9.149623598136188
Ag 8.946879852605864 9.637236694228742 6.922576583237647
Ag 11.633324916800447 8.754265949493071 6.87486836829959
Ag 10.534917604174499 10.163304499598826 4.637627285427796
Ag 12.539532161341533 7.3011749968942645 9.160950654451533
Ag 7.70848822536383 10.484348689278995 4.587869205236908
Ag 7.375418659941414 9.4495828735495 9.377552490788146
Ag 7.713592069831943 6.611829162444597 9.700622899733931
Ag 10.491676012797239 7.433441816057173 4.672862382493142
Ag 11.686253131039434 5.941073230454063 6.890193854742741
Ag 6.318857129099045 10.757217502582055 7.05561300352277
Ag 9.018107869263583 8.801863580686456 2.6215785045301034
Ag 8.949193026236445 6.611081568762313 6.922419362156467
Ag 7.418192951637052 7.547481032763687 4.496517728660636
Ag 6.243084352135683 9.661421152526266 2.3838720057935325
Ag 10.31354352300081 5.475545822059265 9.37574543089155
Ag 5.09859505624321 9.266780404689973 4.922701931801356
Ag 4.588639692051236 10.179888964364679 9.208849547784599
Ag 4.970882455697063 7.482694264648891 9.580698123265961
Ag 8.974084275672915 5.901426768234577 2.788673351093758
Ag 10.56365851867848 4.6295341804964565 4.701162910400881
Ag 6.5433396643708095 8.005558717777616 7.184151992569278
Ag 9.689874801856527 3.821060602095388 7.203825395687786
Ag 6.419766770373353 5.2279005443994695 7.607713941363594
Ag 7.924664753863568 3.7673648188917337 9.382014479054442
Ag 6.8355384544054205 7.0754972850484465 1.5301483841601604
Ag 8.760374732903191 3.173735963733294 3.161435054485548
Ag 5.4073482794735845 4.8815450487632015 10.29359268776457
Ag 3.701255951957864 8.447796142994333 7.207479815748142
Ag 3.658759522766305 5.290914750961488 7.871980326275705
Ag 2.299575391446707 8.582071229944965 9.647842093286831
Ag 7.3291147263493075 2.3928689912212087 6.780812734642549
Ag 4.426204250177937 7.5468408069476025 2.8619453376819703
Ag 4.999417942867915 6.384908576182183 5.478039372401684
Ag 2.743280869331628 5.877495959237448 10.413863712664615
Ag 7.661790215820079 4.714484204444724 5.1648230036793965
Ag 6.385643647988355 2.1157735387684315 4.152628786275892
Ag 4.428310470293864 5.64117634068947 0.877988943220376
Ag 6.079609871950137 4.689096056576174 2.913164961559045
Ag 1.2784914863279428 7.047706543635643 7.468670797944884
Ag 5.156874968238712 2.822844549904758 8.45630342480723
Ag 2.490176240733368 7.390485339943877 4.9258118853480255
Ag 2.622708100701151 2.5750218800492704 7.313610198875203
Ag 0.13071419707842075 6.76026150567305 9.96796925237765
Ag 0.9921170474571214 4.47122578848873 8.562643346763968
Ag 4.8542400354297985 1.0133232991201442 6.305800635883999
Ag 1.793324919607539 4.793215513175594 5.796841439740511
Ag 3.3044112447628984 5.059047294816034 3.4344617973908944
Ag 4.654895795852216 3.6775182047205144 5.617206900828895
