43
Energy = -92.50450223 eV
Ag 5.862020449080399 11.09593850337216 5.3677637055516945
Ag 3.501047539684668 9.780020683960347 4.167471280055161
Ag 6.042097325322807 9.191858989061249 3.1663677951700673
Ag 4.264782760237512 7.098373470116808 3.877678651631171
Ag 8.334843181718247 9.857470717210031 4.5052244179063585
Ag 8.539153569545359 8.527031525565764 2.101267381583742
Ag 2.7017572603533497 7.786008619764964 6.097111457160259
Ag 6.444433587538676 6.6112980503768295 2.057823753008869
Ag 3.522103478396086 10.319686309475562 6.867465582764314
Ag 5.587712348620726 10.305632621414714 8.642743206182509
Ag 7.926442623604443 10.330671618353774 7.2309267436043
Ag 2.0913744011151443 5.277620852863348 5.1309184644243615
Ag 5.767344356875944 8.459278677578562 6.091873795914816
Ag 10.377782345052317 7.911829657886668 4.178175181719247
Ag 4.412963612257149 4.353368048248228 3.955570535028408
Ag 10.550297079359748 9.721009513301992 6.2518280419139085
Ag 9.135287113090309 5.81768539615717 2.857480179438947
Ag 8.528882421244878 7.636400871407838 6.3995837066467125
Ag 6.975695991112227 3.9665225333062093 2.910308216324186
Ag 6.850225976412053 6.083565469441186 4.733365587762687
Ag 2.410700028665988 5.5590003365278475 7.963492631201764
Ag 11.258226698607594 5.341497499881803 4.798954082630612
Ag 7.921142131644341 10.568305483480339 10.070525388600396
Ag 4.050797158819886 7.990815641412862 8.526185477648381
Ag 9.795596900544421 8.908635367730302 8.805409874869888
Ag 3.517927475555383 3.290765937515886 6.604020285182856
Ag 11.152301133639197 7.039816232195189 7.042808205828882
Ag 6.844549778480825 7.48857816172031 8.618058974526814
Ag 7.538542614619132 5.0953393720553155 7.305769258622058
Ag 4.8340932914226915 5.814321611742697 6.6327254608988016
Ag 8.886151748537834 3.9549464212295677 4.966328412311716
Ag 5.819604736899232 8.55227642720106 10.886869620488657
Ag 6.229943809972528 3.1850538897936524 5.617540874430009
Ag 4.831559439609643 5.530490571194427 9.496788808429022
Ag 8.641595029427164 8.133813821405118 11.233270029892925
Ag 3.191930392043735 3.2569412555704726 9.448619112393727
Ag 10.283727194420253 4.362091569520919 7.377813636361305
Ag 5.728889843851878 2.9850015613324614 8.361458774793542
Ag 9.357066662494109 6.2221149274022896 9.243492452614742
Ag 8.10483205936377 3.714198448387829 9.69737160242058
Ag 7.054548330250936 5.900062723152051 11.066624270862716
Ag 8.306318443712058 2.309132171706163 7.269618824642811
Ag 5.5800974045942455 3.4219181667781617 11.131695984353568
