42
Energy = -89.62037483 eV
Ag 9.478327256938606 3.489104144816252 8.044655228323258
Ag 8.858747416805388 3.1333426244082196 5.364257144714436
Ag 6.938470619465789 2.3939160527761807 7.400624373769239
Ag 9.705825868706867 5.61093094826052 6.318582522267809
Ag 7.517657524928333 3.8545916649688947 9.886141917341773
Ag 9.539855809671922 5.406517575020134 3.40131850524988
Ag 11.38632702983226 7.289237446427632 4.8463346921830635
Ag 8.965286886752239 6.271566143589543 9.01077187231681
Ag 7.0006153823592765 5.2001018739196585 7.138712362736913
Ag 6.938405860562224 4.952034684269841 4.3053347221889755
Ag 8.017842204471314 5.94330165780661 11.673325734893945
Ag 10.087933039544296 8.0500561560726 2.485538598020478
Ag 9.912024195051973 8.34511336480409 7.137207236987749
Ag 4.721506239477325 3.688046549620839 6.117581347063032
Ag 6.383276514815427 2.0269078252447046 4.618143893071627
Ag 5.398444918007566 4.705235891677182 11.675918034020603
Ag 4.908437948669197 3.803076075572946 8.875288351318297
Ag 8.481696837744503 7.675247921075617 4.813537542208642
Ag 8.139059016512595 3.049690581742613 2.607800352763076
Ag 7.55630832655597 8.485879167310479 10.462707840224413
Ag 10.463864462157888 9.920332102628935 4.81676132861585
Ag 6.418861357198478 4.981073324969321 1.5781995288328503
Ag 6.089705911010961 6.339032757073042 9.542274588947539
Ag 2.570645752475461 4.788216255377762 7.581640296439078
Ag 7.355137160006945 7.4918433774355915 2.2786871116361893
Ag 4.506842023699074 3.837427475997154 3.3585927203400603
Ag 8.346375594456688 10.166446745182244 2.998682975524836
Ag 7.204330490710853 8.160969031349774 7.648552062146963
Ag 5.786683079177261 7.161348361750346 5.445238610044884
Ag 7.861792642682301 10.21931303838461 5.788743380457206
Ag 4.7029170851089255 7.78043414009177 11.504917983689582
Ag 4.708948599763787 6.780671018043788 2.905716515589885
Ag 5.765239308722267 9.380262272716461 3.733214850750393
Ag 3.323181218319174 5.747641691649139 10.10916163173301
Ag 3.0973430588920006 5.69692072470056 4.972478951874782
Ag 4.099572820606031 7.15097652337494 7.658843403535013
Ag 5.111092389491889 9.318027241236646 9.196611346588426
Ag 5.223366078957722 9.797994228162718 6.4614244840629445
Ag 3.2671054822631245 8.515578232552894 4.819531010035357
Ag 2.5392069545677796 8.384410678988171 9.801769266805323
Ag 1.51962252533336 7.306709611557394 6.659064768624771
Ag 2.631679876777567 9.777582597643613 7.379135760291571
