43
Energy = -92.30513576 eV
Ag 9.70599404487348 8.585252329760428 10.595310453892294
Ag 9.194281054956512 6.175395215374486 9.121695495395343
Ag 7.836715740154717 10.577387913858646 9.642302267821558
Ag 9.05112989258389 8.74220236150501 7.903926978079002
Ag 7.120139330603921 7.8997063767158044 9.99908375636851
Ag 10.014429112452907 6.685592586219317 6.264662993032112
Ag 10.502118226894812 4.226496597179444 7.557357814390674
Ag 9.573811490624845 4.186685370272286 4.772379455518957
Ag 6.216943241595096 5.331880538786366 9.262558087915824
Ag 8.315453430511115 3.4631520757117897 9.265108776980592
Ag 11.504834938048687 2.4281431061803778 5.724138306239363
Ag 4.4421821136080535 7.315002608761505 9.992509061167436
Ag 5.187362718456199 9.827923710977513 9.11477916113078
Ag 8.873908667528957 2.1290108126624614 6.645489574137427
Ag 6.913885381232099 10.35282504469875 6.945240889412306
Ag 5.700802394894314 2.854758141372707 10.30814011404844
Ag 7.8057135730981 5.042973959529685 6.912981306489879
Ag 8.385451476470498 8.678651597718412 5.230444752193211
Ag 1.8362161691829426 6.84952510785776 10.668088544694736
Ag 9.442880164779515 6.666631422135327 3.454510048052302
Ag 6.2024355400300255 7.569476190123877 7.262002533474234
Ag 6.796431301707013 6.317606720322091 4.532995247626403
Ag 6.258238306455448 2.58174561708052 7.545289175533746
Ag 5.673589825002044 9.008078324662844 4.667268560484097
Ag 5.022060127058955 5.178640196801832 6.442773963254311
Ag 3.700076315491383 3.3436185285411337 8.246901573106001
Ag 7.789882607781331 4.51498969456506 2.543193740315532
Ag 4.052228032590131 10.163647709195162 6.628578291934144
Ag 7.539889870417087 8.548234707456215 2.577270222570731
Ag 6.943784428806799 3.1671829773925015 4.870457210355852
Ag 3.684443781654747 4.743578330164213 10.687920995282669
Ag 8.5864489723752 6.609667271285155 0.7632701312525006
Ag 4.9052947644482545 4.385084341589178 3.451298592963485
Ag 2.539021121378928 8.747453908767067 8.599185407016053
Ag 3.031383658602072 9.514400865057464 4.015539765597505
Ag 4.218849300119766 2.6393332208724765 5.568170659673168
Ag 2.535680781724591 5.858574232827322 8.154911951033183
Ag 2.5696585268820717 4.977547164929078 5.356837854974685
Ag 3.2437943752291982 7.588961360867225 6.133951351864426
Ag 4.85237485940966 9.048020020752784 1.9002817684541613
Ag 5.924393648881372 6.399330909842814 1.6130469871669328
Ag 6.778802847673091 8.590494672482734 10.687920995282669
Ag 3.96338483312949 6.925893545468941 3.571814981776902
