42
Energy = -90.42598358 eV
Ag 3.3019204297866596 8.49657655515645 10.703683120340326
Ag 5.049536943247883 6.584862583690927 11.777532553987047
Ag 4.134301805301102 10.344365111695993 8.72073659348903
Ag 2.2865372176141787 8.234558068048278 8.097661177915867
Ag 5.990251858206912 8.4925839990888 9.849205442655173
Ag 7.731281888031232 6.519590271587464 10.871165663745904
Ag 3.9689097558265622 6.207156440091505 9.185426874772231
Ag 5.800096079492703 4.352777104246535 10.222676372597613
Ag 3.1826265533061515 10.041627399627862 6.04845379857222
Ag 1.3627855903531507 7.951284242526403 5.413468097796576
Ag 8.62623894909834 8.342623331917155 8.852412451054455
Ag 6.825128597946167 10.283144304174117 7.725561582973169
Ag 4.9452001657782185 8.141479709668879 7.1001511563187
Ag 8.518286348917513 3.813869267826404 10.808984134655054
Ag 2.983376083544425 5.932113347737878 6.517792357339927
Ag 6.710698304630206 6.1834229881840015 8.192617738509679
Ag 4.791366497914468 4.013966175683519 7.560890110274967
Ag 5.8306267857963805 9.969039523295269 4.97779162248555
Ag 7.796644265824701 11.920852683036772 5.587387750895118
Ag 3.9417576309485742 7.9062213576701605 4.286582962061183
Ag 9.486266540499832 5.627572993333224 8.863060106518484
Ag 10.177830924685786 2.886498408055549 8.75089872563562
Ag 5.6833469801198895 5.909765662523337 5.493771068297105
Ag 7.457192746210948 3.343362458369942 8.178991820126248
Ag 10.355296508869262 7.396386802476357 6.805603487699457
Ag 8.382110957258016 5.224850617223095 6.088550921309835
Ag 9.49400664550842 10.080769094148202 6.7731656835331355
Ag 3.8108016937108844 3.786011919714779 4.891002005910853
Ag 2.119380900614142 5.762870787437734 3.8146570360274836
Ag 7.616839503138855 7.975183388265325 6.109878489842277
Ag 4.700576276328689 5.6655204537470105 2.74450519058859
Ag 6.503082294177799 3.0944939530429294 5.438835707486243
Ag 8.455851429777672 9.7690438377241 3.9644750495724166
Ag 6.573491425192777 7.737147972536598 3.316371660864769
Ag 11.078580214474103 4.610841282599554 6.7237056633489924
Ag 11.865371320736879 6.404570268942322 4.648790651337012
Ag 9.22817101490684 2.5002428745341936 6.106603529440009
Ag 7.362992070889771 4.959997376247181 3.330334128855589
Ag 5.420637692516272 2.9807448329179693 2.78094247855221
Ag 10.048396897189402 4.2982301957424465 4.049742940470468
Ag 11.078134322630076 9.10598111075915 4.661971757054482
Ag 9.241164944612807 7.056954379736528 3.8813030252158187
