40
Energy = -85.15321016 eV
Ag 10.202135777244084 6.011477277726548 8.446317432854554
Ag 8.90024924838302 3.841092980742716 9.68226141498043
Ag 11.152870987350042 7.954370643397139 6.685970420911653
Ag 7.883782880414763 6.463714037886749 9.922231122926927
Ag 9.269547282255893 8.67145562681374 8.7378220719112
Ag 9.138292061569068 3.921941620494924 6.920591619154866
Ag 11.363917720778884 5.288614867904176 5.956044856736498
Ag 6.292571623335584 4.036290202998319 10.5222942305416
Ag 6.9529488287712615 2.503455496328164 8.090191954009617
Ag 6.549713946000527 5.247912175578425 7.681968438172904
Ag 8.218865130171741 7.223177655919914 6.530374052420754
Ag 5.046445669898343 6.465163622216876 9.971665008333572
Ag 12.02801978507593 9.70536790460346 4.69160419995388
Ag 7.08331102394492 3.3084232217440332 5.207391815319682
Ag 6.408063598142429 8.51496189362594 8.721417843234828
Ag 10.500167276280184 10.60043373918854 7.002807811245253
Ag 3.47161641535919 4.495596847307698 11.038225915736506
Ag 9.08024760780654 5.059647328053846 4.347428615439119
Ag 10.880121789781358 7.227126026116272 3.9742925854726665
Ag 4.338505598034417 3.4919476274831647 8.6185952893736
Ag 9.28384268045234 9.387170837073816 4.778593848406546
Ag 4.856440095080125 2.1031534725003724 6.202656458262475
Ag 7.7217140799215835 10.233888885556434 6.950086863670156
Ag 6.974094291257099 4.923343746022044 2.462992723791176
Ag 3.496792665160937 8.586400203655435 9.041942868533676
Ag 6.208789606869113 6.00235539671299 4.90069565175988
Ag 2.661715956808266 5.729240450041717 8.607046864486229
Ag 4.665372939571822 7.246055044243866 6.873951827750455
Ag 8.173359624427485 7.394992556361384 3.164956240049177
Ag 3.777152164602893 4.645837093644201 6.156481674954982
Ag 6.483215332499373 8.914688355396065 4.8034106680639646
Ag 4.904414397570673 10.067495400483137 6.852188545972591
Ag 4.74212875144062 3.564879493882578 3.6973485532314023
Ag 4.431691005931589 5.137753694332163 1.3360370387702003
Ag 0.8216654615511108 7.795534173220165 8.399656378951946
Ag 2.1900250990547376 9.500390102919246 6.687551327667162
Ag 5.428707412569417 7.4830081997967515 2.5375334491480968
Ag 1.9527952738523284 6.797653538749703 6.025132765400722
Ag 3.722788090559717 8.68502632895357 4.5203893823689
Ag 3.365148749164045 6.0212310030380864 3.7442315936485455
