45
Energy = -97.26228703 eV
Ag 3.3364722061023917 7.188489607385597 3.8344152223235155
Ag 2.321182281326459 9.402004324765933 5.369547598523157
Ag 2.117558841486484 6.76784609371988 6.387140333913596
Ag 2.1845278615336525 4.6957608843222465 4.5447492532578595
Ag 4.481420173525439 4.790691792847065 2.840008799914646
Ag 2.5343901976899637 4.086395627006811 7.3722400852141945
Ag 4.67188354336949 9.723354284798068 3.738010905202589
Ag 2.905594128297598 8.908090829602164 8.158779497589473
Ag 5.888508576369004 7.401034617533171 2.4486263008803926
Ag 2.3774290952751955 6.371778257299409 9.13128867457543
Ag 4.554272928065489 3.561899342255924 5.461431805820112
Ag 4.363698478183805 11.09159604513361 6.320087375360801
Ag 5.183794465338754 3.0634818109268145 8.182868770768547
Ag 4.792397659113709 8.348365829230255 6.266717631573108
Ag 5.787940640702494 6.0763174913922775 4.903264381516347
Ag 4.6728363159344335 5.819748986838751 7.517389902106747
Ag 7.111376142046762 10.034916004639118 2.2834843496156254
Ag 6.888990795278201 3.4781732568664805 3.837579262326618
Ag 4.9308981761969335 10.546045930818678 9.02309780304526
Ag 6.649150485405338 11.481877014871934 4.650290574489147
Ag 7.175079734970053 8.589117060033345 4.655696405064522
Ag 5.44895006958312 7.7473959826436785 9.467056976513888
Ag 4.433306841309444 4.9247792827984735 10.242219586252387
Ag 6.535259435481423 1.6563094908476017 6.133594316300749
Ag 6.971236062954672 10.185141654680583 7.119829960256066
Ag 7.492045649364133 9.953395934255724 9.87671401883065
Ag 9.342944240446544 8.440884245041872 2.906580312376357
Ag 7.248217580817276 7.1885285085106325 7.100820268312192
Ag 8.283137435769058 5.924581571634304 3.723133738727855
Ag 6.9360767956874705 5.162229525287911 9.029506808107067
Ag 7.471934576263614 4.414257571497665 6.392365279829016
Ag 6.55295762633094 3.038510917525488 10.785744170233352
Ag 8.008876440246894 2.4618722395666057 8.426993793251958
Ag 9.699183981983984 3.5237557998684124 3.2397113533161552
Ag 6.749432936187424 5.751852785969934 11.713027852453175
Ag 9.233419068211136 10.310360385644048 5.310195465642133
Ag 8.328992135381853 7.332928356808938 10.031373078229251
Ag 9.332040759571296 8.924875602395398 7.914584586060975
Ag 9.221684411720677 2.281604847735556 5.7559807407745245
Ag 9.810256904806144 7.489973651363892 5.548411127801205
Ag 9.619662288693608 5.956020888525716 7.955085699749952
Ag 10.990643408247513 6.178138291526396 3.2632487219228254
Ag 9.179455616282898 4.421917105052848 10.370875648006631
Ag 10.472355582996626 4.767755815544297 5.595277234684597
Ag 10.612572251652535 3.3438455633082014 8.030633835305215
