45
Energy = -96.69539552 eV
Ag 8.184065781843275 10.278219680791532 7.894176015703782
Ag 10.677997498339142 9.099672993613506 7.316013942238191
Ag 7.2633902056240895 10.33082356098549 10.519846119266631
Ag 10.897949591515765 7.248358753652235 5.115691086625288
Ag 9.318875327171535 8.424563509856192 9.806927577321634
Ag 8.610948200526789 8.942917799385285 5.454312114602534
Ag 5.878366257271814 11.722121377534211 8.369359811352359
Ag 10.282771169037192 6.418957561347807 7.826717422907074
Ag 6.017244511115986 9.805126384542607 6.077726997888117
Ag 7.59772577951023 7.4667121602211015 7.832097125925624
Ag 6.942472424579384 9.657573523411816 3.217802182982484
Ag 8.77650838523555 7.45694394189236 3.100548109109825
Ag 10.12352546212967 5.008509747589703 3.2910618246317984
Ag 8.60324001057499 5.600233791923091 9.933792893485954
Ag 8.445461229976976 5.906394342404325 5.571918431098655
Ag 5.2992633720571645 9.072934621695195 8.864547882264173
Ag 6.813276266086676 7.594144015561482 10.779562588433683
Ag 10.960191542974524 4.484039076521364 5.8586057698186
Ag 3.582860692673778 10.585903649506356 7.230223549560474
Ag 8.946267401543624 3.8986662665416985 7.652013676317977
Ag 7.549522394526527 2.807271591789284 9.861636341589755
Ag 6.222897811380961 7.365260155590048 4.461592517529048
Ag 4.389172899972501 8.796069801471825 2.5328885221823887
Ag 6.234009475245677 4.913587481194161 11.319365390130356
Ag 6.374139860343067 7.209952072896707 1.5180552841342398
Ag 6.361804482371942 4.848324727842886 8.352278400997147
Ag 3.5339440872582637 8.710544770308228 5.138730424888241
Ag 5.076734533286294 6.962011167301826 6.925555243896957
Ag 2.7075225812422103 7.943687843452887 7.807216743546632
Ag 7.349515149643303 4.991287936157756 2.907794581908427
Ag 4.421778148685096 6.550214434244739 9.662458806476765
Ag 6.703886280595616 2.3989972568875633 6.896284584595224
Ag 4.350697823392147 5.51181192060325 3.1693424388567695
Ag 5.875307134245091 4.667418537232949 5.465996777200615
Ag 4.933825195390711 2.242481134248222 8.963823514570997
Ag 5.540175506132557 2.2473311457019896 11.722737076606764
Ag 3.7435842978020375 6.739010301516336 0.6825999344940729
Ag 8.435671456315054 3.208669107880403 4.8404215061292435
Ag 3.654203798583329 4.052200595638559 10.537450331819304
Ag 2.147316585043594 7.279942870291964 3.070656153481619
Ag 5.444624277668746 4.5221498413968675 0.8374769558451455
Ag 2.8219786805721077 6.041214556346118 5.507911328362506
Ag 3.662909882797683 4.467763185605251 7.680924131160835
Ag 5.624905164098711 2.887243944326717 3.2099080432672684
Ag 3.4946211105618903 3.365024488066428 5.050367986675706
