41
Energy = -87.93435415 eV
Ag 11.766641654947087 6.262530371612713 6.7745366926507655
Ag 10.095524755917925 3.518908754080204 9.986898960446783
Ag 10.162706664802458 6.211192016886416 9.136022448384649
Ag 9.965279259497668 4.082663869333948 7.298988479384408
Ag 11.161855353215984 8.129737947384296 4.788532098949644
Ag 9.695208382742987 8.148792213752355 7.204855827456732
Ag 9.616603657076624 5.755822644499812 5.075990600584277
Ag 7.763389149346023 2.4842027390614256 11.006990353910087
Ag 7.882705430906099 5.216789237906863 10.31421186329868
Ag 7.865311042695866 7.912037915801642 9.394987248934582
Ag 7.2847342033251286 3.2190615002354694 8.336732316395155
Ag 10.459059511074512 9.939669930303067 2.8162471945473304
Ag 7.674819842507945 5.914101889958239 7.344250552895511
Ag 7.894278851921377 3.532011034162289 5.569206530189332
Ag 9.124041554974994 7.5134918805450015 2.838965074341697
Ag 9.333586155304014 10.25905349939776 5.358444428125802
Ag 7.449284623302936 9.857062023210796 7.451458482808827
Ag 7.52698902093696 7.805480111790299 5.199394079237095
Ag 7.697900956154065 5.134518056126809 3.1338555843091194
Ag 5.400188450393741 3.8552728396010196 10.574922267155124
Ag 5.523676614580272 6.716429401560447 10.309477789548538
Ag 6.0371524448551 2.90330646628003 3.6339255151590812
Ag 5.701880611617664 5.514437639578002 5.2294144035722185
Ag 5.448172954623109 7.687267896325861 7.134846683840584
Ag 5.454551996424341 9.384736071980967 9.453265203795986
Ag 7.612615432655466 9.909267560963592 3.135627664040198
Ag 5.2414648734228475 2.8748087199782373 6.320125358651454
Ag 6.805250338404409 11.483344848704597 5.278227401602142
Ag 4.960130139552356 5.000630550168172 8.09912987071581
Ag 3.1602008304402314 5.438265450306199 10.96441730504591
Ag 5.008712985920932 5.122140887877135 2.25994365615691
Ag 3.4784915782462527 4.018352249511105 4.324432736210591
Ag 6.220539595177297 7.536219968206129 2.6500981951629403
Ag 5.125178585839843 9.310477299240231 4.542439665362112
Ag 2.9367881284255164 5.775141077770312 6.314618182581385
Ag 3.0845542862474704 7.105290200461356 8.694633963415363
Ag 4.750569102031426 10.62443115607929 7.008280733321267
Ag 3.391142001024972 8.350833642570056 11.129016155511799
Ag 3.6300842654130836 6.9917340294332355 3.884322954611065
Ag 2.912008557471083 8.5882692365605 6.209422806758283
Ag 2.733795118034658 9.858866813447053 8.794779588172077
