47
Energy = -101.40009297 eV
Ag 5.869127579121431 7.503776952242899 1.7195354311804356
Ag 8.775210055832872 7.557076836284354 2.095962734461306
Ag 7.789131204526848 5.166325812041059 1.0303510472955586
Ag 8.985700352178025 10.16301600697018 5.193553863141833
Ag 5.123005749309836 4.847153310641977 2.0953531704174777
Ag 3.1458723282172807 6.974404048242034 2.2766538587608367
Ag 9.93771183014941 5.1557252840999945 3.101601506367676
Ag 4.223088129334419 9.428395324203297 3.5135477078652277
Ag 6.955044873173016 8.895336791623173 3.823334756336986
Ag 6.167359358840121 10.7260945327306 5.791476309350306
Ag 9.184762297968234 7.391923322079656 4.8394408563894995
Ag 4.839033429926365 6.939397484328316 4.563314438671741
Ag 7.195301874937175 5.822571087738453 3.725594752409868
Ag 8.3982578422878 9.976251426786053 7.881822865634726
Ag 5.603713914612548 3.568812549650638 4.5619990421606085
Ag 10.642843099879439 8.50270691870207 6.891691408994887
Ag 7.9566100048921475 3.1574579875514077 2.9317292893591107
Ag 3.0389180120569668 4.811808050809956 4.054213618219053
Ag 3.9189340455005315 9.040254744533017 6.424623476337569
Ag 2.06842956685019 7.666600917201258 4.782364439254662
Ag 6.645183392211795 8.112814936790445 6.610170391723155
Ag 8.226259854637814 4.157865286919534 5.798110574196031
Ag 10.908700922317195 5.397191546532421 5.748708713081492
Ag 10.298650363076165 2.802104272867223 4.69173580969808
Ag 4.845225488123599 0.9902419537941629 5.2568505175313
Ag 11.332843705353248 6.219998519622264 8.501774179010665
Ag 5.681007781355705 10.07714058003842 8.549898007438301
Ag 10.01395987620843 8.462551138455295 9.604954471988803
Ag 8.74162797545196 6.448239089127877 7.514687374732491
Ag 3.0491218229139543 9.855037620361601 9.089178557435833
Ag 3.4274469909538556 3.146608650028347 6.458666908511162
Ag 1.6038971254430914 7.934201482907493 7.633293858590394
Ag 3.1591837708514685 5.867225021072164 6.630867310502461
Ag 7.663757959161405 1.4712300847453583 5.0718810847892986
Ag 5.967894622517609 5.492081813187577 6.718988504699404
Ag 7.232939995718789 8.000933500114918 9.566511711160388
Ag 6.090236163091329 2.5552286545256617 7.15653029129559
Ag 10.076113400392911 3.7490770322581697 7.824117851565389
Ag 4.557391154879363 7.238555035324758 8.628000147560718
Ag 9.097295053488986 5.889900275559613 10.279040198850007
Ag 1.94843500631919 7.81699669807014 10.49514164949143
Ag 7.440786048066398 4.241754376957549 8.812283653386169
Ag 4.744838672826966 8.462731273971347 11.037215204059846
Ag 1.939949656136994 5.390909237007135 9.01875755636998
Ag 4.531559995459539 4.300845057971821 8.911789468604034
Ag 6.2703992403763085 5.777809478862116 10.80716390681954
Ag 3.6052661417912213 5.7762589801105815 11.228673510011301
