45
Energy = -97.18460947 eV
Ag 11.061660503864452 6.7878692031268395 7.67875982611203
Ag 9.677274909689736 6.4418736883752326 10.120801859873895
Ag 9.587617395474803 7.990759923352224 5.554710340635444
Ag 8.56672771691252 5.749946936480146 12.6424919674951
Ag 10.36241517393379 5.238380602667127 5.475187369812034
Ag 8.992759877629661 8.551724752622778 8.277430710978749
Ag 7.516262879083707 7.961933317617484 11.230423027750938
Ag 9.542000518108006 6.455779362190037 3.0950208357083016
Ag 9.216575318253945 4.6339277652933 7.936432500194636
Ag 7.650379742299257 4.375054288893367 10.385131797648436
Ag 6.773245940010384 8.69479775341916 6.388807624973276
Ag 7.532540878420474 6.05278192073928 5.857182299043035
Ag 8.201570259753813 3.318895351430437 5.454931695753841
Ag 7.138684202105308 6.603945864747667 8.813898499311508
Ag 5.857669819826481 5.826305601210199 12.107051290887648
Ag 6.551997807969422 3.928702280854559 7.779773575009341
Ag 6.462887528697787 9.384211452998253 9.07158241057475
Ag 7.5249089693350495 8.246825645847464 3.6528484817226765
Ag 9.939298311127938 3.6136704387416336 3.2639767679706164
Ag 4.655122717959358 7.8333409077821425 10.521837900586878
Ag 8.777668752700686 4.730090375969371 0.9971447488334829
Ag 4.250557096143105 10.607252219385607 10.05072098690596
Ag 6.983734338066084 7.023021855555996 1.10833228992714
Ag 6.9866295611453015 5.188435330918444 3.174404042053857
Ag 3.0843740017437584 5.84784627347161 11.646379353981315
Ag 5.272149952868684 11.007941755007495 7.078685890932392
Ag 4.965926942477606 6.456576647936852 7.234934618909903
Ag 7.505205433165109 2.538173708118795 2.4440126791220864
Ag 4.797967490529457 4.910602703656533 9.65506620443391
Ag 6.0544283959544085 1.6139119044459769 4.666266665550123
Ag 5.396008746738777 4.205283471826818 5.312904016821799
Ag 6.15002924422143 10.589912374026765 4.382840721034665
Ag 3.739359062670007 8.878049269070484 7.966061926104767
Ag 6.115169681833118 4.279675640145509 0.541278185526199
Ag 2.579194830113926 6.467888487553681 8.930330655912483
Ag 5.083258047782766 6.937198359127876 4.506470952128232
Ag 5.034556344034878 8.802363691241155 2.4354054732625507
Ag 3.1998280585644854 4.350426668483698 7.085899492607273
Ag 4.695862758385262 3.29164645004027 2.727218851494495
Ag 3.8165169692429037 9.414959256106807 5.1964802202459985
Ag 3.3376401277607854 2.3403195737744356 5.02273824954993
Ag 2.4534260852013663 7.066459343090765 6.123373767148275
Ag 4.402195764232635 6.0473191841837926 1.8992186909519357
Ag 2.872813521477707 4.998094734227677 4.216196162470489
Ag 2.5664760961817334 7.680968095102758 3.35769100361008
