42
Energy = -90.34572837 eV
Ag 6.399601556795282 3.9774973922904158 2.361156052451767
Ag 3.80979320231619 5.095928721768439 2.813501969819849
Ag 3.30397587402575 10.648596989914362 3.0947256564560055
Ag 1.610727113716942 6.487799931870445 3.927530576108915
Ag 8.652867018691225 5.615159441287622 3.0549227907387393
Ag 3.4835627690144717 7.879340865849342 2.440663675461559
Ag 6.108964232137496 6.705594220773698 2.8097496655542433
Ag 8.12410160081673 8.25302591819083 4.060505414840333
Ag 10.684681732937284 4.074505867617983 4.247413043049192
Ag 7.993570658926091 3.267970431421392 4.636525166997518
Ag 5.254575610449652 3.7460648160344223 4.909068645898183
Ag 4.3885693724958275 10.900313276975925 5.764608953644445
Ag 2.5156419158572567 4.241757682804821 5.1982422035226685
Ag 10.167915885641724 6.682738819007985 5.172872462237458
Ag 2.641191856653757 8.80023307382747 5.045845833217951
Ag 5.472620826265246 9.153442536188539 3.9186587364525525
Ag 2.133700266851738 6.572785031743027 6.808198925162758
Ag 4.534863663868639 6.62489522850317 5.364430464533529
Ag 7.283693522791561 5.850152114611935 5.586184372082521
Ag 7.26587452256684 10.750059261439224 5.410295758073116
Ag 12.138297680545877 5.070495151536712 6.417939284339437
Ag 3.86434091762301 8.693250729392078 7.573936965797297
Ag 9.50494909282774 4.147561518957294 6.829224017880904
Ag 6.768869712409794 3.534408391748035 7.279824540703654
Ag 8.84274647779409 6.788880449551867 7.854323712626062
Ag 9.39786765452473 9.17526103611919 6.393746280961946
Ag 6.567220128677327 8.392527177674179 6.5817757041648175
Ag 3.4991942959186013 6.496946319589516 9.30440763523401
Ag 5.87567518846927 10.684759966198552 8.085738068413539
Ag 11.511359244545007 7.622499517318859 7.493382144516661
Ag 6.132462238887998 6.247951347998053 8.28989422076731
Ag 4.086045364494651 4.472529361205603 7.4357377293114055
Ag 8.357432177598113 4.364893883061247 9.444404237379583
Ag 5.5029855045528375 8.581337214329997 9.885115077562393
Ag 11.053599108928701 5.250236042113126 9.000632458185994
Ag 10.386437632137078 7.776161690129393 10.072410951731651
Ag 8.116387148328066 9.248561877581805 8.99501709798996
Ag 5.528666925834954 4.070570929478065 9.855705534608932
Ag 5.187721140226661 6.320939372930308 11.496588732913741
Ag 9.961240044768845 5.367278189447568 11.551989533196927
Ag 7.766055528748963 6.998273040866467 10.678663868134562
Ag 7.317848093070179 4.564709674383246 12.05233634100891
