44
Energy = -95.19238989 eV
Ag 2.518271863022145 6.346672247311476 2.1228308030331147
Ag 2.439669363786441 6.568471740093011 6.93486700657771
Ag 4.729324846794556 4.7321307066968 2.6803077868496605
Ag 2.5841620647065238 5.011696225867809 4.590771430831636
Ag 2.9178901185100514 7.829312501433081 9.371982104505316
Ag 4.632344192187995 5.994223954168267 0.2391826481943107
Ag 3.006642572141171 7.782384343626457 4.4831551641363845
Ag 4.379092188389805 5.551274530994343 8.797836187229057
Ag 4.95896131951455 3.668491406218358 5.260768895079
Ag 5.863321939485546 6.619893585126184 4.553603330460389
Ag 2.936208961387725 9.430737316078405 6.9650952250352445
Ag 2.9995183872940543 3.8413979979471082 7.149448461825336
Ag 7.3301339428305035 4.290795885324211 3.840881304562341
Ag 4.946809541368749 9.63736260094223 9.3367221751814
Ag 5.220758799070844 7.135368868983095 10.96549105431935
Ag 7.008435675756006 6.271540980187191 1.8046650139133402
Ag 4.773008763747224 7.964156054254619 2.266712958987274
Ag 5.528405582508764 2.9452132658251124 8.20830805295084
Ag 5.1355309001169696 7.843864687537971 6.934058559723942
Ag 5.327331334164896 10.932112847573533 6.939854263170293
Ag 6.626860764394091 5.279253616120054 7.027747524424497
Ag 6.689157575290289 4.767706240269279 10.101082133203246
Ag 5.131416482472122 9.532990247467994 4.589004130641063
Ag 7.441358841379118 8.680868423937493 3.2595799152183553
Ag 7.066678117284316 7.341125650640158 8.916107373548282
Ag 7.380386865993493 2.5675109695155007 6.03222845560935
Ag 7.246370318780155 2.0875880231956567 10.433413135847742
Ag 7.110146913342494 9.223939190902234 11.075850852352142
Ag 8.013708261856399 7.615388953810692 6.233746142449027
Ag 7.5731652202509325 10.143570561229174 8.400217056316619
Ag 8.482298998189666 3.384484624108344 8.373714096579965
Ag 8.249871465701755 6.68625066423711 11.437481114043477
Ag 7.6857719989998925 10.357118092747033 5.570486508047963
Ag 9.07770250282544 6.464808111262384 3.759406769738032
Ag 9.577091193908903 5.9841365509791595 8.503607785290614
Ag 9.976434905311288 9.085520896429466 4.415934164374377
Ag 9.216188705221338 4.692268870701184 5.958718765075224
Ag 9.34746332231943 4.163606914045801 10.905944750139275
Ag 9.564264804382919 8.602435672255217 9.791064251125459
Ag 11.02662643589542 6.443896959182447 10.85997704245446
Ag 12.45298592211945 9.11546766959953 6.0031967760445735
Ag 9.986041812983672 9.513060561156461 7.18471742202176
Ag 11.90921572008735 7.784148077317514 8.509624085898894
Ag 10.782315233157604 6.935097451632539 6.0599520619223615
