41
Energy = -88.08370369 eV
Ag 3.5940474083464986 9.374031511951536 4.319865245916437
Ag 4.928479070179481 7.658584274481774 2.5586299842977773
Ag 6.163098384078343 10.728824734843618 4.689924136982678
Ag 1.9849769103841222 8.57641517900965 6.584738590732489
Ag 4.523884181972513 9.907923439294837 6.826867977179053
Ag 7.44953623518542 6.4965961966166965 2.0937753748601695
Ag 3.510792148765739 6.705430484163316 5.137166356694108
Ag 7.400072552384756 9.145331263279957 2.7757119894380144
Ag 8.966577017730408 9.836237179951546 5.039173079868246
Ag 5.5664173008211835 5.236075674894367 3.938663568344741
Ag 7.305533879516875 10.519561970211603 7.244967115224477
Ag 5.5574105817446755 10.25670662491267 9.366534223307815
Ag 3.2464456720500756 8.75963364996691 9.109651349334477
Ag 6.08191172906837 7.89533410502517 5.034964738656129
Ag 0.7935657325906241 7.5497443122486505 9.060343836423861
Ag 7.592563316896906 3.7024635662926424 2.762754826288871
Ag 8.383437166105411 5.762162898013154 4.770644624863606
Ag 2.905065825194658 6.217628596138825 7.870734298618787
Ag 9.792769178878634 7.744102003033319 3.2728661073495324
Ag 8.174359873418245 7.780886729098353 6.782370708255585
Ag 9.875327765546077 5.16571787353507 2.1722778336358264
Ag 5.585768945393295 7.4320489173325255 7.875431756283226
Ag 4.902729971283241 4.754000954573763 6.623881333199398
Ag 2.859269142364148 6.509971014367256 10.768704662861545
Ag 9.935958960934439 9.615139772449584 7.8228378851329055
Ag 11.42033675647331 5.586642144399593 4.37464006098395
Ag 10.816953027787596 7.696070213812013 6.024918904358579
Ag 7.8537551276635975 8.740114915516841 9.51657644526275
Ag 7.570968631651462 5.243605462062094 7.582959716993918
Ag 6.956327914435798 3.257255394981933 5.449288390569423
Ag 5.348831932732753 7.790947502475414 10.729988527952244
Ag 5.031155006491319 5.069792767682974 9.428669303350336
Ag 9.775107975696192 3.284847947770853 4.5584005509498535
Ag 10.39231426091856 4.957630830042468 6.886015529148747
Ag 9.884850904346596 6.869715246448325 8.865715453438234
Ag 7.582346160507367 6.131219492977352 10.456990740887376
Ag 6.437583522104526 2.8686600996274083 8.268763056529956
Ag 5.1036250857045395 5.397980175667875 12.149111636487465
Ag 9.025979836506348 2.564749313717697 7.170175004571136
Ag 9.268246828463695 4.097121777228247 9.47932907102147
Ag 6.868606113556613 3.530081825775946 10.971964039619223
