48
Energy = -104.15946559 eV
Ag 9.208534938109578 11.45127094548623 6.320622044114277
Ag 10.722261292217434 9.344198829843826 5.1820030114365725
Ag 7.113652422677589 10.844162914759092 8.080894359743086
Ag 12.747300698667035 8.07569299149318 6.4080241596038245
Ag 6.460972881945499 11.143882106338065 5.327472288426982
Ag 8.624434012647226 10.380126021735357 3.7156985990847353
Ag 9.502895267589889 11.770212408785625 9.182193915609265
Ag 1.9813679070077337 9.461390200185 6.298544988331698
Ag 8.977472510326086 7.297295091328527 3.991777857754231
Ag 10.291743425809882 9.333748704529354 8.088869930178408
Ag 3.9721076514813833 10.171159739985072 4.402639263014932
Ag 4.529922591092371 10.33346814387261 7.185297849749168
Ag 8.206661664946493 9.49799284064621 10.18723746030637
Ag 12.069830339480369 7.2165863459332975 8.932831941566544
Ag 5.374823421887942 9.65387507359363 10.072386437190424
Ag 8.826125645490919 4.68858303665297 3.094543100588382
Ag 6.31109713316004 6.113496462729914 2.7889340302609487
Ag 8.080218817077716 8.876998570976898 6.119736130574662
Ag 6.3410430516500496 8.710984339755987 3.8295172076559285
Ag 12.672708003349666 5.363376838543126 6.8426586538575895
Ag 3.8805922292352775 7.649142971220162 2.9939328430920686
Ag 9.483992512734176 7.077426509901809 9.868434123048162
Ag 11.131520036788517 5.391654492864942 4.502450547775153
Ag 4.218094190933067 7.762054365694984 5.908505619175828
Ag 1.7616277429180403 7.00441135597725 4.815341959670383
Ag 6.162104860119224 8.090362908496104 7.956007758386844
Ag 6.7928356147812785 7.1110994488626496 10.622270314961412
Ag 10.11534265204944 6.8997201801187344 6.688957084338901
Ag 4.060692141739221 7.379288718175384 11.196916042915873
Ag 7.792881835345423 5.74937789381589 8.076549946886887
Ag 10.554092486575708 4.827636709307585 8.646940541936713
Ag 8.825334281285203 4.3518602403608035 5.875070343894327
Ag 3.2194557212615726 8.392587328811313 8.69664393291026
Ag 0.9710687026186411 7.193562592458359 7.557302052321292
Ag 4.101868009402989 5.285034658755842 4.496465170773185
Ag 6.769560899142391 6.386215288837934 5.58479669868552
Ag 11.203875937396614 3.0680703670273 6.513141403628666
Ag 4.935707355045118 5.5756857222919365 7.63549937337551
Ag 2.5252023554482133 5.82279030749767 9.438114938093566
Ag 6.481760886336901 3.775598983663314 4.284442653665836
Ag 8.069427737832862 4.503085208921114 10.466070220171176
Ag 5.137449711334908 4.888892854865316 10.503744020272705
Ag 2.3801682845866536 4.960205599074675 6.692411861148757
Ag 8.966139097237628 2.6858261525685485 8.203552897372417
Ag 6.27991467794188 3.1915549578892133 8.579152732394437
Ag 4.608612215788872 3.0885006570504063 6.213445142997755
Ag 7.156902649170207 1.9356627869389655 6.2522506028863685
Ag 3.49758975662205 3.323177389661813 8.77869420245668
