49
Energy = -106.24988579 eV
Ag 11.32270682161309 9.460405696687811 6.5094062186199455
Ag 10.605232950058676 8.287911329639167 9.239727411272462
Ag 9.38985766031204 10.596626270326915 8.206169125188834
Ag 10.346950545765694 7.9349126721293 4.267220354745336
Ag 10.388248214020658 6.847785923568406 6.810652244664879
Ag 10.889200005686307 5.456942321970601 9.254236336313292
Ag 8.73712347320498 9.776708965869261 5.564922423220454
Ag 8.210326354785495 9.40129608574576 10.475182090812131
Ag 9.91607620533014 5.178190663801252 4.533671639765347
Ag 7.394183677306528 11.923766778845685 9.710133558947884
Ag 11.091334821922496 4.048538965679036 6.8384563271248595
Ag 7.972578709241512 8.00830096894708 8.002173372103938
Ag 8.614355197394893 6.576162020216679 10.386701559476213
Ag 9.60120228424427 2.069391153104631 8.192835482629025
Ag 8.457948308152734 9.4294294524997 2.740450297276447
Ag 7.028270326213095 11.52573041248946 6.917755709103825
Ag 7.715917067495445 6.657885247891996 5.465158019673971
Ag 8.446657628106752 5.028418505641703 7.761306399564901
Ag 8.513191517231032 6.6191793863422825 2.5675150842281402
Ag 8.857807838913645 3.714897996603512 10.285424910399502
Ag 6.41931668930322 10.770555494802574 4.1398334103170935
Ag 4.9565841325657995 12.542184277328223 8.509408892871594
Ag 5.669683592162692 9.84335337580386 8.865087073863112
Ag 5.985709016350364 7.63416077542007 10.641489484379374
Ag 8.749754476460222 2.9212521102581346 5.692918585651705
Ag 6.132074876233984 7.935625198415646 3.235422923643995
Ag 6.0830875308526355 8.927626706825675 6.129781885870105
Ag 6.400762324619399 4.914290232308887 9.789130422668183
Ag 7.51447641227735 4.15649131444455 3.5009003509491317
Ag 5.971496913851757 5.581981286435261 1.6702775552930473
Ag 3.742928262677938 5.857896773711776 10.27335293184971
Ag 6.165113232182286 4.348109319266352 6.078315709004919
Ag 7.85232453399308 0.48752181000611106 6.6530725583487245
Ag 4.365492366479186 11.310280879018396 6.073710896268089
Ag 5.332553560503179 6.8706279361177 8.051957304841475
Ag 3.8766724508915806 9.212955350729633 4.254826558526215
Ag 4.7100768150136245 6.6321822768215215 5.389688396939616
Ag 3.3820698450287274 8.538003050831982 9.853685199570256
Ag 6.824262285172611 2.5971433158489825 8.158482966423929
Ag 6.373158808109283 1.8121622613241677 4.662564290589078
Ag 4.314379120266348 4.071028843192926 8.166914079320252
Ag 3.378238329780785 8.876679882538422 7.107339072596957
Ag 4.745355388221332 3.8621159871419057 3.5507187585997455
Ag 2.4904222731986776 6.213661626718565 7.730109836143811
Ag 3.574492314012079 6.424553550060012 2.9631861283776932
Ag 4.006968727268831 2.3795748580191036 5.9933550073352615
Ag 2.6854343528675217 4.70974482380547 5.222865616862713
Ag 1.9569642419584021 7.393758166473013 5.156325507849533
Ag 1.728910782804504 3.448806948482892 7.462062717120373
