44
Energy = -94.96705335 eV
Ag 8.679522025860576 11.643330197632064 5.998911274214809
Ag 9.972220252398655 9.257272261509094 5.404983585328769
Ag 7.759945433770754 10.049174188441699 3.7699749343224527
Ag 8.535084470645824 9.450301533791091 7.795861803326256
Ag 11.07393140952612 8.379770614448804 7.923312378495025
Ag 8.865764071324705 5.858692410828743 1.1850137059771817
Ag 6.342072594614496 10.183541348564585 6.2311307537471325
Ag 7.95021795938152 8.746869957206458 10.393808543205004
Ag 9.540298067235199 7.339565577007967 3.3832665639392445
Ag 6.940100877457288 7.874421465248133 2.1219458441624957
Ag 5.750686558889091 9.77392382062481 8.938318867605428
Ag 4.144172829806485 8.57704047898141 6.827183826734065
Ag 9.955846261114758 6.5807958676134115 6.143644084632112
Ag 7.4758979440510975 7.713333492660675 5.179470029122106
Ag 6.125886170649998 5.344221090426761 0.7872566463305217
Ag 5.347829578347903 8.947438944414523 11.624558878721057
Ag 4.409385394316753 6.3917026375748485 2.7003215290870375
Ag 3.7237544834294845 7.860132105243787 9.507760272605244
Ag 9.060585543833131 6.585493813157745 8.827789753714866
Ag 6.568735686409607 7.3789729302569596 7.782727745182377
Ag 7.151812793264146 5.42590318313209 3.4292711970211585
Ag 5.043936437593083 8.796490487206757 4.089702348223648
Ag 9.674058515207841 4.103096839206183 7.446169361774491
Ag 9.617514605302292 4.4588856746153125 4.29702329180842
Ag 6.247222574592633 6.604460265722772 10.491888693811049
Ag 7.41060079937923 5.052242452770761 6.224519075562025
Ag 2.5434041125381857 7.353818484205415 4.755351787065329
Ag 7.753209431519172 3.2866620527829014 1.6961382408967678
Ag 5.024485726332175 6.232325928591674 5.42683118674528
Ag 9.719871248458274 1.9717779635733121 5.605078812638561
Ag 7.138755682324759 4.427470900326875 8.988933296760557
Ag 2.0349466542907253 6.7802548717294915 7.464880052064703
Ag 7.352064980032469 2.6794357897927883 4.3753774702731
Ag 4.59329855665982 5.4783288730842 8.131213906556848
Ag 5.092694135485732 3.59005724942145 2.874978233311255
Ag 3.772783662891886 6.575954212741256 11.974048403134974
Ag 4.792624705165485 4.264054435544598 10.704544835624686
Ag 2.859287061712389 4.536142572457968 4.308675563305398
Ag 7.373295735035214 2.2700540531453757 7.1512306023048975
Ag 4.991971669567808 3.3867225492589244 5.726550929809849
Ag 0.5508908809548237 5.427993348806598 5.552009794016716
Ag 2.5012033318585614 4.000754920121612 7.069936129024359
Ag 4.838571664993909 2.7232563964334675 8.399906602218262
Ag 2.3341627707834816 5.321315111141451 9.830842035674682
