42
Energy = -89.8450608 eV
Ag 7.030339314924853 2.1758455277144253 8.337731672829403
Ag 9.61738602911387 3.032821428383623 8.181384281787576
Ag 12.19233311214224 3.8856463793997023 7.994840711426791
Ag 4.814148251748247 3.6625249424572206 9.131334437040334
Ag 2.617622736403765 2.8837261031274894 7.5959294708222105
Ag 7.724250471832398 3.8325558305120526 6.144253909693042
Ag 7.478478757949225 4.793170259614804 9.256902834948137
Ag 10.512226046425575 4.4844502917949045 5.891458698190117
Ag 10.327156090948991 5.423509318231227 9.409263787489406
Ag 4.98209280509594 6.27538513923897 10.135622040586565
Ag 5.117307467776319 2.732200598606058 6.422586598553944
Ag 8.93568593566068 4.565988020918892 3.6087040370673478
Ag 5.933771588812996 3.7931474619164813 4.025209761956504
Ag 2.9550911017650505 5.58163732730223 8.374498564628722
Ag 6.835325726865815 5.314723297914801 1.861952215509336
Ag 5.773014444712257 5.872565041377196 7.169175986873522
Ag 11.339310784361587 6.877209388599975 7.211728124244732
Ag 8.53875333781999 6.520479199378338 11.206188695732823
Ag 0.9762231590516381 4.817444174465243 6.552356656729518
Ag 8.580695133619937 6.453109277169018 7.073628970184507
Ag 7.059808081434178 7.656979695191146 9.138842522285362
Ag 3.5763062041668032 4.883958069308803 5.506243679338066
Ag 9.81492797560442 8.19552519282741 9.203984868725016
Ag 8.139367937939669 9.344775436126696 11.184484212390274
Ag 4.304991401890192 5.76595311898741 2.9268083647880667
Ag 7.0712207036626475 6.37797469149704 4.587251826686252
Ag 9.992153824713386 7.011449905152588 4.674480619226823
Ag 4.258231158374155 8.18556412292865 8.103553606763818
Ag 2.2041882348883486 7.32528396325634 6.34635497503095
Ag 5.474148429618873 9.655219732655759 10.175505373329043
Ag 6.710663407315576 8.59302804871161 6.476542707381996
Ag 8.838574505928454 7.178251912232631 2.14476722284743
Ag 4.535693239445954 7.5738279051130295 4.974556949270303
Ag 9.503947789260874 9.129708250193309 6.5157818011620785
Ag 7.870514558214663 10.313462149434455 8.566448472049991
Ag 6.074953987774929 8.016348125934634 2.4867635228773377
Ag 8.137826844696235 9.120240015501084 4.063813768674077
Ag 5.264445824242001 10.908916322526343 7.720469265301511
Ag 3.31636686599169 9.93060643707692 5.980624696244214
Ag 5.487192712281177 10.145652706438371 4.1828455959529585
Ag 7.425444341227205 11.274736404673273 5.9411107398475975
Ag 4.567525679031119 12.386963412542222 5.503977226744669
