40
Energy = -85.13714898 eV
Ag 7.915799295283147 3.1371729827115145 11.7971700273314
Ag 8.930550093751046 4.204289614366858 9.346136688367878
Ag 7.7621781578437385 5.823948550813792 11.21923680456861
Ag 6.399628014340785 2.9296754564771135 9.346823283680019
Ag 10.397970171501784 4.535746408313481 7.037939193939691
Ag 5.4003031476893915 4.363883309708453 11.499231121829892
Ag 11.800010231109349 4.9397289825880755 4.578605681859461
Ag 9.183071145567206 7.006496050343791 8.311810973877327
Ag 7.899793557443145 3.1439894365533845 6.961374149807069
Ag 7.71860200498628 8.35899262105384 10.307305648253049
Ag 11.339070841005283 7.0411810141020394 6.447065645497185
Ag 6.622641879022141 5.660623036855236 8.375720990751553
Ag 9.443277954911107 3.5241260946361215 4.57729951896756
Ag 8.400188612988773 9.952264288659114 8.168259535421843
Ag 5.2130542693912 7.015905670650971 10.58964291222938
Ag 7.314470363513259 11.137859198172615 10.443081826487083
Ag 5.101377786999672 3.4992661329423447 6.905878229947538
Ag 8.17566182752035 5.818426875542253 5.821223014035187
Ag 4.018663298292113 4.780444007388675 9.140062553383334
Ag 10.091116931329548 6.980895004167606 3.8844576048454638
Ag 7.394636367275946 7.86441666886217 3.987914381965828
Ag 5.376866444671195 9.51836660274453 9.328985947305885
Ag 6.677944682232317 8.074865314247665 6.925400124035745
Ag 9.260155397344441 8.749330775046493 5.882364114424909
Ag 6.257438500403628 11.7504870620477 7.85874942864815
Ag 2.7783273889076425 5.364398396173681 6.58716322901541
Ag 8.210721947558119 5.32843524701577 2.776005262340753
Ag 4.100296343969617 7.397605923165712 8.029331047598676
Ag 5.294754379759477 6.089390917254721 5.609680402167206
Ag 6.918616393657036 10.371685820250567 5.433403093226509
Ag 6.639828155105031 3.6776800872246507 4.483661326543361
Ag 3.86894337305076 3.95305522530338 4.393776452995524
Ag 4.419042448161901 9.9764106525133 6.736135921795381
Ag 6.965480982605629 7.426552791999429 1.3019150721529789
Ag 2.9071520021931976 6.446025204261378 3.6808601866042987
Ag 4.809210479803848 8.72346929008516 4.2629614877707125
Ag 5.433673336976659 5.694888515589813 2.7846569202587057
Ag 2.5245021359942945 8.134540355500356 5.850437237591961
Ag 4.260958674871493 8.004974398292056 1.607264512797882
Ag 2.2801704287346647 9.11837351269219 3.185390085620989
