42
Energy = -89.89836663 eV
Ag 2.7841497578483407 10.496529162355602 5.64134614071075
Ag 3.2586937476140814 8.03489455942261 9.011913383459387
Ag 1.3906251319033012 8.42006570866704 6.872852501071208
Ag 4.712144448602121 5.687756218420829 9.480380988043777
Ag 6.543807954795288 4.331309744936401 11.286463394453074
Ag 2.4258201415135088 5.816769766811683 7.611451502498922
Ag 0.49899004637184363 6.17745132348407 5.539695262172366
Ag 3.6233982393379423 3.3384535351346223 8.090842407163613
Ag 4.373667716457182 10.344355362789878 7.980655992568519
Ag 4.208074461360152 10.190725982596108 3.2447127675279734
Ag 7.170515870567663 10.713410629325976 7.8739540614886705
Ag 7.5312212227380915 6.4811533452094485 9.88835888345488
Ag 1.5824522443167333 3.64072841084997 6.084106251194869
Ag 5.954818434859968 8.006307927287914 8.166903676511977
Ag 4.059619581283508 8.006929474762082 6.112083681995596
Ag 2.061606618168978 8.232711745127562 4.110963431446009
Ag 6.353911667284488 3.6056726127429037 8.636581178455579
Ag 5.2276142705910615 5.5005525644545585 6.668491596828798
Ag 3.0728002893881543 5.589301015198817 4.638258108280217
Ag 4.219995413819598 3.073434950070401 5.352504192068196
Ag 8.689146405710927 8.400011704409138 8.090753575668003
Ag 8.033527051590434 5.647309460470686 7.2406590793461385
Ag 5.7810898989344 10.243069227494713 5.543277478105738
Ag 4.793428339468408 7.521184524246865 3.366775446216527
Ag 5.615241968922 1.3866449888680632 7.189381624616124
Ag 8.46347459409701 2.051367714971812 7.635523218001003
Ag 8.621296243873608 9.745013852955859 5.622287980105157
Ag 6.92094662588793 7.461170885175572 5.334360885540924
Ag 8.897888600722748 4.010608546527731 9.673786297121671
Ag 5.724342768448476 4.9679066529705596 3.8669185288901993
Ag 10.334154633071444 6.284306891482319 8.841882230137804
Ag 6.979641822794578 9.424175643963798 3.2044699875821916
Ag 6.97617665048134 3.359671328269604 5.749921120436512
Ag 10.52421603718554 3.8907735589009995 7.318738160618307
Ag 9.40422149634927 8.016165386289577 3.6198052184345886
Ag 7.331049318787694 6.714061392995255 2.3222688286398316
Ag 10.273724269428916 7.263715453650165 6.110976275702673
Ag 8.526121155815373 5.249208103857624 4.405493258174866
Ag 12.486679576211683 5.788715244655962 7.06402947360721
Ag 9.63370765115249 2.654969791632927 5.031884205308238
Ag 10.153708844893282 5.747447076639097 2.2485649467790565
Ag 11.255050508955147 4.9499965839496705 4.728714539761424
