40
Energy = -85.77525832 eV
Ag 10.378772997385381 4.505885821586094 3.1519077812276337
Ag 11.17619035746104 3.0787580008070843 5.45672190983976
Ag 7.621610178861744 5.029470371242237 2.5623864382591615
Ag 7.224744666934798 7.595559566121942 1.4287381697613104
Ag 9.272262643979865 7.137405517322448 3.387473130428381
Ag 10.148989587804643 5.7347510991119846 5.679952927158913
Ag 8.405222310579171 3.4802755676182464 4.855140650436436
Ag 5.7009170500256285 3.9433287959125045 4.235909717770711
Ag 10.85131356411881 4.272433955264306 7.974530304128469
Ag 5.247206124524535 6.569498142611604 3.139573239605979
Ag 7.10658687085351 8.860086704277037 3.9287814145877085
Ag 9.101682631712823 2.199551971083002 7.244247074945445
Ag 7.269880377237736 6.145535612964207 5.245596185211515
Ag 6.381752585639977 2.6209473547346147 6.731931447731902
Ag 9.120958655595835 8.359940675945506 5.879863284457287
Ag 3.691608151587461 2.7608959869676677 5.632229961536591
Ag 3.3558995954390656 5.420231955569228 4.815431433043503
Ag 4.950169586807333 9.1442009513264 2.104020317012651
Ag 9.947354371111166 6.923725965009716 8.257746787220219
Ag 8.089495091750434 4.741643245384346 7.6736384072524455
Ag 5.154493776059071 5.140163547945069 7.130568005253279
Ag 2.152556629024178 4.518051009708025 7.243439017963386
Ag 4.783387444669274 10.232797638144671 4.695581933252184
Ag 1.346127835432545 6.930084341214 5.9659140359257945
Ag 7.044142354858239 7.359314453385829 7.842584856916042
Ag 8.94691410945958 9.53294141666587 8.387184806219139
Ag 4.972781092704795 7.681716292223468 5.897624251573742
Ag 2.9423726381769977 8.116902874370254 3.8792218033027246
Ag 4.03474020487721 2.6360892109990273 8.348267050712069
Ag 6.8586168253300155 9.92496139882034 6.550859035438889
Ag 6.134139104838017 4.055593419026939 9.566165746969663
Ag 8.002424209002472 6.06915725792035 10.246910398713016
Ag 2.7927463282534517 9.342050244338182 6.5628352213496575
Ag 9.728475536127487 8.218783546010602 10.749315324259388
Ag 3.1181598863230704 7.008627178699414 8.160502505784457
Ag 5.234019599462906 6.7333695748514995 10.023570282022341
Ag 7.0276680821657145 8.814161669981463 10.327607584799702
Ag 0.6177733019419861 9.366775356682009 4.881964222300396
Ag 4.908692491714371 9.151907723293911 8.47511202122531
Ag 3.3024530812368 4.783914152243001 9.839510530944386
