44
Energy = -95.90392408 eV
Ag 15.73809366120349 13.460146243826701 11.156375017633449
Ag 12.792951759573691 13.669182278358026 11.055908228714188
Ag 14.331097301700138 15.90716950772995 11.514408134403098
Ag 14.293378340886552 14.751524191252702 9.004102936658153
Ag 12.7072918855311 12.477815130532882 8.338213113639892
Ag 10.43884177702318 13.785048176021911 9.469232686171901
Ag 11.835722249349736 16.138782637359178 10.25012370569689
Ag 11.425995288582403 11.460698790638478 10.5013775109353
Ag 7.278248457334614 11.655621649813838 8.271906465170764
Ag 8.266500941920139 9.24618306246492 7.693820802217591
Ag 15.615232201527366 12.281367458524514 8.476579513975022
Ag 10.128670269217725 11.30896398450742 8.057293924487446
Ag 12.31715267517448 9.094767900617848 11.478346251753399
Ag 9.96372848246831 9.02671683594866 9.96807364192724
Ag 10.998766023656874 6.7313746370891145 11.328347692829734
Ag 13.592480003604111 7.344809309788267 9.913830399360672
Ag 15.211130296274012 8.853420152110631 11.606320018055207
Ag 13.388697568167734 6.784527195587232 12.6052749610264
Ag 14.117713789994474 11.231972603648849 10.533884916368454
Ag 15.403279323252113 11.373658474792995 12.968669802828948
Ag 12.427772831755883 9.660628738849722 8.679113987034594
Ag 16.880140939972303 11.001022423051214 10.672992640089038
Ag 15.340467764234823 9.391702888325678 8.852627159636368
Ag 9.435336006591996 15.59018920798341 11.478346251753399
Ag 7.629026450724188 14.030205959181549 9.812783962063612
Ag 5.9167088144637 11.884094374416645 10.847592946896357
Ag 10.107151521951929 10.342617985090913 12.619286877860297
Ag 13.593330400017845 9.222493220554615 14.079845761710361
Ag 11.132714273178896 7.925826099476942 13.852472537625552
Ag 7.553826793339023 13.413590018678438 12.580067758021288
Ag 7.290147744776515 10.613623514483322 12.811053210867904
Ag 8.66670592865531 7.993549010941852 12.183838184783685
Ag 7.138172265066891 9.413237115087997 10.298575925136186
Ag 8.682100353209483 11.635388072390306 10.669767555215033
Ag 9.04221577411543 12.033008495569966 14.620341108812482
Ag 11.359849393142602 10.464596963840895 15.302160273735444
Ag 8.793269539247367 9.286973878294898 14.811138258383455
Ag 11.529453497400507 13.32119671169676 14.916349318450294
Ag 10.386107146539837 13.145972569484174 12.315431840719027
Ag 12.58355718062699 11.504127369459404 12.888710625012175
Ag 13.78786477311769 11.655087984002344 15.369448788843899
Ag 14.095119786654251 13.83612557789895 13.480278428088955
Ag 9.406115148430798 14.901529502587886 14.225574764610219
Ag 11.778341376344011 15.549929098038096 12.949394160633805
