46
Energy = -100.95342148 eV
Ag 12.223027456909483 10.763162675969584 12.269572352915063
Ag 14.630162008088647 12.255552236276246 12.382838477466914
Ag 15.518496297102864 7.8921032915279845 10.06441866190126
Ag 13.172002722783978 6.903787618706642 11.523514961606248
Ag 14.630141724192272 9.270752408473431 12.382856540019407
Ag 13.131082925537498 9.295689410801893 9.943975460056254
Ag 15.670372098257594 10.76312278318483 10.09460072097785
Ag 13.219726694614947 6.897171912170359 8.59008885665348
Ag 14.761181947376846 9.337875537420324 7.694182208716816
Ag 15.518548615238295 13.634150927221862 10.064378920766606
Ag 13.172059849353996 14.622518602080483 11.523454144157574
Ag 13.131109282372895 12.230610942718766 9.943960135432619
Ag 14.761223290622047 12.18834474264262 7.694175261191289
Ag 10.76320250220029 15.463977458680729 9.92822895737235
Ag 10.763167114324535 13.147420519460047 8.326265836731006
Ag 9.248447464159144 10.763162783518359 7.500327327261603
Ag 8.306565407450275 6.897258209836143 8.589988952011904
Ag 10.763180244621402 10.76315923586554 9.83857513957028
Ag 10.763171885152923 8.37889687122714 8.326275135968244
Ag 12.277903022196863 10.763157428175468 7.500340810186332
Ag 10.763121059118763 6.062347167842007 9.92825940033019
Ag 13.21977680334431 14.629067675322341 8.589988480043381
Ag 10.763127437851066 6.114279669480212 12.892039480690185
Ag 8.395215925639382 9.29570471762478 9.943952539308198
Ag 10.763149830883524 8.422246175852914 11.383443903559243
Ag 8.354264582882887 6.903816038316504 11.523462001146482
Ag 6.765131597180046 9.337971063737509 7.694157454381494
Ag 6.896165392103974 9.27078370797956 12.38282788948452
Ag 6.007792441783352 7.892181103896129 10.064368692707523
Ag 6.765163283385856 12.188439598329278 7.694163910127321
Ag 10.76315885277356 10.763170979837152 14.85507183186657
Ag 8.354315400618892 14.622543531056413 11.523480979618675
Ag 9.300324451825466 13.14201233018285 13.884024487497689
Ag 13.619436428090575 10.763162783518363 14.645689787334055
Ag 12.226018217067889 13.142004474134152 13.88401745432144
Ag 7.906881824752171 10.763176990156309 14.645682951754193
Ag 12.225988439767193 8.384331586643833 13.884045202487204
Ag 9.303295906939523 10.763172221888205 12.269577183822285
Ag 8.306600169220655 14.629131460423075 8.590053150694938
Ag 8.395229865918928 12.230648600829955 9.943962782022123
Ag 9.300295314160602 8.384341370156704 13.884030356290289
Ag 6.007835390027916 13.634213245771702 10.064389847509018
Ag 5.8559590227886895 10.763205774867032 10.094580022310339
Ag 6.8961795863790565 12.255583634847321 12.382843660829506
Ag 10.763187400130281 15.41205989726012 12.892008954361831
Ag 10.76317766346911 13.10409360408753 11.38343305321678
