45
Energy = -97.5194152 eV
Ag 9.750503233111841 11.379767484393698 5.868616450656447
Ag 7.570635035220664 11.094973513987954 3.9974239579514377
Ag 10.499591316753337 8.965563265064429 6.990500671980578
Ag 9.659466045928 9.134007619198258 4.201109021079925
Ag 7.2555163145256545 12.32141188562573 6.5288805393792515
Ag 9.954333320749145 8.429626021965026 9.675084053006382
Ag 8.681325664861506 10.70875075443581 8.559835568419466
Ag 11.133492071909531 6.098460094255525 10.806579279878893
Ag 11.260402414021932 6.415168722211744 8.030860863901568
Ag 10.790108940521616 3.8579563840164797 9.038094507216387
Ag 10.625660563830051 6.74059726192832 5.3023108116985975
Ag 7.469840962098862 8.70575843929269 2.4107632541425645
Ag 7.6613127703968935 9.414550657141623 6.393403966433778
Ag 8.470242662481796 6.806850594438337 11.326855579955557
Ag 5.727079596929801 10.621272500197769 8.10842846994448
Ag 9.607955349874587 4.488366022878782 6.53067497853152
Ag 9.34240419868883 4.103305989978508 11.443925544307115
Ag 9.487388875358464 6.68440478839413 2.742436665407805
Ag 8.492677271596657 6.8651727150047535 7.742126650813768
Ag 4.9834585032578715 11.469905586860568 5.2015346790430765
Ag 7.043796569830814 8.563392720999548 9.544482223689984
Ag 7.007406275041464 4.912997440029293 12.678440966501874
Ag 3.2198609461176204 7.143132495038458 4.902024419611922
Ag 4.584824109271987 7.658251713141658 2.353880626299498
Ag 3.948679448252101 4.977808940167462 6.617941910589176
Ag 5.383570386862198 5.540192517560632 4.263437508545097
Ag 3.1030980581168053 9.728805177157623 3.8629044596577193
Ag 3.95028367857258 5.829667077050312 9.284335839791284
Ag 2.3940367771561073 7.214807860352851 7.555030902667709
Ag 4.760904329955257 4.1713422062016905 11.287373206308054
Ag 5.275265341158005 3.3085842450400893 8.599844083443804
Ag 8.156439991846504 3.0727944625288086 8.402507967189699
Ag 7.782218286603981 7.01573752770394 4.966033174500343
Ag 6.885342994500538 6.042606881369011 1.9904652836415135
Ag 5.6011580708177435 8.766011044970234 4.6482965823142335
Ag 5.532166606691977 7.001871925635333 11.390988518212767
Ag 3.599329652411413 9.52257478320473 6.66480546708676
Ag 6.761568814301646 4.69525662643745 6.594327266841408
Ag 6.999036930715358 2.6133677134718702 10.872403912632869
Ag 8.125868394793518 4.469552488168725 4.093250853790635
Ag 5.627632411498824 7.336479632080275 7.175054011540398
Ag 5.334227495080436 10.499259539802942 2.391027823590152
Ag 4.203185250689564 8.616690626493028 9.340978351001867
Ag 6.802561135992633 5.45648941090374 9.46518563090967
Ag 9.58197125854159 1.6242829701560257 10.24336182282982
