48
Energy = -103.99339139 eV
Ag 12.965748656610163 4.679772455570504 8.753737430004037
Ag 11.64507437940854 5.198355388709519 6.448650801139804
Ag 10.901148034505661 6.543284120196215 8.924069569593252
Ag 9.891872629114696 7.384065287765945 6.269771233045509
Ag 10.399494688314968 3.58976937522358 8.470369601117842
Ag 8.76935690678966 8.412889958787787 8.623926812135636
Ag 7.844424292273431 9.40156127748583 6.0058208094166305
Ag 10.333706843819094 5.55328746211069 4.011089932381367
Ag 6.648210043822754 10.32379891435016 8.36012205456917
Ag 8.436607487910376 5.545892906963995 8.043811301608748
Ag 9.719608771935238 3.355391633197643 5.67628440658916
Ag 8.768096790022348 8.012998685019822 3.752175942671156
Ag 8.59130744892837 6.541804944554006 10.695514203017787
Ag 5.866689171105105 11.418841936592264 5.825895931280859
Ag 7.968425138566958 5.6945267805264415 2.3712457465326735
Ag 6.3596697047796935 7.467236062726058 7.447457724727849
Ag 6.7669654470569185 10.142651826729526 3.4433679030687308
Ag 6.41696552296849 8.356113926964156 10.352167983111444
Ag 7.821622202553728 2.709357369815114 7.612576173527591
Ag 9.077164477865384 3.199602352662964 2.9689470804264615
Ag 7.798919117860855 5.748529641584661 5.316971995819404
Ag 4.252836862501931 9.511903163868075 7.089798497328479
Ag 4.247172242932248 10.141914352026456 9.868475191935614
Ag 7.218905071966244 8.171496146420862 1.4201621575256271
Ag 3.9664850040065813 9.96496701420441 4.34670934302927
Ag 5.875209666407456 7.7327360380851475 4.509915425214048
Ag 8.106925055608244 3.7192484055838455 10.204575607300182
Ag 1.8572850149187898 9.337228713915417 8.572111221340913
Ag 3.933069989298193 7.480607586662786 9.142544916923157
Ag 7.054970099293341 2.8505790299368186 4.881580972157595
Ag 5.19036003939016 5.0037953627601315 4.378544130730435
Ag 5.207028416633279 6.251810688074659 1.9070991786390081
Ag 6.021508093342263 5.647153638913983 9.800272897049366
Ag 6.2723970979054755 3.529696796928488 2.2486160801157267
Ag 3.842815817608711 6.681849069379938 6.3057767604654975
Ag 5.863121943320771 4.732583708171147 7.07258844171278
Ag 4.6441470432078855 9.097463285525853 1.8132427703207858
Ag 3.1527731152355334 7.410349436395833 3.539146014132849
Ag 5.464209360188544 2.908309200802183 9.29493884914048
Ag 1.8441659001262147 8.687846913606771 5.803668650253324
Ag 5.053002186313301 2.079387938062951 6.633646636266073
Ag 1.445372340137789 6.679102927124525 7.786167226196247
Ag 2.796650933996398 4.65765504469071 3.0917738925743414
Ag 4.30246232422587 2.3589586506700253 3.942163401126716
Ag 2.8965623806129632 3.8683074229665966 5.942987202740456
Ag 3.419267441375357 4.8170116773953655 8.578563329839575
Ag 1.2690094303092636 5.993397018562989 5.038625179175377
Ag 2.821523993541582 2.1546780912382646 8.238964367865933
