46
Energy = -99.55887776 eV
Ag 9.814921309390012 3.9137851405403246 3.125913750484084
Ag 8.052375901912695 5.912133935807183 1.973874668037681
Ag 9.707004871619299 6.47430460248324 4.299202038499756
Ag 9.824766903141661 4.102795553344287 5.949816203679036
Ag 7.390546302342961 3.00271447761616 2.149461696777813
Ag 8.127371138079138 2.0848351265275857 4.786803361409584
Ag 8.534901138608788 2.2419231775926045 7.614194378828757
Ag 10.0289519881871 4.398773294567021 8.756844698086748
Ag 9.898315011688402 6.671051804291131 7.128569486948849
Ag 8.827640065203896 2.564725426565351 10.42950765179393
Ag 9.6407681571 9.034717739799559 5.619814796019776
Ag 7.390618439112307 4.729519860432605 4.4852569001987685
Ag 8.068776529958924 8.501714225264436 3.197518646843715
Ag 5.434094726655772 4.821245846322836 1.5068446652805298
Ag 5.126010602174934 3.1707568958222927 3.7752777435349425
Ag 7.4424711661681675 5.02316829308455 7.42247209614375
Ag 8.641099814684509 9.096591195761574 10.987218829028848
Ag 5.916813771045389 2.823213650320707 6.452114707492569
Ag 9.828943826388477 9.35535861967307 8.430617391294378
Ag 7.371272368711896 7.309713475870374 5.734947286825351
Ag 9.751679702941361 11.559189162113684 6.755213753360074
Ag 6.348431338019253 3.1008631376423716 9.300737184623603
Ag 10.115106075639034 6.955709127967656 9.901347860104512
Ag 7.866032657145387 5.257110201079953 10.398421430865813
Ag 7.564397540884016 7.633184738228258 8.706917232250843
Ag 8.069609031465687 11.088914436406169 4.55278965565747
Ag 2.9857831476919445 3.408484555625337 5.540275812809699
Ag 5.730835122029812 6.916298410365208 3.3152637226865376
Ag 4.964155502995377 5.463739229565244 5.80283805327488
Ag 6.309918581885179 7.568825921698837 11.231647382868717
Ag 7.292777788595026 10.066911202994996 7.13457870923276
Ag 5.3484891143030655 5.808156346408404 9.223656978282406
Ag 3.329024629142488 5.339805435690537 3.420377787390623
Ag 3.8673218080713045 3.6190735201155233 8.183075551382585
Ag 5.768273583046784 9.484210136338259 4.581542481611035
Ag 5.098627922127297 7.92064373389259 7.1442141912020825
Ag 1.1758745344116175 4.041960165602976 7.591188470041787
Ag 6.283297153212981 10.058232693368304 9.905429221559118
Ag 4.033206417787748 8.365381937893595 9.635064899549787
Ag 5.719137532503861 12.027072223940612 5.794498194571832
Ag 1.7951906906555366 6.032646443120807 5.729302125196284
Ag 3.4577617979387067 7.907235309397355 4.5820111372902055
Ag 2.7542265522214544 6.2152092173320534 8.341268055114416
Ag 4.51398417294261 10.615628716055394 7.893731241320707
Ag 3.319846903665606 10.610734869819067 5.3356785365825985
Ag 2.372923013789736 8.62804466891172 7.054900058432473
