49
Energy = -106.95882013 eV
Ag 11.622301307791775 7.038620930482704 8.204588242965086
Ag 10.298370288654802 6.514268488152386 5.790663871159972
Ag 11.246798063226594 9.2566909531154 6.421814521920016
Ag 10.675551096714655 4.380050612853064 7.588118989202887
Ag 9.811190558620673 8.349432815701563 3.773524550131837
Ag 10.626935929064558 3.8434680310013434 4.825802262509904
Ag 9.947185939869081 10.96114024050276 4.622396297986948
Ag 9.98637336082126 9.200300621797306 8.956762845236273
Ag 10.226433887668229 6.950358427509948 10.675652488846207
Ag 8.881031314250054 2.4477864935379445 6.513645929651045
Ag 8.850715817944915 6.44401244426718 8.259444442379603
Ag 8.993265363381852 5.620753262310896 3.486548334124169
Ag 9.210867923913538 11.361429654918158 7.290128460761455
Ag 8.368898535188332 3.528004684785203 8.951130808829275
Ag 8.527259416996044 8.825237624256292 6.324156410359886
Ag 8.14116636698609 2.925920810977126 3.834476937420597
Ag 8.117216789004361 10.295244666621477 2.5631563278278433
Ag 6.632961850415558 1.0214013157939124 5.723001851132404
Ag 8.02990838736316 10.980167206334484 9.865912644150923
Ag 7.819258557370502 8.329319088042306 10.646410131604132
Ag 7.728960420642894 5.527102052809896 10.727104494552702
Ag 6.420956134840171 7.9504681417395755 8.09145996614831
Ag 6.22581737246442 5.173302962861724 8.224534463751866
Ag 7.240385242362409 11.326073381952222 4.999835281575714
Ag 5.30549354776407 3.8720857936863387 10.437070895139179
Ag 5.745334147015532 8.798097156081708 5.540461611601207
Ag 7.295601448878149 6.3689147352647595 5.757144302764614
Ag 6.220089810501239 3.77325016322422 5.822666669340862
Ag 5.992756118141515 2.2149590005772866 8.186565851394807
Ag 5.334910083170488 9.967256132840712 3.093561027563527
Ag 6.26091154442394 4.999399283703689 3.299401469554727
Ag 5.297728534534506 6.829463420563198 10.531351283934129
Ag 7.122148545835126 7.7445743256250275 3.1522800244345786
Ag 5.3806631360521155 2.2520824838341045 3.571844989180534
Ag 6.443796989283092 10.779626035544213 7.598929920190572
Ag 2.9622160492441787 8.164293802338328 9.952726436751417
Ag 4.465374017687373 6.258638497881398 6.317226241137969
Ag 3.9507745917328245 2.0587697160566383 6.132914943422359
Ag 5.425096733859607 9.687536617504556 10.091506394390139
Ag 4.407105194106436 7.122360732639108 3.58134122619851
Ag 3.252170296128818 5.418662688770445 9.21003389714004
Ag 4.478314712274124 11.27440485534867 5.5112107635979335
Ag 3.312196025062042 2.683112042705074 8.791631973078047
Ag 2.0849565220453816 7.2724406608836265 7.435184280369661
Ag 2.919911342968825 8.952857474360663 5.109106736846499
Ag 3.9443653003756114 9.397503430826669 7.685585158411776
Ag 3.6798451665791414 4.282986833359979 4.347163538329339
Ag 2.2858960719313712 4.3495188826936095 6.803924564966436
Ag 1.9361100416911985 6.360226218204227 4.812471142873738
