43
Energy = -92.04131836 eV
Ag 10.649576177343402 8.459586385347201 2.8960885661558082
Ag 10.714990622939077 6.054249158313555 4.489077892943022
Ag 9.786018605875954 3.873059498257392 6.004938446749917
Ag 9.962752856588407 3.622596529347831 3.1970876839125877
Ag 10.569802584898312 8.610517974241493 5.6741232657216045
Ag 8.260301539867378 7.5128789943642404 4.057828889094451
Ag 9.938436553150689 6.3398424937252695 7.218404411487773
Ag 8.553436432735092 1.783757515184557 7.394419737645982
Ag 8.08282978859519 4.432078902596504 8.229612832569563
Ag 9.63882781692701 6.058400605034952 1.8913572810928627
Ag 7.764880056137888 2.562988669403878 4.612845900521636
Ag 10.29709948549816 8.870990965401951 8.482234552774603
Ag 7.1219664622042105 7.277200635856282 1.5224409056633028
Ag 8.846041179832348 10.277873992770536 4.12682652919277
Ag 7.414456841716821 4.723770182544937 2.86928088131634
Ag 7.9521571082738065 8.3253423369813 6.888745955885946
Ag 8.476755365261528 6.919769163212982 9.563214071533796
Ag 6.70546157665091 2.4207646088828096 9.48472888524694
Ag 7.190517758704302 5.5615759806832 5.776206201749399
Ag 5.988351855390162 2.5277724273158113 6.739633265173238
Ag 9.402992613719606 10.954469254635207 6.756813128966248
Ag 9.9824563403201 11.545791113853635 9.394244617635087
Ag 6.258597364370035 9.356675377614152 3.3507326142467493
Ag 5.443950483398031 6.5589418666060215 3.6394995856830787
Ag 6.448061505604604 5.120687151904547 10.482938712577445
Ag 8.157419865679687 9.639433790005063 10.148664734329065
Ag 6.007046657350273 6.646614401356283 8.133715407198233
Ag 5.23205874030863 3.792312412362816 4.376979925967696
Ag 4.664752957752194 4.134598679260899 8.572515538484476
Ag 6.699141900921377 10.705358537427148 5.89893695701177
Ag 6.068884336990575 7.95970927210281 10.796786279224111
Ag 3.28130069524258 3.1809728809701907 6.346103244804852
Ag 5.326959875957918 8.281758335113805 5.794720756451664
Ag 4.151474016454303 5.759082066969697 6.067947519903804
Ag 7.3046910423898135 11.73825181585691 8.486158064902167
Ag 3.8921277282812468 6.3278187080329324 10.142537686451945
Ag 5.714992639270193 10.865836915409423 10.741241555175797
Ag 5.58082896726816 9.573622296854266 8.305735491166638
Ag 2.137623605598554 5.259658675975403 8.046617317232052
Ag 3.354137139691278 7.859483536462107 7.77508750275453
Ag 3.5365624616076943 9.147921242650959 10.325943171706795
Ag 1.3782551944924026 7.483272110304583 9.7280208268003
Ag 10.714990622939077 5.493222692019323 9.158241338234152
