44
Energy = -94.49151241 eV
Ag 6.282138292699146 6.383029396911299 10.773108049133882
Ag 8.36425639801657 6.64214805864053 8.93157068309608
Ag 9.5743644450591 6.687145781207828 6.301294197673273
Ag 7.134924394208078 9.065636176232088 9.506191503814067
Ag 7.350536870126326 4.086752125512013 9.4403616312064
Ag 9.967923603480262 4.484240432746975 8.225973467529725
Ag 9.297161753785709 9.044414104331594 7.748351921930455
Ag 11.157161844185763 4.498993121659608 5.629973348767715
Ag 10.446681099113887 9.04554252354778 5.119673360491086
Ag 7.7569684089625355 11.426805589424683 8.131820290578853
Ag 11.330372990615801 2.2618874655926215 7.201928917667065
Ag 8.45099012832472 2.2939459213129303 7.349298744230639
Ag 7.893511850238602 10.074017672594275 5.575172710431802
Ag 3.357156630033148 6.600564721007236 10.77205818829837
Ag 4.9212781667886825 7.534869966649426 8.659972880242819
Ag 7.426681500612966 4.87713897102918 6.755319876280762
Ag 4.820734575177627 8.950418383171277 11.103733853718367
Ag 10.748075182575773 6.579093249121807 3.7052630442546794
Ag 6.820407500081862 7.638033112853439 6.612392449460196
Ag 4.538640981422389 4.468541460334358 9.411127575035685
Ag 5.3484531761623515 11.27306402778724 9.650408325758262
Ag 9.814395260082469 2.137174540062394 4.851326612519362
Ag 3.184199210922668 9.696772700041898 8.781888078554605
Ag 5.498333326334974 10.092261378462982 7.06966349867341
Ag 2.331370204634714 6.358337201016576 8.064378055756425
Ag 5.598839680081623 2.7772779890015142 7.358804890144643
Ag 8.650605578867165 4.814371576179513 4.264358386726873
Ag 7.0226233991385945 2.575826540826826 4.9002715273189255
Ag 4.696241279937518 5.500064636311716 6.84035495792855
Ag 8.558442626637246 2.747589958127936 2.437835498428105
Ag 5.858969029567773 6.067392059457018 4.469751065610462
Ag 8.159106486210852 7.715736972174454 3.850671335495949
Ag 1.0572170346824472 8.781547014987025 7.31416068832641
Ag 3.5800726062701593 8.170362320768069 6.182476879371779
Ag 5.643919492778556 9.019903580563211 4.330120474379856
Ag 2.825111284247483 3.5543515607064013 7.221704784200258
Ag 4.363454258508569 3.5263080391922452 4.801139312188499
Ag 6.158343607259139 4.098199033371511 2.5443943413260754
Ag 8.332714489077937 5.669289179668598 1.7021382556924674
Ag 2.3958032835503804 5.617438690957083 5.149906424269732
Ag 5.885368451395192 7.145859776705751 2.010778171461474
Ag 3.533116432258019 5.029720843579956 2.5893697525961366
Ag 3.491856227964365 7.638586566118121 3.3605228164016046
Ag 1.1473422430838627 8.07779068643974 4.664256872738271
