47
Energy = -103.52152907 eV
Ag 13.52302108052394 7.42454994141946 8.483338943018973
Ag 12.567882871797385 11.376436278687816 7.887218534058728
Ag 11.070125635507027 8.91902880118705 8.406155679094335
Ag 11.070118843232931 8.53879182380282 11.397487191620149
Ag 8.695512357976767 9.638549094162977 10.120020505412123
Ag 9.572766503909326 11.376795477531335 7.887229496503394
Ag 7.088234910694491 9.98289284723693 7.878942389341111
Ag 11.069826277609074 6.371773204866943 9.644551060241174
Ag 8.616603537917454 7.425084054260121 8.483388573171604
Ag 6.184164835501558 11.073832082873494 10.461095619267192
Ag 6.373525789303754 13.929626596785104 10.811804651245842
Ag 7.1192964909562715 12.798980171931312 8.267972565579186
Ag 7.200263516743162 9.272186575820974 12.533171002955456
Ag 8.655857178142552 7.024236987149069 11.340404580565865
Ag 8.21589278936329 10.372378529259828 14.975558503523306
Ag 6.319365769383605 8.228254609175751 10.046091522871553
Ag 8.721153550943681 12.536011925110689 10.510881397770637
Ag 11.07042084944792 11.093388894652248 10.22422221750494
Ag 11.070515830494767 13.632998693935678 9.033513085777747
Ag 8.661760248371634 14.657192841640004 12.426171246122971
Ag 11.070886693854995 16.33232906411995 8.392707647673774
Ag 8.678703000839024 15.125581897908939 9.44574031559245
Ag 7.2158093544436595 12.213427683917038 12.941713014771965
Ag 13.41980556549164 12.535438130787009 10.510908715306691
Ag 11.070420849447922 13.168684537117745 12.093388255004546
Ag 13.479726744876356 14.656548785155746 12.426247090141166
Ag 13.462974203684666 15.125012500783615 9.4457927483974
Ag 11.070682413446432 15.270965847516957 13.880700676845656
Ag 9.61944291123306 12.872015414937213 14.570582036891492
Ag 11.070775628093736 15.734758049818637 11.061818381466137
Ag 9.61877167018799 10.736622169251339 12.63171953599255
Ag 12.521732144823218 10.736254851451923 12.631726055607865
Ag 11.070355975602226 10.384121193846267 15.183452855549975
Ag 15.021704601964354 12.798100257506281 8.267996665808356
Ag 13.444700514920303 9.637990768194376 10.119993779503778
Ag 12.52298577839775 8.150038450654566 13.865473732106441
Ag 14.925098770065528 12.212394646322034 12.941718420799644
Ag 13.924544282803529 10.371614533930174 14.975552690119297
Ag 15.767761085136653 13.928500859634243 10.811865559544225
Ag 15.05208767579502 9.982023860543762 7.878908252300365
Ag 12.52158782749142 12.87162986795013 14.570600783528926
Ag 14.93987100890568 9.271215674904765 12.533125725361018
Ag 15.956431418026506 11.072648763123363 10.461071079324212
Ag 13.483727439688405 7.0236257685660455 11.3403373224435
Ag 15.820481674743188 8.22714730028116 10.046020522303026
Ag 9.616937663025059 8.150431283678282 13.865518516872138
Ag 11.069802852573014 6.041735789228655 12.590757942001046
