40
Energy = -85.33416255 eV
Ag 7.3589235508197515 12.648273308697505 8.615441496013373
Ag 9.821819423891174 6.899022899462582 11.915454952098385
Ag 8.018503083226681 9.955816637307803 8.753167477719634
Ag 6.237295879738951 11.02953432664804 10.629557301762281
Ag 10.1409849517931 8.36788920212504 9.573508096124888
Ag 7.893901386922138 8.81865222215939 11.275927095838188
Ag 3.6984815439590584 10.09834234595952 9.993544822506426
Ag 7.719497258826722 11.105304284660795 6.216272163940922
Ag 9.759638453471768 5.151639338279415 9.744309741401235
Ag 5.365062278989903 10.841472530207074 7.8498146211484165
Ag 10.871917732793674 6.685686533943872 7.54619501199941
Ag 9.374900922580538 8.731464961410051 6.541744792721399
Ag 7.276123375209788 6.0757303057098815 11.007071757602843
Ag 6.486610514293184 8.534588456748908 6.726646031138708
Ag 4.6901578930784495 5.493780738109088 9.976035550796471
Ag 3.706191377255082 8.526178560818565 7.555775413612055
Ag 8.009255436366521 6.918616753240077 8.352965390665553
Ag 5.682966208125867 8.163946606335132 9.603729780074937
Ag 2.7749714284043883 7.457055471309614 9.939274305059731
Ag 9.884542969670925 10.395482790747565 4.374332206415429
Ag 5.447391684593017 6.08049998532743 7.311615861879097
Ag 9.772390933519063 7.661581906587565 3.8796637586244698
Ag 11.764407336491281 4.1428898550022994 7.71627537239449
Ag 4.560545904013873 9.63990640539122 5.111090410026455
Ag 4.25370327663934 3.5402553650463027 7.91569901678828
Ag 9.07849376114229 4.181402011641402 7.233280263883635
Ag 6.9512263169916215 4.184080640770885 8.98118921764732
Ag 2.7607934655864126 7.301747490679428 5.239118467131299
Ag 7.906324471780806 6.209448201054881 5.472332915140029
Ag 10.69823762207206 5.303181169319772 5.190364013767359
Ag 7.356432562029407 9.171777494791282 4.195262744125079
Ag 2.6591064547491388 5.815025210965278 7.633100652494154
Ag 5.38853631198696 7.044907463964566 4.424470070481239
Ag 9.167914412754712 5.162146541329848 2.781514553381195
Ag 3.9719954589829856 4.717992954792372 5.273729027404894
Ag 6.469145906726967 3.6812245013837637 6.2303616477464585
Ag 7.2991575679244525 7.08916960766882 2.3792290950071697
Ag 8.709214146217693 3.2201389229990305 4.667239122432149
Ag 6.36300205442787 4.5553028953684835 3.517092478541859
Ag 8.012889396813337 2.7531154696126734 2.065522104181486
