48
Energy = -104.46650494 eV
Ag 6.68407958382275 4.407640586946765 10.596932794035661
Ag 8.462870170800384 2.8658373307229277 9.044860827838031
Ag 3.940975006431484 4.709884199015724 9.747412668762056
Ag 1.6948912152574802 4.837793623894861 8.006066753890419
Ag 2.801499650389551 2.3263377649431902 8.611546889095587
Ag 5.580355002733882 2.6080858874052084 8.746194883597287
Ag 7.292855645397266 1.4901746865649759 6.873654764264193
Ag 4.368862797583331 1.0961140704254957 6.671581619957407
Ag 8.751659994778901 5.663974095003232 9.078437963347028
Ag 5.961889250957631 6.40641361000967 8.861465804112498
Ag 3.113604479053535 7.233251248860872 8.636293066449582
Ag 9.674204030312444 3.2758972200455747 6.510897164162185
Ag 2.258647693108018 6.622910682664079 5.9376238215269375
Ag 2.5476948293861126 3.1240591324091858 5.889541633632446
Ag 7.9471336344130545 8.316692582189697 9.363012414133488
Ag 5.208696677654641 9.113276831131842 9.268708216385363
Ag 3.593067623307454 1.58779083884349 3.7867316717248123
Ag 4.351039559787323 5.029830281532106 6.909414696061775
Ag 8.118620776042132 2.3575674422291653 4.3289408384924295
Ag 6.115752592969186 0.24184500769644524 4.704765257471219
Ag 5.470685235889423 3.1433731649011265 4.969321933995597
Ag 11.037947172450615 4.150725108312838 8.7771204303215
Ag 2.590696848697173 9.960937274110053 9.273544681230995
Ag 7.099342906876911 4.371386402255748 6.96539634791901
Ag 6.136220871649522 1.6198288331419417 2.3662194900322966
Ag 3.44218289001386 5.010274477998325 3.989458171084178
Ag 5.069153195308416 7.92249043879754 6.596702134574487
Ag 9.813480021955028 8.973652541343542 7.277717081962725
Ag 10.390171207316204 6.0550784982577355 6.777127010106267
Ag 2.677861586283258 9.312157930653367 6.566097878978174
Ag 4.297641880419471 3.5854961735859074 1.7822222847146623
Ag 7.786190203427891 7.139009533017663 6.758776337668898
Ag 8.82293351960241 5.12917256694302 4.552864051127962
Ag 6.077078354057572 5.962890950829897 4.740323953192889
Ag 3.8914431786909893 7.8966407502660925 4.031119177132646
Ag 6.957842747266857 4.269162404233677 2.5694007963946532
Ag 4.49800074862861 11.271956635523258 7.616725151936714
Ag 7.100073387967173 10.022808513953079 7.330878997606119
Ag 9.622080436820136 7.856666917493687 4.652215482169088
Ag 6.896522178681565 8.749031649579914 4.587377847980591
Ag 7.811179980767611 6.927581046170154 2.5411638321534693
Ag 4.662175879448309 10.454719345814729 4.911538767764899
Ag 5.047216946136663 6.296162467750856 2.0219353334860846
Ag 5.7821729216561035 9.035809832186615 2.114962794062085
Ag 6.521683706896743 12.32831896694937 5.953785325495429
Ag 8.770528852482014 9.544676860262957 2.551445397678566
Ag 6.8270427058101 11.37307398142607 3.366175017813888
Ag 8.860681081932029 10.707335626305618 5.2233800070403955
