47
Energy = -101.71065351 eV
Ag 9.441717222315404 3.3608678008884025 4.038249231436388
Ag 10.929310231204738 4.5504078308870906 6.051939755449306
Ag 8.459486248407693 7.8385004516755 9.951882493447876
Ag 10.091849330084663 6.451869431432286 7.985020502488973
Ag 10.340277806420298 5.622435922224686 10.60909399107278
Ag 11.234585211339486 5.438901342246716 3.439926636125634
Ag 8.524010234922367 6.027688031279868 3.2636852720817995
Ag 10.345905393791238 8.091326570283279 2.7084087402304093
Ag 10.003819655454395 3.46927727922285 8.438282476323657
Ag 9.038210384002296 9.842903444921626 4.629628853518596
Ag 8.752063760601928 8.84250868788451 7.310928682873842
Ag 8.939126186425854 3.276016189840395 11.243627823707248
Ag 7.888850507359771 5.854399712589646 12.055737676012557
Ag 8.155901844025317 5.238523808152697 6.274834984606471
Ag 7.556273316113295 8.634592890264733 2.5472515482093367
Ag 5.9583576896636625 3.7950744305804447 7.819279860376554
Ag 5.719115775096122 6.473008198498142 3.0758896079083398
Ag 7.6155517770273145 2.0846083881816564 9.189108690872228
Ag 6.687375128137903 10.544258713067727 6.139952404946477
Ag 5.834599336845289 7.08406868104335 10.650241857878923
Ag 6.390601488916255 9.564150873775008 8.788230336159463
Ag 7.965324978089535 5.070177543364623 9.30891908924052
Ag 10.150927208494101 7.284701786621977 5.339305773980828
Ag 4.264866234691908 11.023632527060583 7.566578325975984
Ag 5.895841668414766 4.069766087000876 10.722301080398951
Ag 4.48560609254971 11.829342809258884 4.817430821448274
Ag 7.479183538066772 1.3381345335272974 3.941547060182793
Ag 8.090909482682155 2.424965637554637 6.413359225304822
Ag 6.910391506658456 11.314753490992477 3.4584176015853356
Ag 6.531555593409907 6.9488488422257975 7.904218251567632
Ag 3.279944600251132 3.897941346123743 6.942054033759588
Ag 4.630456903947016 8.479304631599542 6.440253736612169
Ag 2.0220845018865266 12.071684555860783 6.258891724813965
Ag 3.8239980536616978 8.349039855039583 9.123357892279438
Ag 4.1739773045820066 5.547465540722952 9.01748894583995
Ag 5.073133183610359 9.244574062582759 3.694770296676869
Ag 5.257717727431564 5.665008979423229 5.805355305361932
Ag 5.231198208114652 2.3003331337135684 5.534809034696036
Ag 7.178047222607772 7.731107609009011 5.2092913866516515
Ag 6.729460914897664 3.993087709287171 3.9257879211776587
Ag 2.589123532535354 9.758721520250441 4.887561151669421
Ag 2.4858668031755196 6.720237537389657 7.075461569384441
Ag 1.8712622156682297 9.510966226448781 7.530782998436307
Ag 3.22967525400555 7.068868589676071 4.301835435495294
Ag 1.5173762117245948 4.9337646730016065 5.087927329501407
Ag 3.9282707471214366 4.301131135238701 3.7760946393015575
Ag 2.483324229322559 2.223563403840236 4.891510388684451
