46
Energy = -99.31045497 eV
Ag 11.524588378506307 4.444027659814608 6.91342116891796
Ag 11.17757900466694 6.601932535964298 5.278240370847884
Ag 10.29682165747813 9.157830213668458 6.556170946910602
Ag 9.679696317303307 11.288583725612908 4.926172664946961
Ag 10.633773068586962 8.854538749588626 3.78609098349471
Ag 9.747367432921813 4.122324071198241 9.136898865693551
Ag 10.250790819449405 6.7726148724404105 7.988356089539586
Ag 9.795547224503222 2.285974901083564 6.878732424667695
Ag 9.901568367298331 3.9822484727453573 4.44364844987736
Ag 9.566230093105776 6.35922741288844 2.800567944207202
Ag 8.926825931250232 11.47388891074977 7.6194602991544125
Ag 8.621321628053197 8.962730970037983 8.828266705811021
Ag 8.230132128075761 6.332302756555441 9.920567444504874
Ag 8.451695731579264 7.388165301830442 5.0607351396464635
Ag 5.025438685845887 2.5570074990494764 9.803196776962913
Ag 7.357732509298611 9.830968753562306 5.993622203144088
Ag 8.071779703962713 9.725184009613777 3.265716732661532
Ag 8.607477106336994 4.910012444428928 6.6668071119626395
Ag 6.7971453960795625 7.341121692354585 2.5588144373247506
Ag 7.443195430333689 2.5815806235775547 5.4362055220203205
Ag 7.363468122601803 2.878611220470998 8.266769933754727
Ag 7.051230642001856 7.13502764486394 7.467771242383478
Ag 7.469722146459222 3.751792335864877 10.887743178167687
Ag 5.350937902066227 9.559807861638312 3.732423684799972
Ag 5.581328749033576 7.163997583217495 5.09144911870462
Ag 5.95631993354387 8.053643232720125 9.848181560369147
Ag 6.311691171376928 10.544925063285346 8.49326643554401
Ag 7.211791947873049 4.951998002962103 3.973624571469185
Ag 5.694698001804722 5.2460564807106485 9.361558149712145
Ag 4.994463255936096 2.0021738598252643 7.000899113229447
Ag 5.769229441300539 4.736884764676379 6.533643328438493
Ag 4.5875486342676846 9.527855278016764 6.434883866682366
Ag 4.080171300947767 6.889200607168579 7.771153207969618
Ag 4.483338606108666 5.596470003436533 3.0428617240067086
Ag 4.9143582257083835 3.068278962806556 4.36014635835992
Ag 3.3525451255491086 4.023310008415488 8.0896752878085
Ag 3.7533222250681106 9.5532256191063 9.054283456470793
Ag 3.142477354655513 5.268999977106255 5.484286544788622
Ag 2.4110839252643603 3.3903958685915674 3.30146523893357
Ag 1.386266922743433 5.913728216828908 7.5753101033354495
Ag 3.0051160475190595 8.088417285374346 4.513327482803773
Ag 2.4645740941014913 2.4171505974268657 5.927882581063648
Ag 1.9538397102446226 8.658601911679295 7.108704812881554
Ag 1.6692836194187357 6.015734870952205 3.140666205469255
Ag 0.5178463498442041 4.340333077771255 5.343101651245206
Ag 0.40615162636076907 7.213233982099669 5.322190150208706
