46
Energy = -99.29308825 eV
Ag 7.555571104925637 3.9574739293737697 10.080519997401506
Ag 4.668745422811174 4.498213259156895 10.292194718193397
Ag 6.286418070614637 1.9493799856504501 8.534307754052675
Ag 10.18775094191875 4.734540075660721 9.45547769979722
Ag 6.643405162172591 6.585664209142991 10.232681492909178
Ag 3.6543041243289034 2.872963203180477 8.070810993162786
Ag 8.821465071029099 2.8611509841931335 7.838623555174466
Ag 4.816393357267653 0.3707295479673469 6.799475349648419
Ag 3.919990065859837 7.280928594924927 10.089877925860346
Ag 9.387126472685118 7.351217747447849 10.135289185910102
Ag 7.440190452579321 1.230664837274057 6.025844039828422
Ag 5.9561415142734555 4.684938283263455 7.894058082841821
Ag 10.830169225847001 4.435119764998868 6.807143180638214
Ag 4.716862348415628 5.682661156810787 5.577285727598804
Ag 5.187335401050576 2.8598731313273356 5.765769541054756
Ag 7.52728558999319 8.96375429607412 8.886168683323294
Ag 9.614114356689011 2.6135490156807273 5.0403631091906105
Ag 4.805351178262891 9.895797546263339 8.998769745341713
Ag 8.322579066591532 6.288123576706021 7.761423329145026
Ag 3.09215239839442 5.617414253648057 7.999579866011562
Ag 7.643083871552105 4.558443631901902 5.653324586136009
Ag 2.58531797418754 8.469119943524731 7.877830799685064
Ag 5.398373050219166 7.495028310902052 7.711338932430737
Ag 10.942235646480224 7.152933080786294 7.771827709181075
Ag 1.419237273383037 9.580270044897361 5.572380485198942
Ag 6.956010909392925 7.402435777540868 5.377500871136499
Ag 9.062954960840313 8.895312939188742 6.5461679891738065
Ag 11.612732420522818 4.408982207925255 4.180209046667664
Ag 9.853373455845249 6.4889706367053055 5.163666627217354
Ag 6.9761703401381725 2.789493011187718 3.5858347771894588
Ag 2.4996131230533587 4.021475215325358 5.6756929601671215
Ag 6.320494539749588 10.036374193760889 6.575003902346428
Ag 4.127267946617508 8.509195150737648 5.386624313625001
Ag 3.5948352410155735 10.994275553107625 6.718616497202107
Ag 4.2371529359448115 3.8659568357107306 3.3603577272654332
Ag 1.8929938238056254 6.788825601789305 5.690626493158094
Ag 6.355297805729563 5.592498330048134 3.116043083426992
Ag 9.052250271071118 4.722603181200666 3.1007450537233927
Ag 10.422287489301336 8.99453867420987 4.0786685666239615
Ag 3.5002771478602916 6.624908799828448 3.269104843352999
Ag 2.4577215787171003 11.880508135069132 4.346726362403283
Ag 7.74317643076464 9.976190728444033 4.136801708348282
Ag 5.652441921745627 8.442652861687474 2.9781528361224705
Ag 5.087063285106547 10.979715438263584 4.140815504930164
Ag 8.393055020870296 7.490763278915212 2.925845961487151
Ag 2.8890445593314613 9.397768152266783 3.0690956359397434
