48
Energy = -104.13378901 eV
Ag 8.065930356211684 5.2474806484702565 2.6373513783673492
Ag 3.6612769214301153 4.213670383673184 1.266639446536242
Ag 6.5529943260174175 3.587295191952038 0.8911254033214504
Ag 9.067731022449005 1.474694181546411 5.578249050627609
Ag 7.9283506413924885 2.477639891184383 3.104350536642491
Ag 9.284713707923522 4.2077790947252485 4.957849652042148
Ag 3.0429769472564816 5.270897254561877 3.842160871223948
Ag 7.295298426525653 7.941032956490705 3.0153149403663546
Ag 2.9600015703740237 6.9832065984921385 1.6379216514151924
Ag 5.3447814537431535 3.7421006288402694 3.4043787643757466
Ag 1.8847448308274155 7.913585225598357 4.039237198404637
Ag 10.789315541400201 5.734273441802059 6.839327208102452
Ag 6.695977115765523 2.8403291472871044 5.623202213791935
Ag 5.647791999875831 6.131486019541711 1.617877607845493
Ag 8.17418534536613 6.198900134869272 7.372455574945961
Ag 5.072757115421838 8.881506446491434 1.5279217919483477
Ag 4.4140126227647585 4.420144556127141 6.118305896201204
Ag 4.656165668056214 7.59585560713615 4.023934810011844
Ag 8.579919679852685 9.88811672029231 4.769267304926774
Ag 6.343365568790609 3.9698899833495886 8.0856081040811
Ag 7.307304163284381 1.3104251109872567 7.902333796536881
Ag 9.141723004727435 3.417225627336202 7.617424358052601
Ag 3.0450631389738065 6.819681659950909 6.328020426684604
Ag 6.596946551349401 5.774406228269864 5.082909519170982
Ag 10.435697767000006 7.490668902160272 9.176642502196145
Ag 9.233564869518794 6.944861982424817 4.677426147728518
Ag 5.351386312885743 6.57935920093861 7.931528531992103
Ag 11.10111075032857 10.185825840369427 8.712455434585411
Ag 4.1241218319629445 9.506473794316049 6.111711853882321
Ag 7.631235405820325 2.8093154605388198 10.278065937192235
Ag 5.854342134907361 10.157515086493056 3.9221465769779305
Ag 9.121434837468442 5.130024012605003 9.820682009602
Ag 6.769135955848157 8.386392971945344 6.194677196390836
Ag 1.36971668978394 9.10044241978884 6.501729039975979
Ag 3.0648868924585706 8.500756099410909 8.60052910215847
Ag 10.180374426037467 8.544391343247586 6.649509263384218
Ag 6.2073782161831925 5.277110242163187 10.520431217235862
Ag 9.596543411492819 6.999671139394835 11.845048737121685
Ag 8.141124620145762 4.6221756128738924 12.41143190012545
Ag 9.365982206251296 9.59646331695049 10.810274105694216
Ag 6.532312232655131 11.179047451960981 6.398814475970677
Ag 5.62651352648928 9.636701267201147 8.58976134642435
Ag 7.564470297230754 7.684090575850885 9.684365727426979
Ag 6.878922506324972 7.2095062056235175 12.466923425957912
Ag 4.818704022899614 7.655958509938408 10.615832003582668
Ag 8.366130237400085 10.06432599886601 8.197242070543853
Ag 3.8555580662425286 10.213331607736928 10.742774870541936
Ag 6.623202755327318 9.85114591066918 11.224006710128407
