47
Energy = -102.08391146 eV
Ag 9.74157370296045 4.5737674032962445 5.4280958496922596
Ag 7.23546528281314 5.527031351426122 4.156687225794694
Ag 7.3832342072655175 5.013910414399988 9.854338578694904
Ag 0.5970457603391754 7.170465200570816 4.541084619345236
Ag 8.881040042520592 7.116837492635365 8.586387129342334
Ag 9.780684967578704 4.382219803728403 8.275830029203325
Ag 5.946131923571996 7.548615673423211 5.776926119642709
Ag 5.833118037908863 3.088234420754899 8.347669136035547
Ag 4.633183814464653 9.428890994276127 7.541342775033222
Ag 11.06944746654061 6.726628656093418 4.1068305078504945
Ag 2.008756108594541 4.710401826442265 8.61246375825842
Ag 3.3531496873387283 2.7856346853790974 6.961684220544089
Ag 3.038070146826863 7.650369718874586 5.907640825160152
Ag 5.841528304155212 7.778138234964567 2.7783550254709097
Ag 10.207807468966525 9.41044215722202 4.337451802251563
Ag 1.8699100110341673 5.228145500724549 2.902247011738242
Ag 5.630278874726803 3.6117120400374336 2.5887543409820246
Ag 2.974238095979155 7.869140731155718 3.0040112071140057
Ag 7.316640071967131 5.275692596157841 7.0193032401820465
Ag 8.668424083596141 7.587759396973801 2.794296225680842
Ag 4.24047322818881 5.832231822056172 1.4152016945007027
Ag 4.356448079686279 5.651942788057943 4.229560464459542
Ag 3.1372589408280347 7.358298104317476 8.79470532740658
Ag 0.6899624593341844 6.858783324642311 7.412615047193531
Ag 8.05676314026186 2.771815632207763 3.8929811028920445
Ag 8.81186609411504 7.386651687110708 5.718296445320096
Ag 11.188619165862507 6.487624388326627 7.013877434163585
Ag 7.477705671711738 9.357823779519439 7.536659275210528
Ag 1.8332505401673962 4.918327536649638 5.742306424580094
Ag 8.93039516266335 11.254004338124913 6.018281884705007
Ag 1.7419999611681138 9.485931055752875 7.562189861217205
Ag 7.37862596535454 9.659514662778593 4.251629342655643
Ag 10.331805694273196 9.178821946916386 7.292409311631662
Ag 6.028987273612714 7.264627346514691 8.767941537485969
Ag 1.7449417761188326 9.800892746846865 4.658557985917635
Ag 7.087164372359815 5.718159542613787 1.3050896941656174
Ag 4.556515181853696 5.144371653476112 9.959622382639704
Ag 6.1305235263220395 11.35039131081593 6.099946130872269
Ag 8.148191416587581 2.5576469090991316 6.738159676077117
Ag 8.262014453033318 2.3945429515201333 9.534321071526156
Ag 3.262391092730248 3.0715671437114174 4.107009373136382
Ag 9.551874186435114 4.833593540205184 2.594218931131364
Ag 4.563442429514675 9.72206568350046 4.427264599399425
Ag 3.472717083924691 2.587686922024549 9.760581150662109
Ag 4.447262507688189 5.410226782897152 7.1028482616335875
Ag 5.739195669642796 3.345100077621438 5.466450914960448
Ag 7.935795219889548 3.0680594752419137 1.108089725085056
