44
Energy = -94.69578035 eV
Ag 0.7135434327608005 6.340632323327589 7.543115219023236
Ag 0.5828756327875608 6.299059482105545 4.748705958471513
Ag 2.8615461887037643 4.996001800999832 8.885221725040006
Ag 2.7573146091447174 7.845113138527897 8.742113947760634
Ag 2.689041486730868 4.9663468187733235 6.0634118638827506
Ag 3.5201521356829373 6.551979378863566 11.133617880072212
Ag 2.465899134514518 7.996796864904821 5.981899974747671
Ag 2.4722481299909482 4.900516464287738 3.243728473296222
Ag 2.4156928695351816 7.811877786221406 3.170687637300371
Ag 4.958625456507666 3.707393317825148 7.417188417066432
Ag 4.861654413119054 6.5617755491229985 7.2548979831368
Ag 4.601224737670324 9.44973620194045 7.27163907536324
Ag 4.735488411820248 3.6560066488966614 4.5956252782711156
Ag 5.542011683145636 5.1800496447506115 9.79424701845289
Ag 5.380111975526179 8.15883981852532 9.634813354458952
Ag 4.411910868321819 9.418303760321368 4.449664647690266
Ag 4.583667907322661 6.516180960362314 4.427178058853621
Ag 7.032559948946095 2.4475163617295923 5.895544308704782
Ag 4.43516396699439 3.5023778846444915 1.8066646304588732
Ag 6.154579645507446 6.811030853337762 12.043083401213412
Ag 4.3102941374467525 6.339029214645268 1.5954121528369525
Ag 6.974668091425921 5.2872386899945445 5.691706841061127
Ag 7.876983898439043 8.569342907032155 10.677411216613164
Ag 6.422986707460353 10.944810206608876 5.754573677343099
Ag 6.613985947838353 2.263521379063236 3.068997114953114
Ag 6.324714659924469 8.018296748649885 2.7304082395351204
Ag 10.174522833938276 5.534500230478392 5.636746724006936
Ag 7.595136305493854 3.9221215401638103 8.331937861127164
Ag 8.267337043391393 5.782584780402327 10.512283297121954
Ag 7.423666951913516 9.6249643097864 8.079541750765008
Ag 9.644428770434976 2.9680797093083906 6.746612856724233
Ag 8.335416528546242 9.624100380624547 3.92917779959713
Ag 7.605764425685234 6.78403100046588 8.011989785790401
Ag 6.6873758627846644 8.125847681777364 5.632989620912024
Ag 6.585678074334107 5.112059761574127 2.686696058747337
Ag 9.15143453067182 10.94691302928471 6.302682050057297
Ag 9.906377142053033 8.109171636859163 8.861524343935887
Ag 12.2200087604093 4.213494378975302 7.024331169668745
Ag 8.727605586003216 3.8452676510556563 3.958210590623801
Ag 10.114377945663902 5.234597334847103 8.535720606075685
Ag 11.32393418721636 3.148082664369748 4.571857414948323
Ag 9.568314549372046 8.219378789186726 6.074358377547279
Ag 8.589514291641267 6.777946065352032 3.7672421586794713
Ag 11.898288649590576 7.020182357574738 7.250314090070094
