47
Energy = -101.88993227 eV
Ag 8.680072359977132 2.9306563562161747 5.709972448520448
Ag 10.198988780632945 3.8246088743749893 3.4689802077885714
Ag 11.397716466051314 3.2675046307949667 5.994294171513503
Ag 6.852421838496722 2.9685829291759513 7.956991441643411
Ag 7.385408751885096 3.689310298781595 3.2678070330847
Ag 5.948208299559681 2.041023056100074 5.428398592333364
Ag 9.760467022703649 3.0946690492708413 8.342026103413012
Ag 6.465203097768395 4.746341780711475 5.670870547148966
Ag 4.567027924693116 3.9443678857611078 3.8011458947468504
Ag 11.515566438845088 5.803940971193134 2.0838367791192027
Ag 11.613978472540994 5.8646481276721625 4.882888157944969
Ag 4.019979113793304 3.7420375699399293 6.930720878481728
Ag 11.35478680568655 5.436798880517999 7.713117649734437
Ag 2.1021425689355184 4.451446133150037 4.985718175101028
Ag 4.813553716098395 3.6507521563469245 9.81216265399246
Ag 8.734851337502954 5.978153835895317 1.891839232031109
Ag 5.705790870690356 5.608567251817799 8.205494222929811
Ag 8.710955613871198 6.025572626839796 4.643121863588236
Ag 7.726547677945923 4.663137526428408 10.065505511976
Ag 6.16421142846269 6.267315788057474 3.2350792134048243
Ag 4.167215660054228 6.348695392327013 5.238747949484926
Ag 2.1109200760500526 6.259346107201967 7.056820494008937
Ag 8.566432935977005 5.421126398189442 7.490693798598477
Ag 3.2589027265503123 6.173436547107516 9.536127605855647
Ag 10.12753042877174 7.669710414489767 6.465094877422334
Ag 7.005145671929528 7.492826038506449 6.455774900478931
Ag 9.80454392052162 7.1664395793002065 9.341909107469531
Ag 5.508616454781345 6.136039832882275 11.184388320662507
Ag 8.332561451790346 6.773341035806096 11.81189043012016
Ag 10.266618122012256 7.971011712252853 3.4296838729065775
Ag 4.564792170458218 8.086492357446035 7.6393399600498935
Ag 7.026765591848738 7.658560957407168 9.426513543022269
Ag 7.5675577191021075 8.599690127708744 2.5996910732914613
Ag 5.279014271778662 8.72090697188251 4.410644895488532
Ag 2.6419784345518607 8.677859001811658 5.610327561787446
Ag 8.434574221765672 9.467709822186066 5.06980654545148
Ag 1.9319838925098622 8.697996964733035 8.488891065115942
Ag 8.580540534664955 9.486878810894325 7.9375341264904655
Ag 4.08447019307284 8.719052992739229 10.355506148919027
Ag 8.717449613444531 9.434238449451707 10.743223560331753
Ag 6.274365372935751 8.72657922550413 12.036335986005637
Ag 6.2582706070980025 10.362772221706344 6.628882837717148
Ag 6.46521137516963 11.063633769608812 3.7994083201790696
Ag 3.962764813954553 11.153859926427529 5.273309951003726
Ag 6.266267257412885 10.345799533057896 9.511557812473336
Ag 3.8650713534081578 10.75413876454997 8.156667114694976
Ag 1.5253764652508925 10.940971809704612 6.696387637971399
