40
Energy = -85.36865669 eV
Ag 9.733685106988315 5.07954104362345 3.1141690726668605
Ag 7.375835695986974 6.389708548623016 1.6971813719857478
Ag 7.331735424838505 3.7480615493612692 3.1562302174199526
Ag 9.839621024771725 7.746793493854721 2.7735640688982137
Ag 8.902290598913748 4.028861548688273 5.577457630823597
Ag 10.04668824744781 6.71203006032929 5.540143597720918
Ag 7.040547431077879 1.7362980917333546 5.396622219855878
Ag 4.979685791516929 5.427502204764178 3.1824192943777985
Ag 7.519749714003969 6.383224015796697 4.372707985835904
Ag 4.845557212766738 2.641607646446681 3.5508669999160793
Ag 9.731820259200141 5.2216723247178685 8.147014137375715
Ag 8.520639168237771 2.5923057540880756 7.891685373882013
Ag 9.727074709344128 9.583286252275053 4.785817170740196
Ag 7.423742029100135 9.04170879135475 3.054544672944175
Ag 5.971164229732851 4.183256969160184 5.6798599974354165
Ag 4.065753052090592 1.623594962508219 5.916393237017998
Ag 5.759356586322089 2.327964430813682 7.978907439972467
Ag 7.39663919551811 6.152445053135483 7.215360519224713
Ag 9.432477403080373 8.157981539525386 7.86684708842389
Ag 4.948910601126325 8.040570817586904 2.321658208861302
Ag 2.9943966596997833 7.291858879196503 4.322299498198475
Ag 7.321468908857854 11.225159359109677 4.785538042917347
Ag 7.386029412328051 8.689308988916109 5.9847457260298835
Ag 5.133835582361807 6.899992776598265 5.8812589825422235
Ag 7.194716827626515 4.467074470536512 9.50500258600316
Ag 7.573391910043634 7.249804577095357 9.845150405179256
Ag 8.854838952524652 10.911780305313625 7.07353214500093
Ag 4.981898996079496 9.50024596046841 4.722188944801459
Ag 3.2159004532003355 4.403295834342982 5.266337344744252
Ag 2.953243976904776 3.0872368225950773 7.924489131621074
Ag 4.84136724505142 5.131563939981623 8.070667909032068
Ag 4.618020232116253 3.408196929020461 10.285574731863306
Ag 7.830041620197491 9.98278292845042 9.416211601364198
Ag 5.314321934327262 9.01406842531093 9.625382633311736
Ag 5.974671990410887 10.675825056578642 7.372442866635834
Ag 3.747632981438176 9.00416350430955 7.2170449327469495
Ag 5.051912233635625 6.317967061218244 10.598987388609503
Ag 2.519518673859342 6.413175437002221 7.109236248018196
Ag 2.521337076853325 5.147193248566489 9.749975844893727
Ag 2.879356092715399 7.840547712714888 9.583773466509848
