48
Energy = -104.20165586 eV
Ag 7.235776438996302 11.67051901763249 5.152343874003328
Ag 5.9621442136155505 9.85501236227813 3.5728511273537054
Ag 2.375078174449464 10.091628477213135 7.637008195666347
Ag 4.774946686507553 10.584017391643691 6.134134054655561
Ag 4.818120316148854 7.998008951792002 1.921338742623522
Ag 4.679427449607815 10.598674702464871 9.154473837012652
Ag 2.6076141943685056 8.517094694367316 5.2335323335786095
Ag 8.865275705725095 10.141911743861888 3.441115733831524
Ag 9.474704936531191 10.127832699795848 6.235929806134236
Ag 7.101714360981472 11.157564328504936 7.820631200881842
Ag 1.618528544617402 7.336202390740453 7.731309251601657
Ag 7.653577607663367 7.7930525399608666 2.6726475542545605
Ag 7.0509520302970845 8.764714774874397 6.103751868454173
Ag 3.239584349379099 8.23062163375711 9.901537162205207
Ag 3.145250559564026 6.087815319835354 3.206887259655934
Ag 4.357211862262338 8.125058153120584 7.373579666535068
Ag 5.253739752626226 9.201736365751897 11.554208389757076
Ag 5.051204862871793 7.376823386538592 4.683411536841286
Ag 9.39567021667775 5.417115467652741 3.1055344040375434
Ag 3.0737168725869033 5.693832379093943 5.997346520439627
Ag 9.70235212720217 7.753767635638457 4.704422404178905
Ag 6.003062350197773 5.555396003279477 2.5540697719282948
Ag 9.366805774779076 9.915661031206811 9.004115742020202
Ag 7.316491711021933 10.904994201254237 10.688366840666525
Ag 6.748487999521523 8.645738096362699 9.021227115781944
Ag 4.787883773177765 4.055313085161911 4.5210376406557025
Ag 7.4722330186421715 6.072252085910446 4.961658763031569
Ag 9.91490588277048 10.041006589393058 11.687016709064462
Ag 9.260687795394315 7.4852816259272 7.499172359743505
Ag 7.478676775177541 3.4095016383500227 3.6450051866277247
Ag 3.6764899308548173 5.601714353108609 8.724800403462867
Ag 9.820338164883898 5.115352453837699 5.99515004944331
Ag 6.414239784964068 6.313812532808886 7.532339411120527
Ag 5.586863243720094 6.611433578532113 10.481130914253402
Ag 10.40849605593556 7.6414328359065795 10.223994688024277
Ag 7.887186100457981 8.146787950326505 11.52899233114594
Ag 4.183120214233945 3.27045370476372 7.173079225327822
Ag 10.181877613733919 2.8896194810257496 4.265833435615488
Ag 6.829679624486377 3.828819793736758 6.44161023254339
Ag 6.013154140776872 1.5003529749533302 5.127364567222707
Ag 10.80912385287601 5.3403308095507125 8.640819131639773
Ag 8.221467982339899 5.963707895911325 9.71780489941407
Ag 6.051937547629043 4.086585894697887 9.247385557822607
Ag 8.352140869479609 0.7765985252275731 3.6450497169427223
Ag 11.131849699336811 2.9381917013747305 7.030951282254699
Ag 8.74681211746537 3.483567116126987 8.401863418424346
Ag 6.518030424639508 1.5866614012854927 7.997470118618887
Ag 8.716173749110348 1.63123568374679 6.2395030237855424
