43
Energy = -89.21614527 eV
Ag 9.483145105412664 7.925920580426343 4.882076324488963
Ag 12.257925276820515 7.690187194460134 4.642346108712441
Ag 11.84907454327856 6.236784533088063 6.988200590094442
Ag 13.223239729265966 8.251881047768988 8.4428885897602
Ag 10.677206499999883 11.71570858525982 7.584463476570688
Ag 8.70908963142186 10.932359532349603 9.410395060046099
Ag 10.781481143358558 7.139478943655134 9.41286006383409
Ag 10.34275215803876 6.092800813275489 2.9746506343873422
Ag 8.86467982841722 10.21284938057462 3.320464292539896
Ag 11.283213333109133 9.898947223743765 9.638722858791196
Ag 9.107344409658682 8.701320993408425 11.00194978822849
Ag 12.431108681738362 4.9125393728932725 4.539013966718337
Ag 10.917615880572065 8.728833938047876 2.3991724405711423
Ag 11.028551488549663 8.933736272742737 6.994359925350757
Ag 7.9751165000036295 12.720892180308608 7.312744674837327
Ag 8.763802373587007 10.292801795771217 6.208821676070823
Ag 9.591305403717117 4.897238100948331 8.215285268005552
Ag 11.588741748841514 3.483846854707631 6.782676571544049
Ag 9.729179804229725 5.047038404404634 5.419348941066634
Ag 4.138823522809134 9.022305673194651 5.86504886028662
Ag 3.9976353372324027 7.4750197257193625 8.191703245491766
Ag 3.5555006505223634 5.733554710387801 10.307167308600507
Ag 4.960066772942345 9.370598925867222 13.227619684351282
Ag 3.9061635045225036 10.197362791109555 8.602075223947383
Ag 6.9666558082521925 10.377230902911718 11.596761582324266
Ag 6.031742437129985 5.113408366441753 11.407094737973022
Ag 5.468528813018457 6.585755377751732 5.953062933747096
Ag 6.744910569631835 8.981141789437276 4.746737726629012
Ag 4.262924096385883 11.106354121149787 11.228207648533482
Ag 4.249027689474992 6.7370872565971975 12.80963849291691
Ag 4.819606368428642 4.863597908046612 7.93910022595319
Ag 5.07092835515582 7.3369742667579345 3.351284311168796
Ag 5.987531389810188 10.757848044196773 6.875087379426369
Ag 7.213431134500529 3.9068228841568837 9.216015130287076
Ag 5.6984493074501925 2.289921312034282 7.506862897153546
Ag 4.607085375167771 3.0642441690899 9.994752822514185
Ag 7.252805432239605 4.458932346339656 6.494292738464297
Ag 8.461226440854997 6.041507135221828 10.52998984113389
Ag 6.1291565912498855 11.90032786971929 9.36215422038046
Ag 7.148885530155823 11.900914023219398 4.636130672865262
Ag 7.527924419073419 6.1166594160905285 4.073712807238332
Ag 3.501449881946381 8.482415310992096 10.82228314986859
Ag 6.919968715441364 7.589851609150398 12.317776790544471
