42
Energy = -90.10295569 eV
Ag 10.257472739515107 2.728823281800447 8.25673503621602
Ag 3.4250751727313853 6.296789003039446 11.403142589045693
Ag 5.7759803856324865 4.944902673569866 10.664518406102642
Ag 7.761220956347972 9.47997135643305 9.993473689673829
Ag 10.01810845567263 5.784192809904948 8.356898827062324
Ag 8.265316242825508 6.662706563757349 10.481371146562415
Ag 8.065748225897796 3.9256594711667705 9.483566267635155
Ag 10.279392968662982 8.31372662466139 9.363558501457154
Ag 9.84934166351618 10.870556030782426 8.514073871124454
Ag 5.635806822606676 7.757929952033906 10.438620444930635
Ag 10.13767524401929 1.8240226617752116 5.659543110986868
Ag 3.098179951814255 8.293179101735424 9.419102335880421
Ag 5.145917029185318 10.253418149308434 9.188995922051712
Ag 8.393841513541606 4.325617879564865 6.676373455345555
Ag 5.604617457566587 3.5214836529573907 7.884110873906977
Ag 7.640465565826724 1.7266175397271084 6.925183323152483
Ag 3.788437334720306 5.608404922213182 8.756776396531684
Ag 11.221213972297914 4.3415116357026236 6.169680123599739
Ag 7.291295916427954 11.918227861134799 8.620072669843937
Ag 8.138568064300724 8.2573768610552 7.419338885085609
Ag 6.705530903865456 6.031200973520807 8.245238059222704
Ag 4.3214067160160905 5.294422979982188 6.050624721048206
Ag 2.417904170218379 7.231698533302036 6.887108802101837
Ag 3.108336048945173 10.052389632161526 7.191817075036572
Ag 6.261298550811486 3.5064115074834064 5.049986319539539
Ag 7.9470144974300405 1.5306684628227356 4.015966886920237
Ag 5.199012907444285 8.161546671794484 7.300294728300619
Ag 5.638627091210548 11.138087132326103 6.561137115793334
Ag 6.814371151879754 6.576544663988851 5.510550078774542
Ag 10.571621002439219 9.085737869596224 6.47883221170361
Ag 8.451587603923874 11.0268081343151 6.137833879589254
Ag 9.31315874400944 4.010915129122797 4.031590205454176
Ag 8.472756584122472 8.795126675092167 4.47082857819838
Ag 1.5261505929001695 9.145173489491278 5.0642007998000835
Ag 9.70404757450251 6.556701434099734 5.4997478486828975
Ag 7.136601139517163 3.6407988364376904 2.3158231790114936
Ag 3.4565671539336833 7.317292538161561 4.2501705511406085
Ag 5.30481810714948 5.486537933333837 3.3556997421620167
Ag 4.104058712958535 10.01074424592826 4.516010632150777
Ag 5.922050436122091 8.27464779100336 3.3124821507629956
Ag 6.698844244178777 10.892563469259425 3.954859752425567
Ag 8.039542563326702 6.307846044468145 3.033042986001272
