48
Energy = -103.25614077 eV
Ag 3.953643684693315 3.845742352998137 9.077483804901508
Ag 4.118343003778714 6.173551003011822 10.61729165497682
Ag 2.5844471868500216 8.968596934085108 6.954920721623204
Ag 3.055624211870634 6.410200130473167 8.008634353854058
Ag 6.6820936959685495 7.023292287331641 11.538449473902974
Ag 1.529292274561737 6.68206594642076 5.612208854560611
Ag 3.3044916704354206 8.678203409548537 9.653613392765354
Ag 5.981657217885442 1.9835834375934867 9.6351691109655
Ag 5.215373496149861 2.2622972817299307 6.912210683740864
Ag 2.819260571355689 4.0744504856224415 6.5364111978351165
Ag 3.930276387430546 11.027460538548219 5.408738535460034
Ag 6.5506097926145115 4.733741029260867 9.92304653961141
Ag 5.516591877600373 5.028648245587721 7.097068945237257
Ag 2.997616217097997 8.768144429938065 4.180344172367942
Ag 4.319592712421016 8.430017926867189 12.237267557331093
Ag 5.281714276952056 8.609147931648724 6.056225515639812
Ag 1.7740539322263773 6.802986010179753 2.7474358127086944
Ag 5.855655688167144 7.361744091717553 8.60552407502405
Ag 10.242580636841375 4.021944931954682 8.95447808454071
Ag 6.013289932261746 9.579035099525278 10.324899639355417
Ag 7.800133120217862 3.0565598925260784 7.861205927050206
Ag 9.065538731885422 5.701649278977363 10.870324177609099
Ag 4.486384604476616 3.270912585420235 4.391916359721842
Ag 1.625635298421292 4.337159951439787 4.089414787183653
Ag 4.120710525609864 6.119276459500164 4.755762753407999
Ag 8.485027576729044 8.171472078467474 9.706817404566646
Ag 8.233948730971532 5.90045780758298 7.934736542265873
Ag 3.6209854987545294 4.768006548191165 2.1826712188247592
Ag 7.180648173102198 3.514519467616591 5.143280200610454
Ag 10.83684385205065 6.777993064146355 8.857547382917119
Ag 4.618890303976308 10.57874467561772 8.090868929604103
Ag 9.774880250843108 4.140110973066607 6.147314484177403
Ag 7.005802280925845 6.549359069966696 5.3533453665824275
Ag 5.6943851926990465 9.677249219554195 3.5293773363058816
Ag 6.236157527904785 5.090934349578739 2.970077863419663
Ag 4.620662099726341 7.413952575830949 2.2460723207577646
Ag 7.264748577917269 9.768717243043373 7.751801496639588
Ag 12.220867795534206 4.996477010984646 7.242796400421562
Ag 9.798761689972537 7.017751639854175 5.824750904209845
Ag 9.947486512294104 9.14357049926231 7.541301862514284
Ag 8.918007332272648 5.263581287656248 3.708930848999488
Ag 7.4345591522312136 7.655185697622992 2.6905053287284506
Ag 8.095649523342313 9.205929744036274 5.061352239540472
Ag 12.420227575762029 7.708450642078295 6.6041326832003815
Ag 11.695411236443467 5.5141881382221305 4.497852235036167
Ag 10.182485472099481 7.670238709157981 3.0188925069927937
Ag 10.923275001121246 9.525596644129239 4.988971029535726
Ag 12.864773527314536 7.896196874187761 3.755652914535724
