43
Energy = -91.90105347 eV
Ag 8.674351660808206 7.422279455248254 2.358282746051338
Ag 10.239859622791728 6.909866645030917 4.50802592178251
Ag 11.256268866258162 5.637025639796862 6.713081623617908
Ag 8.811941134027418 9.28587594609812 4.531572111737768
Ag 10.881201922881576 4.382441632207131 3.8924178097197837
Ag 6.760148994613471 9.386763410106614 2.6657499242601936
Ag 9.863551804397405 3.229850821298305 6.135602599912901
Ag 6.067877692204897 6.572429827732808 2.1579889352003754
Ag 9.71656606977147 8.169504639407219 6.924147907862114
Ag 8.064855420557793 5.037570614467975 3.7339893900530017
Ag 7.91538418964076 10.424275977500763 6.936244566773707
Ag 8.19989076242793 3.2696538440812026 8.357689386120464
Ag 5.210589136920689 7.675810115998121 4.5458879017313585
Ag 7.224539001245129 11.560013948812628 4.4700248832287945
Ag 8.394536751552053 5.595411515875425 6.553341614784685
Ag 6.757127040921932 7.865890085698458 6.883884854065175
Ag 4.640651337888384 10.587889930837266 4.1318789748954545
Ag 7.0742129839739025 3.1221182983701317 5.667112050982043
Ag 9.78685942474606 6.383459790836119 9.056215147191978
Ag 10.828051401913845 3.803344832085016 8.945601582412614
Ag 8.24893683935826 8.75330092710722 9.175234589508708
Ag 5.4088889398247355 11.616789354354772 6.637650919525715
Ag 4.156968373932422 8.682112555026306 2.0333831424187956
Ag 5.467791750262261 3.2369588772916305 8.080065316985051
Ag 5.279085066133387 4.3857593113002835 3.680966442656927
Ag 2.43451656656283 8.893897453142007 4.168800577808591
Ag 7.037786255345354 9.787914517870258 11.415085099241626
Ag 5.641877552854356 9.70368828868947 8.79435545401916
Ag 3.938775716335918 9.26568925807124 6.582352454127037
Ag 5.51143671397148 5.4437114369936515 6.281835421149805
Ag 6.90477683951453 5.814574664869749 9.04644420021468
Ag 8.279940289278398 7.205012863881472 11.422319662764263
Ag 8.88251946085401 4.485406205095384 10.885288993105721
Ag 3.2209269430477754 6.249858398324817 3.0597760286131037
Ag 4.291614472560403 2.704688458404041 5.643540982389862
Ag 2.8084754535155634 6.760471969839488 5.901365831693913
Ag 6.470711756867822 3.008944444632545 10.606747726004418
Ag 4.275786396237006 7.112358094322707 8.294527489424501
Ag 2.2586141181023516 4.300788852177253 4.784978310986558
Ag 5.483221147225231 7.619346900560802 10.754701569495065
Ag 6.36060939849923 5.316256355192763 12.115049149707499
Ag 3.0348921145770094 4.514268794014197 7.551982763363126
Ag 4.399060478205755 4.982402909957142 10.080485805019809
