46
Energy = -99.88077469 eV
Ag 10.87651493648286 8.737142862728081 4.755437559648544
Ag 10.374744010450856 9.531130376106802 7.544139977711183
Ag 10.269220605400275 6.73874232986896 6.705244206391852
Ag 9.207930771251252 6.580674051695097 4.063125180778134
Ag 9.53051770249475 11.159554902104087 4.326817009225304
Ag 8.34099036599657 9.032506688812475 3.0277948135221258
Ag 7.255918184546932 6.738897790202016 1.9146826811442987
Ag 7.863972473314426 4.312724573171726 3.1418834235812176
Ag 9.151799913143034 4.3033649747790585 5.635412190881848
Ag 6.192843000752611 4.308655275722366 0.9059828869779328
Ag 9.202271081276878 4.574214419826246 8.460879926549781
Ag 8.3201843239927 8.841190731700477 5.850384346364372
Ag 9.191714239460367 7.356507803038772 9.243764575968257
Ag 8.315647262203063 11.607331029978443 6.735052590681756
Ag 6.692554529619234 10.853529754910186 4.510113198577008
Ag 6.417091831076427 6.947229573444942 4.683137796708516
Ag 7.222723975279819 11.607331029978443 6.35503573576327
Ag 5.463975224406202 8.833695575901396 2.9052628444470208
Ag 8.060360530060775 2.2636232200195185 7.289146066283922
Ag 7.493474294152324 6.3813427344604845 7.174310104494501
Ag 7.842528724864607 2.493144210077016 10.08739658101836
Ag 4.707468732278643 5.875672876245956 2.667139340396529
Ag 7.859128881127065 1.9155222568751094 4.516490320120047
Ag 5.302008745182981 3.1121563638476815 3.2633493917150314
Ag 6.32468051956639 4.165381414590208 5.728717514035963
Ag 7.732906938144027 5.3322569521591205 10.704959793085447
Ag 3.9975709976053047 10.277440377830922 4.8511199274385755
Ag 7.715466224646914 9.691848626327994 8.600791691003334
Ag 5.663935272425048 8.646282723860345 6.859370242815992
Ag 5.286257037801578 1.5506715711839334 5.579419542344257
Ag 6.238298606477474 4.122349637371191 8.626587019464694
Ag 3.607308106313253 4.690164624237104 4.976230363449572
Ag 5.487860994673391 11.404140310026099 7.03407937460173
Ag 3.6031079582114756 7.489785684205107 4.68615424727154
Ag 6.3206088738871316 7.490003068162163 9.632125555050274
Ag 4.678824117682812 6.025884648076199 7.20638273667119
Ag 1.4054071059223456 9.102703823404479 5.258281088354811
Ag 5.722640064814701 1.175820010640297 8.408655498242215
Ag 3.9040537400578863 3.1658244082089055 7.304898706531939
Ag 4.8117711214787615 5.444227973478691 10.696463025793944
Ag 3.036235360345421 9.658183167107431 7.432968794218227
Ag 5.02389051729752 9.95906823312949 9.357760384203873
Ag 2.076687425402278 6.980951546712423 6.982208658385781
Ag 4.103691901227719 2.7737936355871127 10.056904531170577
Ag 3.4976077845544804 7.644359937523804 9.385445421518028
Ag 2.6873240688302853 4.995414715856963 8.950212211577867
