43
Energy = -91.83439425 eV
Ag 7.299713054155477 7.123917667809738 12.361746416936278
Ag 5.201647710649094 9.126305956009737 11.811183558117486
Ag 7.399787309039813 8.696262484748749 10.09997546183443
Ag 4.9128040756930496 9.312274485175701 8.953836878171453
Ag 5.358790301116421 6.752426324763775 10.430276571013263
Ag 2.8622266444358675 8.207909683130524 10.556521294447123
Ag 8.069991712457245 5.789018614107018 9.969710956089827
Ag 7.152897222451977 8.876058352335242 7.359536312989823
Ag 9.49553190788391 7.863160262855667 8.546593632302935
Ag 0.638749404983695 7.046930762111436 9.309921728787529
Ag 2.5891632796876016 8.174000654647323 7.663113312092453
Ag 10.267470544985446 5.237800058308575 8.071206033265156
Ag 4.725726659748773 9.224214732719068 6.07091415276033
Ag 3.063961819977081 5.650252385209612 9.314569155449675
Ag 5.715413097442169 4.3979747265568125 9.058032274901237
Ag 7.15035889146199 9.588073554950654 4.671241514990174
Ag 2.493031718723521 9.436258997598324 4.5111825714730704
Ag 7.62939770263048 5.782872599072164 7.211331736259749
Ag 9.090345410092162 7.719622847971158 5.714790132936103
Ag 1.388626729366 5.606973901472563 7.040594977926317
Ag 11.635036400235666 7.502717933262512 6.841592288765643
Ag 5.034522466870209 6.723191242645232 7.4975070466164695
Ag 8.1877241448585 3.297141910921627 8.247998213420159
Ag 3.6577428891493624 3.9569582841532327 7.193109499638624
Ag 5.671913203563622 2.0911574511907554 7.539754022496437
Ag 4.820225914029935 10.828468358404518 3.705264236476671
Ag 12.155320774724789 4.913804482355473 6.011463570096958
Ag 6.407914816860516 6.748538602697886 4.960186253797465
Ag 3.234926434701297 6.804871554297939 5.256453504383326
Ag 11.17903905720891 6.78255298822771 4.142835545261145
Ag 9.432420558037302 4.512499415047811 5.4010609013529
Ag 7.599272136992068 2.3991900336655205 5.616886544630057
Ag 8.93378691030033 8.154163975011407 2.98881449446725
Ag 4.563488657821713 8.123650090471356 3.160213279218926
Ag 6.684100029970552 9.499354527514887 1.9353841904849396
Ag 4.903339126944929 2.978633841549569 4.9455900552657335
Ag 2.381525955450237 4.196501026127768 4.745850466547458
Ag 9.229490755805411 2.5890372722795325 3.3262180919012843
Ag 11.567172666610876 4.05024056835503 3.4376603788645257
Ag 6.748621968615496 6.633031257153536 2.148765284246516
Ag 4.475130242738475 5.288500375823543 3.2671639434627138
Ag 9.281745728489193 5.376012775956886 2.569855939676141
Ag 7.0042151353117585 4.2376206769592875 3.6214413212669623
