44
Energy = -94.5764654 eV
Ag 4.274794155914923 8.523370722958383 9.275810440160416
Ag 6.260014020673713 11.146592407117595 5.835810749959693
Ag 0.9840215036495106 6.660992880493876 6.123700958394225
Ag 3.930111872060813 10.204402677314397 7.066601554017259
Ag 5.00544768280171 8.969598349142 4.612056272100879
Ag 2.853984898348513 6.027334824179027 8.658831400295776
Ag 6.376762701592108 10.740888865031238 8.618259507862863
Ag 8.589273451085417 9.836871729798403 6.686596236667287
Ag 1.6831649795023573 8.615245084701911 8.105456790304768
Ag 6.969758418494147 8.466497451662999 10.02073026650346
Ag 3.587868573349491 7.497730775895987 6.486989712745649
Ag 1.2158537403452443 5.1949726396715 3.781466263924817
Ag 6.388972905162625 7.16469830476014 3.051108404114266
Ag 7.612818650720902 9.67424540325452 3.921335760732367
Ag 5.696843430087732 6.132762423714173 8.992281258677759
Ag 5.522360781277084 4.499923090259266 2.961949990012968
Ag 6.25980908176864 8.349364860430523 7.1380664738713495
Ag 9.320655194148994 8.333110921315306 11.529820002075637
Ag 2.941471394751723 4.6812238511699995 6.005567821243832
Ag 4.546280881666891 3.7944399297325706 8.121758843180581
Ag 3.672633794913527 6.5622014074479225 3.828686626918608
Ag 8.398106834442576 6.626535741223312 8.064797844468576
Ag 9.126172308839635 10.205829283953317 9.387905739428396
Ag 3.147023566147757 3.116120346335354 3.705099486623159
Ag 5.754587898018329 5.871136100280753 5.841425952158586
Ag 3.077257757589319 4.990173511938838 1.6520632356559222
Ag 8.230930045757576 7.256342022779064 5.304394188936557
Ag 9.128708957376572 7.825174505844481 2.5264355295396106
Ag 10.389751292474593 9.250110351032719 4.599584797501576
Ag 7.8277166941582985 6.031945679834563 10.89999758412475
Ag 5.295596969005564 3.093543266203346 5.4425622704889465
Ag 6.6069488010019075 3.6531141313218782 10.105323111070796
Ag 11.243279295630064 9.97324013946463 7.346938325611896
Ag 8.205879025808523 5.233696936261655 2.1062502436410195
Ag 10.873499978585432 8.044995073326314 9.284291782474458
Ag 7.247058110595859 3.8972719447107877 7.36909842311826
Ag 10.829989090371646 7.29545315953965 6.524326911278305
Ag 8.801335291268378 3.693661651760647 11.973609442706318
Ag 7.818754567873014 4.280529142690721 4.651935176258924
Ag 10.243106649661225 5.800534776343493 4.0849361353668625
Ag 9.304866167062963 4.061874280349917 9.284889335684289
Ag 9.832165165819905 4.60593542655929 6.552820419810523
Ag 11.547944997924485 5.501444910937928 8.539915086355219
Ag 10.605841505969572 5.8442921009555535 11.157936727631729
