48
Energy = -103.87707046 eV
Ag 8.610479684629174 2.3929801173415646 5.845476778021031
Ag 8.608438372935307 4.5575700065361735 4.1200733649488015
Ag 10.929368664402716 5.9378065629331855 3.6009673776029643
Ag 8.723119397578465 0.22775807132723624 7.553718601636054
Ag 5.9833489064218135 5.364735948002415 2.6359149470441756
Ag 10.766033111879151 4.204024135185286 5.866771811313005
Ag 8.358385703865403 6.8856873172941135 2.4240127270589413
Ag 6.287055736928389 3.038672618740299 4.377269622363338
Ag 10.091578539276234 2.706076448162841 8.199043425442335
Ag 6.222377798610398 0.8734018184309544 6.228162647613153
Ag 3.8785156366489977 3.574386986922715 2.725495279347119
Ag 5.863291886020762 8.035152051263813 1.5674859093478608
Ag 11.475531014193773 6.913269640110553 6.164597749848535
Ag 9.50135264851731 8.086852557289097 4.663059324863938
Ag 3.833645843016486 1.8462700979673237 4.964491850003001
Ag 6.960045149165935 6.636773702020916 4.9081165593631
Ag 10.936834190839265 5.443905627434707 8.420866239331243
Ag 8.591659916950901 7.023990245858353 7.147239932420687
Ag 6.886831968979437 4.704324685028399 6.8226166182351555
Ag 7.241873748253865 2.344273001767906 8.43729076436108
Ag 1.5333871695592514 3.239651740064498 4.204782187145217
Ag 7.032392445120775 9.225119061128932 3.7581035447486926
Ag 4.40523272386256 4.970170838947935 5.039924650295869
Ag 8.419780412499735 4.789253948127926 9.206044169149918
Ag 10.41871348483887 9.064886403159488 7.614858421026836
Ag 9.383143577146758 7.450554214195106 9.758400788779193
Ag 2.1047054234349956 5.895016187287053 3.6571839379334055
Ag 8.292058119874403 10.055153626893132 6.104522738477419
Ag 5.888791973332185 8.395988797457841 6.664430465347323
Ag 4.424565233267465 7.571369244201161 3.904495510678032
Ag 4.499087309060572 10.241812665311723 3.041927056838283
Ag 7.783943127006941 9.63586088452393 8.808550655548656
Ag 2.121217462546734 4.486932895669816 6.6146949639119486
Ag 4.623664253913241 3.009404265444891 7.332109535434677
Ag 4.388622277913529 5.983671049850389 7.615408089875789
Ag 5.6725030891563115 4.34845640572239 9.60987734409849
Ag 6.614006484194073 7.0150393719977915 9.179935009883748
Ag 2.029473622163921 8.846501359696015 3.611436717989093
Ag 5.959147127972497 11.3396037529733 5.278563059349638
Ag 7.527430104890959 12.281471393221226 7.4834640307191655
Ag 2.466631838575134 7.323507618766383 6.009518827815081
Ag 5.378040267205131 9.223735464722253 10.319063512198452
Ag 1.6709083277957695 6.490992792224954 8.591533299188288
Ag 3.6217956016847097 9.871099048465343 5.712306134278311
Ag 4.060897773867944 6.623396965733573 10.327331245568308
Ag 2.908024379985653 4.109557949469164 9.350051265395624
Ag 3.5174508663497184 8.641865556740974 8.303413821642868
Ag 5.250330596244199 10.817727850963443 7.971110479094016
