44
Energy = -94.5565124 eV
Ag 10.555023257553739 8.411524654429602 10.112775906980461
Ag 8.278298233740006 9.868194917548907 11.081925980710738
Ag 3.306779689697185 7.403834244073466 10.952405386508211
Ag 5.761444055178396 8.672512086323897 11.036001441392084
Ag 3.450749206367787 5.040865865203517 9.21310426762592
Ag 7.994723817427401 7.493910927665862 9.499467703992046
Ag 10.48608533686289 5.9184399735760085 8.718799810604969
Ag 5.8128812250409485 5.959870474244429 10.296111245134197
Ag 7.97983921800522 4.712593259467849 8.991494244685011
Ag 5.5791199797326 3.3153056893244894 9.280122598203585
Ag 9.641706193323277 3.855293225055278 6.8245939506370235
Ag 6.93272254059929 3.0135555749509706 6.902902983152883
Ag 3.561776314421568 10.037424262312811 9.731572969215117
Ag 1.44459134151764 6.898596009267642 8.88737573830021
Ag 10.905853844853093 8.286917405916569 7.308395631548265
Ag 6.325459178201425 10.637826985738977 9.216107752019164
Ag 8.990820540759039 9.988923064812843 8.364459622658076
Ag 1.4501528376733033 3.9807439136455303 7.67412608732026
Ag 4.436564930709246 7.750178445242858 8.464635190002372
Ag 6.753235217304853 8.60355208686036 7.112429874204308
Ag 4.122567204963544 3.550400670801392 6.769090118602385
Ag 8.70080492156794 6.573278391941939 6.636723215821061
Ag 5.981598825908719 5.808417118511846 7.181248698061315
Ag 7.32103010285401 11.398710506453693 6.630294133027513
Ag 2.836689782681564 6.096748758944846 6.605459901790709
Ag 8.643598048979554 1.9431644056146922 4.942034563864843
Ag 11.370865851373532 5.903708707808971 5.925660724249865
Ag 2.2660440367118095 8.967484678617183 7.216167673342418
Ag 5.6437448507702 2.7112725191497193 4.423669748943781
Ag 7.793238452684386 4.5651041898915 4.623609641341372
Ag 4.611835784774244 10.484420732352062 6.988101897234662
Ag 9.0108203417893 9.30436087707354 5.557263696306564
Ag 7.588529975768986 2.383521540616349 2.394671620580602
Ag 6.183016244937542 9.95857731025708 4.551898504121568
Ag 4.7070515874209455 5.351852949813797 4.6532840724345625
Ag 6.969242076064427 7.254132438069122 4.494287508290273
Ag 4.361945447531713 8.051175184859988 5.471888760705899
Ag 10.526711572075786 3.9561751582529006 4.071809198691472
Ag 6.124003218045583 4.758936781488023 2.3277969451872544
Ag 9.635417904887202 6.748455953663912 3.8068540570260563
Ag 9.000620998371168 4.67031291902733 1.8734596154187149
Ag 8.37382064556585 9.282920333237147 2.8976777039648636
Ag 4.942741800527754 7.405327624205881 2.67871064664516
Ag 7.572812606434767 7.024709920956423 1.6277976986153497
