49
Energy = -108.35165444 eV
Ag 8.143035248661114 13.302928435029566 13.376817007872196
Ag 11.138902742889936 7.496039897816993 13.376880566632693
Ag 10.27158382507793 10.138931295584557 12.748341728442032
Ag 9.179204922261592 8.917563656377373 14.962087603988023
Ag 9.995537991054322 15.373620748640079 12.308030935921666
Ag 9.575883703160775 9.360804998440956 10.26437304909942
Ag 10.40534695312054 6.660758290034634 10.884221245970645
Ag 7.756862572579311 7.32644038017849 9.888897892231412
Ag 7.549197509850002 10.706110334454078 13.376953801188035
Ag 8.416953845643118 8.065567967252859 12.307937673349286
Ag 6.8000614052118875 9.88405250584681 10.883863726010727
Ag 8.725996699043096 11.694889999289769 11.334743350291358
Ag 10.539418700278876 13.722749206625439 10.264086459426174
Ag 6.091390120417823 12.244933864594131 11.639847985648503
Ag 7.04763916145114 12.045753380622035 9.115231431815813
Ag 10.073965553337652 7.623952267257663 8.168957365167548
Ag 7.794614351541623 9.66018957351047 8.168902510813645
Ag 8.786214749016997 14.160246320516649 8.169049274969048
Ag 9.686094700659703 16.315279731710767 9.889426685671621
Ag 7.785737363562407 14.354558669347549 10.883886559421375
Ag 11.439522778065426 15.116322344921663 8.168967866256507
Ag 9.739419889115677 11.482503411355733 8.458962830664984
Ag 11.13890274288994 11.138887619681588 10.728189375203415
Ag 11.664569464481577 9.788932472779337 8.459114065019788
Ag 10.86536412290039 12.730831718331357 12.748518770721375
Ag 9.738175031766849 11.48343959948724 15.111392936579136
Ag 10.353787644852705 14.288444589300674 14.962034122137702
Ag 12.130108716341748 15.865199681889168 10.883979332863687
Ag 15.057579058430894 11.881877586445645 8.1687890920508
Ag 14.095119563078438 14.444857416334047 9.114770600245093
Ag 12.952025858254073 13.166730543097447 11.334422639233216
Ag 14.634354712354979 12.868792188133641 13.37669831659485
Ag 15.725341289524765 12.650988172803359 10.88379344519119
Ag 12.262331293339066 12.395403702167947 15.111211299790895
Ag 12.46664476058102 14.806418963419386 13.376549912519101
Ag 15.502813523366715 10.476380893017177 12.307978286424207
Ag 14.745649175569815 15.173279049115342 11.639686585439046
Ag 12.780316749925392 11.04651145078387 12.748499970584813
Ag 14.431790213903307 9.139622900205039 8.168872719863739
Ag 13.801743457977595 10.832886065700063 10.264185218160705
Ag 14.383624366342685 10.710747466656718 14.962163387991259
Ag 14.73648365417246 8.167166484030332 10.88386781371993
Ag 16.47233257967528 10.274897460235593 9.888768380792099
Ag 11.988635248210636 8.804602432429151 11.334622542374598
Ag 13.64980800224718 8.404495273027669 13.376943415118312
Ag 12.52473327523518 7.175493321001936 9.115219869841747
Ag 12.829859461054268 6.247775774461901 11.639979729247903
Ag 12.261274492582082 12.395002060470546 8.458704700042032
Ag 11.665356750048037 9.787445830694242 15.111810955635566
