49
Energy = -108.25944288 eV
Ag 9.982193987035338 4.7888743852180236 3.10726568547067
Ag 8.619018885664293 7.078685448768778 2.053133387003691
Ag 9.248694731546397 9.59202946828957 3.3512784223899237
Ag 10.321724537449322 3.0747944447691817 5.855067351734009
Ag 9.391327009902094 7.071890161050433 4.787438935168988
Ag 8.703438784347764 2.249017176191292 3.6015848295912276
Ag 7.276634104071166 4.401771800442865 2.2720191671848884
Ag 9.125866156164717 11.025993895557512 6.112966595927073
Ag 5.850932754345347 6.656867912403527 1.1763091429356693
Ag 6.560174727530087 9.160845450698849 2.4886123327957828
Ag 7.251256013265083 11.560125317549652 3.989326500609235
Ag 9.711784412952024 5.513520804442708 7.273475060979059
Ag 8.040885108380202 4.4725644887028535 5.068929109833683
Ag 9.265155902618803 8.417461254114404 7.38645007566055
Ag 6.516195991670086 6.662069613220567 3.854661580541811
Ag 7.316739707806894 9.114422951918707 5.272340558411034
Ag 9.443522887924734 3.0177054686658233 8.570728826751619
Ag 7.7712391456663905 1.911796090080437 6.351871860594955
Ag 10.099540727272666 5.322087317099366 10.1283419743234
Ag 5.932327721245174 2.6753879973757972 4.220285446346289
Ag 9.622679585453053 8.504103430569044 10.264390287826672
Ag 7.22355819418091 6.6643150603698045 6.549267641048083
Ag 8.292472417253355 10.632275651611526 8.868761358472591
Ag 4.46471069084538 4.884377185759754 2.947129011547783
Ag 6.311466135134561 8.849550384100045 8.0247910229693
Ag 7.003216423027907 4.203321075374495 7.82853476907072
Ag 4.02091844413187 7.818478510052488 3.067191831359149
Ag 5.176497498255216 4.9205937465905345 5.720974553872915
Ag 6.834218842337612 1.7635393722804202 9.095163576380278
Ag 4.940385092062143 2.385734087417004 7.029367484094344
Ag 7.817953219586667 6.657520208505295 9.253714688206951
Ag 3.1774869946426105 3.2152239699190512 4.8958391546920685
Ag 4.7582986994177885 10.278075550877118 4.539350771511676
Ag 7.553799803383388 4.133325603140306 10.605112690323264
Ag 4.740691733374324 7.793965462490227 5.8367329226504925
Ag 6.366376835524549 11.39972710956362 6.75395137740982
Ag 5.451706790958287 11.019318259927074 9.490794726832638
Ag 2.592990883167771 6.020357241878912 5.035285118049347
Ag 8.268842161248434 6.611146187880588 11.967961888976888
Ag 5.045735183437727 6.269631204317994 8.29926246883274
Ag 4.809536020580767 3.741933598628114 9.617158168868652
Ag 2.9018686063199683 4.483612048999382 7.48505585706291
Ag 2.321453013586994 8.898123219092005 5.1406478678780045
Ag 6.84634650620078 8.883726734495808 10.837090562270278
Ag 5.5775333954881 6.251027170754921 11.0515932508802
Ag 3.817652177088699 10.060933050952071 7.324355398955638
Ag 2.467186488650547 7.357385574362647 7.580894571071516
Ag 4.121181028011209 8.505161470705282 9.835555758920757
Ag 2.921958697068098 5.902981240100806 10.009359232987617
