41
Energy = -87.42802502 eV
Ag 4.093045452449871 9.815075863654382 4.330331050130258
Ag 2.8973627622600078 5.172967108003835 3.290595523418466
Ag 3.483783469941392 2.681997358714375 2.2878741673816667
Ag 4.856539934048044 7.338706960703675 3.096842062855669
Ag 2.3484305253162967 7.640204611053737 4.318579127742247
Ag 5.5964232604831885 4.696790012359552 2.372057151066381
Ag 7.57064972826677 6.647281065959183 2.8607125290664297
Ag 6.768538073448606 9.234932283166666 3.904057493938794
Ag 9.471347951550916 8.626031693036701 3.583013278380051
Ag 5.931784220672014 10.305953384386061 6.456134904094941
Ag 3.0759714322260283 2.9990777647630336 5.062222155400785
Ag 4.723214833128386 7.670197441413777 6.067936793270499
Ag 2.5678704524621443 5.534056045059805 6.122501450358523
Ag 2.084835851448587 8.124894776209542 7.082816357129229
Ag 7.8226326833672815 4.2499945749005725 4.282910406874622
Ag 5.255772915933532 5.032141120441952 5.210361630142003
Ag 5.6570886682605686 2.457754596300294 4.061948688391395
Ag 9.970452103291795 6.144663145340281 4.731326382639556
Ag 7.505851754061482 7.016099564824583 5.667732085456943
Ag 8.675149423771565 9.695794775818205 6.02626949996837
Ag 11.271505029415563 8.594780738992668 5.680972183805965
Ag 7.173525657149082 8.421491874559036 8.135410856479536
Ag 8.928370426568696 4.55145218351092 6.7900935604225525
Ag 7.957292745348315 11.115297458990524 8.370100097077279
Ag 10.398155054209035 9.73232426922931 8.332593038507332
Ag 9.767231196869082 7.110356324662029 7.540849952727192
Ag 4.285707926002026 9.016093614161456 8.49328644343385
Ag 6.6734471452047455 2.876960793857862 6.616340775629893
Ag 6.2256916998235265 5.7504736832043655 7.797449812152871
Ag 6.089141145569144 10.159814070413786 10.18287561158107
Ag 3.509399714001861 6.286795613844078 8.719606141445563
Ag 12.526131801633392 8.027212361560933 8.112306905737302
Ag 10.364267458632682 4.837625448039005 9.159630471925738
Ag 8.647823834185466 9.147968257000691 10.428607694420748
Ag 4.069760757379164 3.6956054221639505 7.612257560078057
Ag 10.810006815801446 7.4296207558307845 10.184670518866723
Ag 5.596864479623733 7.333450454211342 10.337221641353786
Ag 7.810620121245314 3.584641608848367 9.144926082282858
Ag 8.145669786697194 6.289106576465301 9.913365889293994
Ag 5.323355256585447 4.538046188025691 10.10688328917285
Ag 5.577837694277247 1.9129848384279171 9.031496144510475
