46
Energy = -99.16341737 eV
Ag 2.1552087384222003 4.658897180976684 8.91862712761932
Ag 4.60829581550979 4.565508525670865 10.362391836567515
Ag 3.9374899192797654 6.746847537344323 8.686959526193043
Ag 2.199005751457186 6.515924226602049 6.4598807445154405
Ag 2.027250843016448 4.01667995756929 4.775765567349411
Ag 1.8763331153385452 2.493388765782751 7.183028745449496
Ag 4.320191527480092 2.3952489406116837 8.56371120944
Ag 3.03431371626596 9.135644145499938 7.433374887195677
Ag 1.0224747375974308 6.500543595578931 3.9210621396002314
Ag 6.292357982530256 6.928919653003963 10.371559730256632
Ag 6.921503417389486 4.650027375228427 11.86475007022847
Ag 5.630242496547446 8.968264108465352 8.441312717188985
Ag 3.9958141019026594 4.472062074199294 6.784806666292214
Ag 2.8841398300916263 8.601657955268575 4.627478535446823
Ag 5.283177371548863 7.022439698153785 6.206682521972393
Ag 6.419611087297913 5.170761937612655 7.990996910056994
Ag 3.9782445662297037 2.0174148091222803 5.455283062261157
Ag 6.473105779524725 2.6084356985755153 6.725167904293958
Ag 4.301489509282616 3.353778436860886 2.890748091538042
Ag 6.990022033199999 3.0232331503947756 9.581311204641104
Ag 7.843916820961068 9.373987096705145 10.178697967396682
Ag 5.164760122186256 10.01056714735355 5.798915957900874
Ag 3.7386766484296787 5.989456296583709 3.8641155641626197
Ag 6.005467723402405 4.557213987641604 4.655012964400963
Ag 5.475995976332365 8.145497975632834 3.6757468500417536
Ag 8.735524200751755 5.302727183021036 9.796081540792999
Ag 6.234625537990021 1.4828376020742813 3.989353189174012
Ag 4.239673194593393 10.548820383708852 3.0856687322977274
Ag 7.996562717452425 7.53004245373066 8.138121031073428
Ag 10.20911667366682 7.796494563677244 9.792354553947542
Ag 8.994622671704498 3.660153620748837 7.487199698314028
Ag 8.16466027866984 5.798351560220409 5.840793185635932
Ag 6.181416979494029 6.016905600754676 2.155896565519157
Ag 7.848078427531793 10.424885282539664 7.491922833463987
Ag 7.657441296895773 8.527004173618877 5.52403341132726
Ag 8.446372939171368 3.063304126334073 4.733531650563772
Ag 10.458465620190141 6.150824252444872 7.568143275877167
Ag 7.140518770437377 3.392858071126756 2.194589291409717
Ag 6.037302622712788 8.919159334160051 1.186147949338244
Ag 8.87412917053448 5.377056877921302 3.135934866951048
Ag 10.253678503111153 8.963906219439792 7.1093734495351875
Ag 7.019324101875081 10.541514275225735 3.5960072284876756
Ag 10.728594792575137 4.620762857382867 5.226186247650653
Ag 10.204272699995425 7.390589134353354 4.705171770776276
Ag 9.636724221612914 10.19707800369288 4.651135843660645
Ag 8.235037139887105 8.090510939717717 2.7883701879310903
