47
Energy = -102.34158125 eV
Ag 1.6688557256840124 10.1967586766438 4.339191627593871
Ag 2.4837341656381495 7.1870942961526625 2.5414213585072853
Ag 0.5648909603397216 7.6747942844083745 4.665673737626019
Ag 3.876986603322228 9.827399003760682 2.6922178732133495
Ag 1.8277030101888059 9.043333053054551 6.89763287606306
Ag 3.9850412485337348 10.749022497006262 5.86616829281756
Ag 2.174984139988172 5.423463046534013 4.819574941366098
Ag 5.414397713669488 7.508798751769041 2.5317242711919814
Ag 3.4964147845337172 8.061858322841399 4.904421814254297
Ag 0.8441654919852175 6.385530220700647 7.1348720378993455
Ag 4.294887131561116 4.998635744760098 2.993612922860928
Ag 6.02372755980921 9.413402151440447 4.529197089569215
Ag 2.377887864958463 7.576179933313011 9.150943387430157
Ag 2.0493060392727784 3.85352467343395 7.232934785372068
Ag 3.769848098943191 6.029417092819377 7.228626168649968
Ag 8.088205619261533 7.748342997082177 3.556984688046498
Ag 7.1715710001285835 5.23340793141843 2.813883001514821
Ag 4.865773055137456 8.552448016927032 7.3921190032309045
Ag 5.738140077320948 6.373002985269996 5.160707577293549
Ag 8.714623205085287 10.202236011760682 4.948037260918089
Ag 4.402518682959132 3.815690178495381 5.523366299844182
Ag 3.1819511544380124 4.856674580473986 9.794620456910122
Ag 6.7371899630898575 10.605409977794483 6.961371987907728
Ag 4.626483852823403 3.0953716465476346 8.175500233303016
Ag 4.996019890261137 7.0224257232724385 9.788167458440213
Ag 7.747175107207116 7.911049864506034 6.378788246457172
Ag 6.040424633823321 2.743769827349483 3.503367913884479
Ag 9.537067238379553 9.663511501805983 7.615730183271075
Ag 7.16069465115834 8.713534922599896 9.046987493034198
Ag 10.389084732071057 7.995545051478394 5.291460199677675
Ag 9.754077907427066 5.562389969465409 4.00899269631375
Ag 6.716099293818083 5.746648725276531 7.841889996991293
Ag 8.83688090543805 2.989459907713598 3.336670150835953
Ag 5.97568411630148 1.618018676153471 6.140158436898392
Ag 7.473767573658517 6.694106547988252 10.948510209727798
Ag 7.443870659940348 4.125167659255231 5.557443161646142
Ag 9.444719210327037 5.626620670841196 6.9078082717852025
Ag 6.003796905226868 4.375918752972943 10.217850200060118
Ag 9.643906861128317 7.3848470521692455 9.315058737094592
Ag 11.816300023053847 7.931390638887662 7.665498074113786
Ag 8.776883552615717 1.6410454258401 5.951776401975883
Ag 12.05757266555663 5.759788620824806 5.922346603479425
Ag 10.868883315342757 3.366447812385443 5.2854909578954254
Ag 7.42912100823159 2.860707390871129 8.187688136414986
Ag 8.895816499031556 4.698577942370959 9.667885981652917
Ag 10.24025539155265 2.9672224711673563 7.943064391854541
Ag 11.531631531751161 5.3342327878933 8.779322088956675
