41
Energy = -87.68576931 eV
Ag 6.222705027196506 5.090755429783472 10.857115315966686
Ag 6.386002191414233 10.014572535099674 10.713734335836874
Ag 7.6542665075994005 12.265658183323689 9.479178408255159
Ag 7.449986757928893 7.417978576202298 9.970804580556278
Ag 5.251606888393405 7.622755106253656 11.713481749036896
Ag 8.600410930874165 9.750080820449645 8.812149327073856
Ag 9.513310616466898 7.183551263894942 8.011321137418513
Ag 8.344684423292435 4.7681718233890305 9.07993828560888
Ag 10.201996515569473 4.609114353327237 6.9858435892227435
Ag 5.962321345289651 2.9815781113119457 9.055671501163475
Ag 5.865826825759033 10.731885211358923 8.046788630790104
Ag 5.799514576147068 5.6069894902148425 7.958599882879011
Ag 4.677930466398724 8.313807950580854 9.114563784227439
Ag 3.736719868853314 5.723721172571117 9.866927110989971
Ag 9.096173087716059 8.922958950822139 5.794289522901013
Ag 6.8442419081649755 8.22301966792573 7.269807908486514
Ag 8.159857349986536 11.454996030619446 6.674894760519069
Ag 10.180969740112058 6.4757636268444 4.684528074707184
Ag 7.919762123967236 5.893762072613549 6.068491615679077
Ag 7.851306053341095 2.9322592070444493 6.961947142114082
Ag 9.142709789461167 3.7161802631927103 4.572758164927748
Ag 5.887300844183489 4.164840971005929 5.3204383078324335
Ag 7.85896067656043 7.710765789313237 3.608396606998052
Ag 5.288810339112736 1.7431791347151904 6.556719944175148
Ag 7.086536730561678 1.7673752804497302 4.336308366956067
Ag 8.939363295328677 5.367147506568762 2.373589071340983
Ag 3.5952564529064577 3.808314977293958 7.773395870970855
Ag 6.508402512374185 9.891111986581775 4.957350262482681
Ag 5.394996249639484 6.861804719795334 5.323625653520766
Ag 2.6420962022906704 2.030184434279224 5.821742148294619
Ag 3.140180227044955 6.650385705824565 7.267153736435047
Ag 8.840865943286442 2.38143319108682 2.1869358625447766
Ag 6.599278697156075 6.492292441410623 1.4398450494698152
Ag 4.370923099730941 2.5902674737649973 3.7141842522570676
Ag 4.112116128007455 9.197361117915317 6.525825317930868
Ag 6.551614082102185 3.8374841122605585 2.4360715759906175
Ag 3.0084588777586276 4.790412865380343 5.192653266993258
Ag 5.183261525392139 8.380329643662511 2.9202261236531726
Ag 4.428008144656024 5.582065696180149 2.952686830695043
Ag 2.896492470650324 7.6184854183794934 4.491600759256997
Ag 3.8564127617547252 10.48683594173697 4.160054418270079
