44
Energy = -94.88235204 eV
Ag 9.063807721001602 4.591933046868714 11.524663753673709
Ag 9.096685224558083 7.439896157877046 11.35366777286703
Ag 6.96188923044663 8.835819396348832 10.1471961025195
Ag 6.865215772426071 5.977687529315378 10.404738675450886
Ag 6.944933560593865 3.1055583871210417 10.496733314837657
Ag 4.840292944160719 10.198801144384502 8.891542010192174
Ag 4.730120885549544 7.347717390562785 9.141467591216832
Ag 9.522842193421406 8.723235870260792 8.816578675352462
Ag 4.772892067429506 4.518680296980756 9.105010464014503
Ag 9.470836064195488 3.1425715080479684 9.08084482043772
Ag 7.408318794851081 10.186152063439598 7.598389138272236
Ag 9.612234741311527 5.902943039021161 9.100870502731764
Ag 2.6062209801199363 8.647568764155729 7.792920994329962
Ag 4.737310210885376 1.7551966035286042 9.30640218914067
Ag 2.6570828692781245 5.8120294416585745 7.739078346763873
Ag 7.28189111744551 7.31064001740864 7.788408293606949
Ag 5.209251023490191 11.558764102717232 6.424833446411098
Ag 7.33307645538716 4.462489416277105 7.838288343422507
Ag 2.695070590185996 2.956731171680117 7.828638042886575
Ag 2.808827171642143 10.056592215090175 5.393705546678981
Ag 7.281280307236762 1.5908520577958527 8.162131928592311
Ag 5.1288853551174505 8.767216497307928 6.525772566780094
Ag 5.228958051080366 5.878387339041277 6.494881599010577
Ag 5.207391322187199 2.70356148350397 6.645562303631074
Ag 4.708330363917103 11.154143011306438 3.6883085343746984
Ag 3.239358662623216 4.257355273353794 5.372181375360506
Ag 9.913178127820919 4.546572480123013 6.550029030035868
Ag 2.9926735081705718 7.199659714903925 5.287988668481778
Ag 7.801790594910032 5.984150838115618 5.331731538729646
Ag 11.114323016038993 7.055988911844158 7.088845223154881
Ag 7.919825032201637 2.710551404735281 5.7165169014712545
Ag 7.06812114217976 10.061053572906399 4.779344054729901
Ag 9.129790451943808 8.608254734591705 5.951405884838116
Ag 5.771151655395162 7.509538726905096 4.117131994929993
Ag 5.934544150102261 4.018466370059606 4.267233102108279
Ag 3.497173436851184 8.748263877743337 2.938871855124912
Ag 3.9840478249019458 5.66610391006198 3.075720068559304
Ag 10.467032695264335 6.452965041106583 4.420795663352054
Ag 8.917263599029207 4.153502137618317 3.5948409895629925
Ag 6.19715395556251 9.486202559602326 2.105631234106809
Ag 8.445451739642795 8.060905361560724 3.2384572724754555
Ag 4.934181633922719 7.286385148297592 1.0735678102429045
Ag 6.95097686846221 5.700609016558204 2.270068190267015
Ag 9.687123249966847 6.05353854586635 1.725728314085028
