43
Energy = -93.60699945 eV
Ag 8.743470759028764 11.475052236350791 10.624638082934565
Ag 7.228981774776482 13.051306722097738 8.882320170560336
Ag 10.118318806170066 12.970037126279369 8.456314290634433
Ag 7.228743517529836 9.898975844652266 8.882338068541724
Ag 7.678055933538675 11.475156780773892 13.285252812797168
Ag 10.480095707996838 11.474913694774285 12.959424918039263
Ag 9.311484880505159 13.874998346081732 13.982421793411758
Ag 5.995971441164641 11.475225992158693 10.958948057429971
Ag 8.868297132572497 15.302900511224406 9.497044944387092
Ag 10.36175826961679 13.839451679028446 11.281595097307534
Ag 7.483199048360781 13.855775497371036 11.644418243502585
Ag 11.852346241579813 12.980624197948767 15.077149998809933
Ag 9.482218693841636 11.474988869756475 15.54143811638443
Ag 12.700059277706156 13.940676111290777 9.48214328601984
Ag 14.24980437964912 14.341491158890967 14.272740755542932
Ag 15.559827893543552 13.86287482433749 9.55188375087305
Ag 11.522101632965148 16.276373637843555 10.6541915025054
Ag 14.059744147617119 15.356938446193666 11.53225785548089
Ag 9.152464785109732 16.131988579517593 12.241554950187632
Ag 12.898610877004666 12.942138959450153 12.321914556024357
Ag 11.724505859826527 15.3751779050533 13.373650651757893
Ag 15.741924173746252 12.953635580838284 12.292392529832474
Ag 17.099015725250617 11.474559854765246 10.271145765107793
Ag 14.261154258423902 11.474592278338847 14.37798181075533
Ag 11.852008380401724 9.968955131394134 15.07708103753977
Ag 14.303315587973753 11.47472300786001 10.259324715726503
Ag 12.651206169816387 11.474870984029444 7.8631504297521415
Ag 15.559189153080085 9.08658356554966 9.551324630929468
Ag 15.54167168641194 11.474877674772197 7.837825789378037
Ag 10.361397965549415 9.110491092408495 11.28158025819029
Ag 12.898375877812237 10.007436596467752 12.321872043941472
Ag 11.524294897861264 11.474870984029444 10.355326476187479
Ag 10.11807669172831 9.979962335655994 8.456295756723364
Ag 9.151796840594146 6.81809146367398 12.241502378267054
Ag 7.482836322424588 9.094534352432156 11.644409622050373
Ag 9.310901003686556 9.075064370075129 13.982364406541391
Ag 8.86780229294347 7.647228079119711 9.497013349895527
Ag 14.249446317874742 8.60777624459288 14.272550470646513
Ag 11.521482223985029 6.673413998182451 10.654103482450388
Ag 12.699588884972245 9.008977442153139 9.482076907645341
Ag 11.723910934413201 7.574575674045945 13.373513007384286
Ag 15.741703576028039 9.995585280471095 12.292105220328198
Ag 14.05931087329667 7.592654827095544 11.53200398727014
