45
Energy = -97.35696722 eV
Ag 8.391564586279086 6.175488046067047 3.1138542482083946
Ag 9.970848697036912 7.469708221464423 5.116122228880698
Ag 10.503187980894976 4.756305168070632 4.571973529536393
Ag 6.315053464826594 4.86922289571543 1.5495600568517842
Ag 8.892387072700181 10.016587680942093 6.130570030224442
Ag 7.865918336631976 3.364669350300716 3.3179253669840905
Ag 7.842411900619485 8.861995237420565 3.797916849573028
Ag 5.996144340248971 7.622900079428673 2.101863802958578
Ag 6.486359796264495 11.167706815240086 4.880676379745069
Ag 3.611163160505383 5.146003385799135 2.6756274226954786
Ag 7.724485311378724 12.38452557001511 7.161329013173257
Ag 11.981902035383587 6.242869178063541 6.578298434923664
Ag 7.383856372720939 7.594757132322753 6.263017612767711
Ag 7.96180700096393 4.855614401549385 5.693252164860841
Ag 5.113672006301931 2.845821635140064 3.140787222733592
Ag 9.093802749631806 2.2707546367698717 5.565128564346636
Ag 5.0766488803198655 12.328787478763415 8.091549693423561
Ag 11.037043263991453 8.757718846924087 7.411776449822763
Ag 3.2297987760878506 6.545732733030794 5.1410251082652305
Ag 9.841034676518422 11.161370861321615 8.550859072877223
Ag 5.8052396827067385 5.803971006286448 4.169610498304367
Ag 6.1753309311653135 9.89744788340138 7.277718859066652
Ag 6.267783425031795 2.445203478825555 5.6179911854376625
Ag 7.988805897052759 5.816299889068754 8.304490921084698
Ag 7.208422866541739 11.1737115606045 9.637465382374685
Ag 3.8616923676860546 10.794359841241963 5.991641697347486
Ag 10.234734464039118 4.231551364948528 7.371178900457586
Ag 5.123144404775473 8.624743310565373 4.689606270236661
Ag 3.8640213614836023 3.849859211372199 5.421236202959216
Ag 5.476607966832811 5.7304620798673485 6.928033659656344
Ag 8.60260469063251 8.700901392558059 8.88221660168152
Ag 10.578483789952728 6.536025728185791 9.05192178048055
Ag 7.686377825760105 3.0270897412955593 7.977145167548163
Ag 6.0211537963849935 7.638821635104091 9.052394516358628
Ag 8.153454259697096 6.680756150860037 10.900344728353074
Ag 2.871950170734586 5.443482837053315 7.76997959711051
Ag 4.566783797294661 9.945867908655728 9.608942665179297
Ag 6.688923292437634 9.080563044306118 11.377553022611716
Ag 3.839862335196621 8.223512488059484 7.266176681666382
Ag 4.814688153890799 3.2753187672626205 8.093710067093209
Ag 9.32282391067819 4.16973890573342 10.093735128522365
Ag 6.469807995825894 4.310614828091801 10.233440031280061
Ag 3.707511941085026 4.609508473218315 10.340180224938496
Ag 5.382477046450563 6.547552103237465 11.575349755154157
Ag 3.314097002934205 7.3499708014228595 9.860696987820397
