45
Energy = -96.94117021 eV
Ag 2.5394935922678865 4.553567180264953 8.173817026410143
Ag 2.7858527303748053 2.3039737634394246 6.484053032140626
Ag 4.363282808903911 5.338351976314296 10.055242455434108
Ag 2.398423739863443 7.312403689417166 7.470925142490152
Ag 2.4483455466769852 5.089652583066704 5.472311178022871
Ag 4.948780751993295 3.1224671863687945 8.403346401424566
Ag 5.595613375732412 1.0838612165140058 6.575839375324528
Ag 6.350700311817336 6.777636195351096 11.273601115970365
Ag 2.6948418585651215 2.909392793832384 3.679767325208931
Ag 4.51616337073855 8.048715720502964 9.337509087856006
Ag 4.396457632609443 9.092207414834016 6.598532673859489
Ag 7.013155983365908 4.475032192836589 9.709975037487986
Ag 4.83121718854017 6.071412684310377 7.253589338733104
Ag 2.809474849549221 7.743027360676208 4.644789355830384
Ag 7.63766120705191 2.7367574381319955 7.550300150067124
Ag 4.858011565969441 1.2183729425921044 3.909481525378492
Ag 4.928564385093342 3.6726771562560243 5.549920897140022
Ag 8.269201991625241 8.274805951560946 12.666712095215244
Ag 6.204230709415703 9.527280677029584 11.133463606806028
Ag 6.464638897745139 9.809648110410867 8.367177535993385
Ag 3.0296038407024386 5.495525818724447 2.7198615440653535
Ag 7.406381793887286 7.051418206716758 8.510271373405185
Ag 8.7501387059025 9.106368176909122 10.080531189709722
Ag 5.241993957591858 6.2414143248067715 4.377855904548222
Ag 6.780141064373649 10.66234068458516 5.6605427037924985
Ag 7.253822762821929 5.195015179226175 6.263622883961194
Ag 5.272895720105087 3.7084499241364024 2.7153043148719562
Ag 9.038112079970253 6.304970378351085 10.740918580791671
Ag 5.08674017342875 9.233379915261535 3.841820586569436
Ag 7.295003179867023 2.5017071909613193 4.680173435320649
Ag 9.398173473829996 4.84630337438117 8.27666103130609
Ag 10.459184487785386 7.433983955881073 8.568729539034646
Ag 9.000961751107312 9.46430689182831 7.326361702422095
Ag 3.432692693358927 8.078964884977632 1.9030205839957643
Ag 9.570077677163567 3.9320170542211694 5.532128148282858
Ag 6.932065816732776 7.955521119028095 5.87739658412451
Ag 11.312179491175584 8.486340969278372 6.085711997964464
Ag 5.601742400608115 6.2802722295275055 1.5840716747260923
Ag 7.3213417269060415 10.59471167015477 2.8405129018754267
Ag 7.7087364459212715 5.00768980948873 3.4285756279515156
Ag 9.184451546450479 9.503918595890346 4.575218623725563
Ag 11.478420527867904 5.718155758028072 6.611414644356533
Ag 5.87928427702463 9.031796316795745 1.0563770746595458
Ag 9.450701760212107 6.708327877324139 4.911207557457429
Ag 7.532655606472426 7.7828804843896995 3.016236040845968
