45
Energy = -96.63229974 eV
Ag 6.89408467620122 5.884433466506822 12.550155793692985
Ag 7.979658300813523 7.356347480130434 1.4643917316281259
Ag 5.23394758474876 6.317247024877128 1.5459195612567709
Ag 5.32588091476223 3.7350474420293263 0.4598899655478264
Ag 7.681500041586987 4.556620980478261 1.7271127824583468
Ag 5.993681178282831 8.563112209550608 3.0482118062452006
Ag 10.15228717026969 7.449179851486355 5.625385696770543
Ag 8.634274792313674 8.907638328092053 3.7779471790317323
Ag 5.289874038904146 4.037781243991349 3.278552195261921
Ag 3.316744992284078 8.198320256233938 2.5222618847051823
Ag 6.5717469029985525 10.675502404874226 4.77722682439522
Ag 10.496383586209607 8.694017754998963 8.165791040923773
Ag 8.1617207646787 6.132477700613481 4.029539612450124
Ag 7.961890811409636 3.3236544346134056 4.197644786910333
Ag 9.53297348872924 4.572034152188425 6.058316172399408
Ag 4.506385840518837 6.444949704523969 4.276581300685844
Ag 4.112065335630633 9.104024054688617 5.2031548526923554
Ag 6.610527298648635 1.8703464727538948 2.235217778214942
Ag 5.758541383990913 10.269672403037116 7.390186905395565
Ag 8.340016677376562 6.5644267875778795 7.545667139947594
Ag 8.727246991571572 9.909540228736937 6.387705903604078
Ag 3.833235468518214 3.9980364253982192 5.701324807752418
Ag 5.704443569780415 1.8555215254584978 4.956686491563708
Ag 9.677839371809748 9.785218294162124 10.65817795852954
Ag 6.638817771955005 7.969863236106794 5.868880867628538
Ag 7.709515362818238 8.962179704107948 8.839677854535127
Ag 3.5172605966960675 6.682787649531297 6.790564415582314
Ag 9.451299148737917 6.984075852511622 10.16792031579756
Ag 6.360539135510047 5.127860404450803 6.0202956967323145
Ag 11.030278402422402 5.9101446651737195 7.9909727839660105
Ag 7.091861508944781 11.039293256978025 10.578757154008168
Ag 3.196448092830832 9.216213383932432 7.853772272123199
Ag 8.92890341744492 4.2606649510119965 9.000210385495174
Ag 7.559864611951239 2.708952373157306 7.0143970665104876
Ag 5.022007825915349 9.238814870263633 9.925538267549745
Ag 3.777470177283979 4.454735595829585 8.437376342851596
Ag 4.819152278504443 2.0382937124967633 7.567750762350912
Ag 7.118144804593228 5.6911514386060915 10.895704539223212
Ag 5.787110897799929 6.684066785710856 8.534116486070051
Ag 7.441969318051259 8.40401309800553 11.625668254048486
Ag 3.239074726642588 6.996778999986413 9.652687164447942
Ag 6.291976399147382 3.4984801484448287 9.38525589636589
Ag 5.297318885697583 10.017528978270374 12.550155793692984
Ag 4.907886878182615 7.312748967817588 11.984849340028113
Ag 4.5004085118259685 4.780461235598869 11.092155507356313
