47
Energy = -101.79507741 eV
Ag 10.196073094039772 6.832384254430022 6.609308461001828
Ag 6.418796523344079 5.091284094364775 12.77310280328025
Ag 10.414922285672239 4.018299659467436 6.699640793683905
Ag 9.352889810304822 5.336359403853604 8.962685254001062
Ag 7.538322943840587 3.9579259558910755 10.50479150719803
Ag 8.042611041220876 2.847235911181445 7.975874712034155
Ag 10.01955038856533 9.631731922132069 6.552781186682975
Ag 9.007709948448912 8.187512216319728 8.915538212015404
Ag 8.037752672554932 6.761752963775123 11.204729437788602
Ag 4.792280955448452 4.359855592958341 10.61403829059409
Ag 9.806745676040716 5.312832415895012 4.231197009823357
Ag 6.189895892570576 1.6671947334701314 6.168043905847901
Ag 8.526063281123266 2.8341684490322283 5.0471299208787554
Ag 7.8114644704755944 5.193727203515265 6.478202347692539
Ag 6.6947419361341325 6.383388560984088 8.822342260093789
Ag 5.149069982641921 7.073697710367119 11.288969662570564
Ag 4.133806729665283 1.7080069499999828 3.8704794268279104
Ag 7.630857910192158 8.114004320856173 6.4471937882561745
Ag 9.468494877386046 8.191878959753057 4.172254987254339
Ag 5.420106910667516 3.959772539108326 7.841788852412939
Ag 6.588657360924509 9.059402579860512 9.991552353838413
Ag 7.746007055789033 10.570219096578631 7.8954879391018045
Ag 7.749717780648979 4.165766322570218 2.622158711686782
Ag 3.4299394796342493 2.464220918210236 6.388570845917794
Ag 6.780783315375967 1.6582979019157287 3.3240598221922166
Ag 5.533977114668245 4.077278187032655 4.833376379599337
Ag 7.0115493914417595 6.504985674897476 4.0787450156895195
Ag 2.822310046330282 3.6184086512964972 8.829160357975141
Ag 5.332434312031079 6.5243821253082945 6.341807099372211
Ag 8.876674680891215 6.646428393692272 1.8990834689817944
Ag 3.840845358624647 6.351719237535321 8.781881790265514
Ag 2.885954144088297 5.158718324658193 6.394221099863885
Ag 3.7281898386708727 8.969317895187846 9.739771744066141
Ag 5.007659740074346 3.7390184775776842 2.070657719127223
Ag 5.268006103169747 9.319525010570555 7.492485655060004
Ag 7.779400012391838 10.413598240978107 4.896297249806933
Ag 4.0738639528177005 6.446555441297602 3.727464183734038
Ag 6.143073853548098 6.273102415658535 1.3970173404583965
Ag 2.642489492531741 4.06691903168601 3.8233043675978653
Ag 7.155779490424691 8.82539475604601 2.5311417663757045
Ag 5.334777289524352 8.917671693618448 4.687398472483202
Ag 2.9850861314993185 8.041389197185648 6.572834094634006
Ag 3.4465669288811944 5.747089264608721 1.0314568358693736
Ag 1.3931809276205966 6.65166019770882 4.564654822503282
Ag 4.421721652726492 8.502866144801363 1.8736662084038604
Ag 2.6471217809467382 9.187725088931426 4.076534926024693
Ag 1.7467551619020465 7.66000564074763 1.9797966369488649
