47
Energy = -102.02272056 eV
Ag 11.469476951039264 7.68379450343238 6.729055158123682
Ag 9.512141367529022 9.314508876957756 4.291120636645878
Ag 9.73739600778388 9.889357923198528 7.157506635266839
Ag 10.490754020137063 6.68296110270908 4.278309979967681
Ag 11.700809892585088 5.723924896596036 8.762911092424204
Ag 9.681102359847197 7.686642650569549 8.969151439242493
Ag 10.473740319413025 4.981163213634749 6.42674778662624
Ag 7.347958808010154 10.271354671666085 5.7553918401889055
Ag 8.646413744883462 7.438048820510148 6.3127518000623795
Ag 6.874866964042037 9.660693813793172 3.022345433372816
Ag 8.244331007227103 7.246656928597906 2.8679888622613774
Ag 9.802773263562802 5.541355905165737 10.74252995663452
Ag 7.924761535566477 5.176695271615618 4.930170300103671
Ag 7.233770937604158 8.971258802985057 8.25149357004506
Ag 8.37750785838073 4.958190362799721 8.277170398633725
Ag 10.325592653514308 3.186713469939188 8.89061156567054
Ag 4.758722231630116 10.333574061011877 4.811193817836272
Ag 6.215912070889056 5.377113262717824 2.6066258275252876
Ag 7.167292326831571 6.675991631629881 10.090553419101989
Ag 6.242869757762502 7.723233560254594 0.9858022683615039
Ag 6.088221930132351 7.710201213308927 4.916107247842423
Ag 8.923828375565407 2.7137851898779046 6.289324303058412
Ag 5.464174023839515 11.16889878310519 7.641010632829897
Ag 2.757768431852069 10.902470504609271 6.667206726467269
Ag 3.951674727068073 6.113635190947542 1.1581438044855439
Ag 6.496129766623617 2.9335892616377492 4.06247722711763
Ag 5.181871293390857 8.66377450562084 10.037360723330245
Ag 4.238530916906224 8.448304680264311 2.757979467671923
Ag 4.445687752207141 8.648360091128227 7.1850278030306916
Ag 4.813673872307175 5.1630995539953535 5.095007608623604
Ag 7.978476825209793 3.577682020033592 10.864251214819042
Ag 3.276421383299331 10.474437319485515 9.377530342620856
Ag 2.430874774003029 8.753892926633618 4.936139383524224
Ag 6.722577844980231 0.9294297879781358 6.180252258608104
Ag 6.098912555864428 6.367694989762662 7.396703232594079
Ag 7.706214538207082 1.9171106458783653 8.705778428948076
Ag 6.320877048154195 3.58118257290561 6.822401078372827
Ag 3.9019474459374104 3.7561396362533443 2.859711820647841
Ag 2.6177089108108613 6.3046298708965764 3.5668745671894238
Ag 2.627289416871123 6.419397266758224 6.4262120431848935
Ag 1.8060178759085983 8.4995500596642 8.034332854127559
Ag 3.7540521279195445 6.493283003259968 9.006906910114402
Ag 4.194055668555567 2.1533367303087485 5.4893940939634795
Ag 5.666695379461342 4.245388774461845 9.46989448697532
Ag 2.165814748937235 4.003259731870306 5.104948607067947
Ag 3.5645021685594616 4.049938864366306 7.587398809281548
Ag 4.885920461004939 1.6824619008101172 8.311655513192159
