48
Energy = -105.762195 eV
Ag 10.883278770762333 12.474827872701848 12.422839424173443
Ag 8.485422000737042 13.962803121745031 12.965488147339508
Ag 8.441618784629854 14.93235664575061 10.222198297243251
Ag 6.975231161539803 11.370171693935845 13.09352019112454
Ag 9.292961309437997 14.37975944602381 7.556119213230394
Ag 10.883323200064787 13.436103843610468 9.628515424241087
Ag 10.883199786341013 16.139712567181157 9.12426928836493
Ag 10.883152533084498 15.238769071571314 11.87299463982444
Ag 10.883175967758671 14.18845879116328 14.578838736608851
Ag 13.252622528320154 12.125066758910416 10.805447188725893
Ag 13.32450499468491 14.93260495276585 10.222525670296548
Ag 13.280797033481596 13.962919990568576 12.965674462384348
Ag 15.584917138436952 13.49835118277675 11.345562172361007
Ag 14.750909211933465 12.957796127400558 8.576164811982833
Ag 12.473597411206518 14.380037120688796 7.55627882127597
Ag 12.316869789599703 11.687409709474082 14.795966359585693
Ag 10.883340735178509 9.145397055514012 14.938122587810309
Ag 9.4493186336845 11.687294598450915 14.795854488780659
Ag 13.780150758263973 9.225798567853042 14.757862447002623
Ag 14.791180562871748 11.370564323025167 13.0942210073155
Ag 8.513934924578946 12.124951489292773 10.805264617084994
Ag 6.181392662186584 13.497977558103932 11.34530839374979
Ag 5.9970049176364455 10.789914808612833 10.411556555668795
Ag 9.395654150684344 11.505976193231858 7.977783444573901
Ag 6.9975971159886425 8.579157724061307 12.158124528394383
Ag 6.8058695561800695 10.18091697245871 7.747858311325408
Ag 8.500317593989498 9.393152295089687 9.806056540729381
Ag 8.477908875361656 6.653467638429348 10.529554027786576
Ag 6.1061702054985885 8.03351241067374 9.516313624278503
Ag 7.015567423443907 12.95745834009836 8.575952170429094
Ag 8.385084571999474 7.466703077012866 7.829754262546622
Ag 10.883470710367124 8.975534313183587 8.07493860749932
Ag 10.883394307029757 7.9928135710565895 10.956174232778771
Ag 7.9863653374055925 9.225380167325678 14.75772261749171
Ag 10.883340735178514 10.737586678570125 10.251611839234918
Ag 12.37105576753639 11.506111629418715 7.977882300409802
Ag 13.382556299811755 7.466993824578026 7.830073511390263
Ag 13.267001858155691 9.393096563272904 9.806178530078766
Ag 10.883472803919554 6.249290911689453 8.817017700513194
Ag 15.663388109457665 8.034355737163192 9.516742774574237
Ag 14.960978773949723 10.181172317870026 7.748133010882664
Ag 9.436987635330777 7.220975395151822 13.257371819186444
Ag 12.35258455837684 9.947664799016573 12.515215991538197
Ag 13.289404645006032 6.653837545227268 10.529508711458334
Ag 12.329850761606739 7.22112922154191 13.257454417863093
Ag 14.769177219515093 8.579415491831252 12.158169068596735
Ag 15.769634301796094 10.790507657309043 10.411887872829073
Ag 9.414059733827873 9.947538095455123 12.515166740948343
