40
Energy = -85.76878016 eV
Ag 8.342790681651632 4.617695589165606 2.341022032451076
Ag 8.649853011988593 7.331377477645392 3.039537563497228
Ag 6.3918609930378745 6.405631928623147 1.3389018549860037
Ag 10.574669313087655 5.2656607388866945 3.8666238355825953
Ag 5.941217594403403 8.447590855253107 3.1161450643925397
Ag 7.97100745046361 10.291763419580267 3.7003635570362827
Ag 10.292432846737864 7.353481567884307 5.646716607832995
Ag 8.950491112241906 3.1094000877675603 4.760778483694616
Ag 5.660172710314628 4.33725830363633 3.0163447950281626
Ag 7.457717132680476 5.416663693058371 4.9655378502943055
Ag 3.935907112760084 6.524783684955887 3.0513888488742036
Ag 5.463553256412605 10.247241381738236 5.204361904352775
Ag 10.303099761021256 4.74365417053867 6.643927281188604
Ag 3.239360946485735 9.039375474758485 4.085783024421602
Ag 7.710043007783588 8.290249699627912 5.4335563366139645
Ag 9.3706081276359 9.04387028791417 7.697266715652705
Ag 7.7333839293566795 10.936792851534625 6.5809295707438515
Ag 5.201311466099536 6.984981807249091 5.665298988996407
Ag 6.139847013350444 2.880543215463534 5.332492327715602
Ag 3.803605526789901 4.559534275075888 5.064084847703477
Ag 5.951104728522648 1.614774234067176 7.890472656016822
Ag 10.7821084541289 6.779539660879702 8.518008643693808
Ag 7.959249839070758 3.4974965434254104 7.437968050601836
Ag 6.2806166272572455 8.590701808554492 7.758878592829454
Ag 3.5720414650860834 2.1780176613727966 6.461313554468726
Ag 5.32725584330514 4.596857490220827 7.489275039255384
Ag 2.392110522902321 6.887280344983102 5.745758769828768
Ag 3.4720687553288014 9.310547754809749 6.902843933597424
Ag 5.241415975785177 11.22433165154404 7.9603090431941785
Ag 8.785630270554165 5.00278474901387 9.716754744503152
Ag 7.492348637048018 10.390333575975186 9.486099249298872
Ag 8.565933645717962 7.826884982401185 10.035599649582826
Ag 8.038795671768167 6.404101410162604 7.487859495064168
Ag 6.320851868712477 3.541778496065873 9.896082899744044
Ag 3.672872616163457 2.416337649856218 9.23517107034024
Ag 4.678355452254502 9.083429863592864 9.840244442755969
Ag 3.8312840676927413 6.925301943969564 8.210805513916537
Ag 2.467967929519652 4.517852675675099 7.600834915772852
Ag 6.176240945729568 6.414909912578796 9.706075142102714
Ag 3.8322104209593095 4.9572554993856865 10.156881228564332
