45
Energy = -97.24661259 eV
Ag 7.6334483093315555 7.034783394729328 2.8901866280756217
Ag 8.75036085394476 4.405825852551749 2.263468494491409
Ag 5.310363704418929 7.77349789721164 1.578081822172694
Ag 5.958430465176242 4.9962649866187565 2.0117100125832543
Ag 9.536451927824345 5.838483410693099 4.601713244473381
Ag 10.022858839981696 3.080007911714322 4.367656735601564
Ag 7.154110300085826 4.021950549371986 4.448682832508984
Ag 11.007020586937065 1.7284179634518464 6.618075571412802
Ag 8.942831759179482 8.70655786555201 4.847217512289464
Ag 10.908846849306066 4.473949242384296 6.687284068117867
Ag 7.05951621323217 6.800032797325594 5.58783007799701
Ag 9.561779249564829 7.131046011918903 7.179251161101481
Ag 3.438504095517657 9.191333397590842 3.042192717027619
Ag 8.235019354691506 1.9733754542983588 6.329553936840875
Ag 5.190572149255404 4.98413744803952 6.471485159808639
Ag 4.334452049380411 3.784537583038931 3.939923597370205
Ag 4.512731083026886 6.571397116269842 3.9662817967327046
Ag 8.75023697524769 11.267373779781748 6.0336758693582535
Ag 5.982948759636604 9.119442236313546 4.170744014118294
Ag 8.094839758487517 4.679725322219867 7.124892416159989
Ag 5.472639473662817 2.211858774840838 5.945911103553946
Ag 9.473962363471287 2.801752677602449 8.728817539031615
Ag 5.797975327526293 11.520973678916233 5.794386438791055
Ag 2.4782906448187623 5.059549228388616 5.556742258489761
Ag 4.558635929210219 7.813335970140962 6.602206592214598
Ag 6.68144300473247 6.855449267777926 8.36374969227444
Ag 2.108178805653611 7.79781265427064 5.034845941257175
Ag 6.442344154713746 2.8235763683581254 8.485149007231179
Ag 9.366341322364406 9.744753955430932 8.375458152345686
Ag 4.937465981554012 4.976761214109277 9.593627142931231
Ag 11.476550404639221 7.968262401719873 8.993917341553761
Ag 7.041068048936279 9.262811296741756 6.900752123498028
Ag 3.3505045552173485 10.261687325812195 5.572546993300285
Ag 0.4268482011664046 6.53177656148581 6.794603873435168
Ag 10.51675120755634 5.3360237541284 9.272369684652794
Ag 3.546443114608917 3.248164825656983 7.749385893814072
Ag 7.15269921519988 11.675914941149642 8.314593046378839
Ag 8.91711181162909 7.493055305244764 10.056828295045074
Ag 7.845607184371959 4.76619211032317 10.007075201240541
Ag 2.7421544895805576 5.956664870822084 8.186429174651321
Ag 6.348947694354786 6.859033944196424 11.15648348990019
Ag 2.1528736578478074 8.75107705558642 7.723663219312869
Ag 4.239649904813617 7.874353035324394 9.556383266032649
Ag 4.571875603972385 10.295127964843722 8.096151139916833
Ag 6.746465724151879 9.328794585460289 9.77500167437864
