41
Energy = -87.98903502 eV
Ag 6.6537973128981225 0.9519697033289971 8.219268215393054
Ag 8.046100162988289 2.5311032309546184 6.365864825225705
Ag 5.233766235858859 2.019648216952174 6.062270072511717
Ag 6.431832007429021 3.5968417332463583 4.1441305778079505
Ag 3.6109276469331286 3.1182691859875002 3.9744656033612524
Ag 8.952811519111396 4.677375809424185 4.775887078870666
Ag 7.66387506287562 3.400253415032501 9.097172530733355
Ag 4.7411644879883115 4.907261443736923 2.184355854640539
Ag 9.504275233254042 4.8139972746762005 7.517391418089412
Ag 7.457370292917986 5.672786099822362 2.525442142478095
Ag 4.909678797120201 3.163778264671625 8.596241209376311
Ag 6.732410713664247 4.9497355622885735 6.7664188105458685
Ag 5.919049700394873 6.803592200504558 0.4265531761924161
Ag 3.78019013778143 4.452620344709796 6.362994387524102
Ag 9.98078062910398 6.797582261955973 3.188427355350619
Ag 11.054069619145821 6.73129162280679 8.799524272123925
Ag 10.574094347465522 6.9462238171697654 5.935815129624358
Ag 8.483615037852399 7.780680208343423 0.9886242997803748
Ag 5.377913850735495 6.253413641944607 4.61069804891234
Ag 2.6897319842720533 5.866317501184044 4.188195767019411
Ag 3.133973871325774 5.352464470641555 8.896035128349466
Ag 3.757528626764447 7.533818730531067 2.134278977338276
Ag 8.632897612281155 5.925889941655645 10.068460803059962
Ag 3.941953758348509 6.093838427938361 11.435911283015685
Ag 7.925087324395233 7.307470928133016 5.0557598916605
Ag 8.887069419697676 9.395540344943624 3.3391543236977492
Ag 6.323602589347278 8.396182017805296 2.747333408374947
Ag 5.893128990421198 5.666414528258628 9.426585314517054
Ag 6.689344376745539 6.410385369752511 12.061737474416853
Ag 3.1723258741706424 7.178389659138345 6.7238283651195045
Ag 9.409503496725597 9.633697687109136 6.030866827653367
Ag 3.978417105886041 8.017335989765067 9.320667627826383
Ag 5.951960842926331 7.600139835503383 7.161328357321057
Ag 8.661909169809773 7.674871041351745 7.892411138273963
Ag 4.115211780757526 8.740830289509885 4.607463579765044
Ag 6.64524281172103 9.823860105955006 5.188632115576193
Ag 4.961384046721752 8.638741281409157 11.931218932402889
Ag 7.248855362159763 10.132270436359406 7.885226368366741
Ag 6.95500118507891 8.285778243676413 9.993125994473894
Ag 5.235462095995572 10.505252968914842 9.837691786985122
Ag 4.431197004262322 9.884862446447434 7.1656020664214
