49
Energy = -106.98697813 eV
Ag 0.6454592429374192 4.168173442918565 5.637976967638483
Ag 3.2057027082781384 3.0932028065083776 4.738659513784528
Ag 1.549647676128695 5.000592768092765 3.1533685880875026
Ag 2.685946760998879 3.7166358622070415 7.497052167321524
Ag 4.802390367602486 3.597683758216426 9.339816394581522
Ag 0.5960479283487535 7.116664497303096 5.01766879579697
Ag 0.9880859089091243 6.02618259727893 7.67456081071791
Ag 5.364805350496537 3.2180422491803924 6.619758959555794
Ag 2.641379630474661 5.348454568358198 9.770751780286957
Ag 7.440761873804528 2.709491150003224 8.448168636656423
Ag 6.056121532058496 2.926929049126091 3.9515248528936127
Ag 2.97864713392117 5.771049590710916 5.488243284234043
Ag 7.7733439480840465 1.7256716783255557 5.842948627431105
Ag 4.38194728033403 5.018979997528552 2.9991703320282195
Ag 5.119550083089941 6.206645419226809 10.668187467841715
Ag 2.8299642040103485 7.45678179483403 3.068576543829274
Ag 7.075587408897247 4.178185870842931 10.84085152103463
Ag 6.7108672991183065 5.494117641636858 8.256381367804789
Ag 4.241607505655582 6.756020290379245 7.7842558855766155
Ag 10.085040173953256 2.7445091027911555 7.319175008870753
Ag 1.9707906286418926 8.516451349465225 7.110509131105415
Ag 3.0436387372264053 8.147653765991906 9.807422242839177
Ag 7.224055276853703 5.134148742880019 2.8006567374971048
Ag 4.368437950595333 8.37115055084162 5.3242403578053255
Ag 6.031727360953433 8.561867030774188 9.595940791114094
Ag 5.776664090932357 5.862096622160776 5.448051197718151
Ag 4.285812252769839 9.950525113036306 3.013752244237915
Ag 7.968486829023635 6.803852193707065 10.501991582560484
Ag 5.688124657952091 7.489384827194033 2.895554586023549
Ag 8.93816242254472 3.1119115246072115 3.6764131989842768
Ag 6.738232275593268 8.279713273187642 6.918200133840865
Ag 9.42654928036778 4.542274978826694 9.343676330430204
Ag 8.230657937368608 4.479414499486983 6.04312001664959
Ag 1.9486078480675553 9.6404172962046 4.570811830238732
Ag 4.3802234899530434 9.734106127115927 7.749674926881471
Ag 9.156531458563778 6.73846936964872 7.488808370605035
Ag 6.978771704097026 9.555819329205343 4.34672492084014
Ag 8.775271197099325 9.075168940302095 8.954389821034615
Ag 8.215000265526026 7.05610749155299 4.736548805543583
Ag 11.03123918646197 4.235816152638147 5.201920556715209
Ag 10.682072263400526 6.978596741575198 9.933890529858934
Ag 6.6710998974023274 9.829169754093462 1.5893369122230145
Ag 8.250425409072518 7.572453695883317 1.8453103403668274
Ag 9.285388453920715 9.324569735270465 6.134702548075574
Ag 11.595014611004999 5.360456674865854 7.710271541005784
Ag 10.044190252694394 5.735752784289233 3.102015163000089
Ag 11.388225215149966 8.498082042969973 7.749895007287483
Ag 10.125455909068826 8.726086801459854 3.4981715616359046
Ag 11.210272947929745 7.01650228263423 5.392934935246677
