45
Energy = -98.16820533 eV
Ag 8.729103113041953 3.9184793558041533 4.737213118345193
Ag 6.261549460077335 8.143840299545298 3.4035843168882147
Ag 1.6304259306181124 7.180483300543534 4.943900515997073
Ag 8.549038309380736 11.441220106744058 6.294507759001019
Ag 8.763966681773637 6.586953108644049 9.169452188634779
Ag 4.069838446865932 3.8119876729854605 4.850735667517621
Ag 1.7014775810143041 4.697096179712783 6.343613887895727
Ag 3.9543141407576345 11.32639710478233 6.410487789126243
Ag 6.385975002977052 3.0953991412145667 3.3892967710227317
Ag 6.237331377377802 10.582113025134543 4.917468175915894
Ag 4.016545197291554 8.933729025529006 7.889528652030801
Ag 8.62614455664788 4.053521898787493 1.926481689288907
Ag 6.495804719108625 5.67249051947572 10.643981524395404
Ag 6.335017194635755 8.103261362010397 6.326358061614619
Ag 4.143555550846727 3.7760399782428866 7.696165155073372
Ag 3.9650968875049726 6.475955442161602 3.350468558552459
Ag 1.7048279434135993 9.57901734682856 6.402461107856418
Ag 6.400734921175882 8.136254501010104 9.25872698607607
Ag 11.121139117215325 4.929875768172896 6.116693161264407
Ag 8.60786362104624 9.073271064619123 4.691393592457768
Ag 11.092130668927949 7.393013815399167 7.56034432593205
Ag 6.428269662942543 5.599026203678852 7.7344921542956895
Ag 4.034191461699662 6.394318750250908 6.334137294190116
Ag 8.712184266816061 6.508327130678771 6.203759260691655
Ag 6.307280797962213 10.599209621204572 7.828287927116346
Ag 6.452522278499338 3.043611520693385 6.239471524083536
Ag 3.9410634290200024 8.952691165969833 4.822897375434524
Ag 1.6771504971345754 7.152623288110283 7.800570496111563
Ag 8.812393318606746 4.042461057397844 10.412972385656618
Ag 8.677044098807198 9.05017559843158 7.76122699757604
Ag 6.359309305876508 5.6162624960285905 4.849697369190911
Ag 8.79460161517278 3.8894951267279594 7.580172387804482
Ag 10.880692468566318 9.809671248818487 6.161619296857751
Ag 6.290236301673703 5.6449788802644685 1.9926468376078568
Ag 8.63738278654024 6.594901504790951 3.223063571366551
Ag 4.112614819949703 6.465756634271609 9.299196030557292
Ag 4.036728241917374 3.939679730504113 2.0394904295621488
Ag 1.7553953277821235 4.750176508440911 3.5399022899198247
Ag 10.93072810053726 4.968485659874631 3.3232548503039814
Ag 11.008230542489917 7.410619379217714 4.706463811911504
Ag 6.525833803390778 3.0161975049571668 9.065755624013216
Ag 11.041957723548048 4.944494539292447 8.914442489563637
Ag 1.9114217636658095 4.705362627673822 9.137900330408588
Ag 4.258853454642011 3.916277396505872 10.527688040586641
Ag 6.594630870726474 3.1543582341721086 11.851404164091523
