48
Energy = -103.73815287 eV
Ag 10.501765552599007 4.387705544224661 6.527688464876845
Ag 11.449569695573443 6.823307245477799 5.250641203651626
Ag 10.467104693926437 6.8453913831275 7.923665546458217
Ag 9.002163403324115 2.7001326675622366 4.869786939096967
Ag 8.502988870918204 2.5042383961988426 7.626185554759511
Ag 9.140266396093672 4.731340734478432 9.128300794306899
Ag 11.25509154180756 9.304962211283447 6.752749839642162
Ag 7.418351290783041 2.9076612795541372 10.307603397342774
Ag 9.569309521508247 5.30073320371269 3.887843851401512
Ag 7.826199746801313 5.060242251084726 6.254180330554508
Ag 9.009017446842126 8.005668719845096 5.819306913459309
Ag 6.153369985697218 1.343210998872531 8.393154931489999
Ag 6.168060211099997 2.702249316871329 5.882603795758758
Ag 9.02813721343424 9.275320367127913 8.49508730408817
Ag 7.992942327490583 6.01843509863085 1.527450797832273
Ag 7.181327136337663 6.912268815522214 4.143759730022234
Ag 7.002041600778403 4.090307178987417 3.4561819329131476
Ag 9.33079770152438 8.069666345288505 2.9253716743587783
Ag 5.7621449583961635 4.480712947503135 8.176142795084766
Ag 8.799994873261355 10.949390275098162 6.246450065309529
Ag 5.232232005119374 1.3545315876918975 11.038334529338202
Ag 7.419409918781095 6.923809922205594 8.285241910080034
Ag 7.1386725609306705 5.644742827752333 10.877694875261225
Ag 9.34572348027475 7.2084350233908445 10.502594326523528
Ag 4.771955528174106 4.132043732923196 10.880666694362507
Ag 6.965778275525871 11.175280827353662 8.502551680945055
Ag 5.153814280685378 5.314074389399407 5.262467738550579
Ag 7.543652340601147 9.962438767859746 3.945683744568532
Ag 3.676607087296732 2.444333641976585 8.968142930206053
Ag 6.990907561925114 8.817974175183906 10.354438276889447
Ag 4.176787541809058 3.3895180166981524 3.6222296213580303
Ag 6.450217753858819 8.50810576292448 1.8755167374801127
Ag 6.585091824843768 9.147474369311855 6.520989960080152
Ag 4.700388787436333 7.96122492400244 4.480052346426983
Ag 4.784314523414303 6.862012695346903 10.018728466450964
Ag 5.2419116865031485 5.93002363510723 2.2305278843499092
Ag 4.805956062770036 7.179291096351661 7.240264379927644
Ag 3.4202815215585822 3.5217281334887423 6.423293722857605
Ag 6.166872098222228 11.770587162184054 5.568105089712819
Ag 2.956972211487944 5.151483832945167 8.7429984974143
Ag 2.8188077677859074 5.965016461598202 3.4975645803779414
Ag 4.78987175879667 10.514933873149097 3.4159896674710266
Ag 4.7672594705802736 9.505007190614851 8.812755125725142
Ag 3.643997153535326 8.320939490159486 1.9378333807398658
Ag 3.8724148750160015 9.982392061986863 6.188092281707757
Ag 2.4658214755394443 7.930328733927305 8.537971796581369
Ag 2.4057592976325273 6.281274396531244 6.1916000265725835
Ag 2.0446789675696797 8.571300851023386 4.3772745899753955
