47
Energy = -101.20580934 eV
Ag 9.827934804978206 8.351691534338064 10.829179197158782
Ag 7.508133230522767 6.9223582089892375 11.667682462746868
Ag 9.472335374270537 10.589889274026111 9.153784694576286
Ag 4.9227573013833466 7.6281633383758685 10.470838786869688
Ag 9.493874058000854 5.735181278247693 9.939690228754987
Ag 7.3378041528572915 8.708115045323357 9.285429513500105
Ag 7.753497861172321 3.9340577785119186 11.267049721600554
Ag 4.669206570879557 9.92966447119088 9.01580099926459
Ag 11.977358494508687 6.788147614606711 9.518236194948647
Ag 6.922445947659421 11.502706980857058 8.467572965936487
Ag 5.243458598710721 5.151794463556783 11.75219390555973
Ag 2.8057514692465153 7.852663827617055 8.486856484872112
Ag 7.892965915781784 6.259279906167853 6.877169148157579
Ag 6.7066700847615515 5.7011162923122995 9.352890957593676
Ag 9.993702623954684 8.065826070305931 8.10803425857163
Ag 3.906301301912942 5.28937031296493 9.225147204903811
Ag 10.63345480934924 5.441957006984369 7.319625358351568
Ag 8.354798525779332 3.5758939529902394 8.541070514212924
Ag 5.594976909850366 3.0295890434714106 9.576821880505396
Ag 5.421149762609817 7.462748874585205 7.5161412232767715
Ag 8.345689034198084 9.838105787175728 6.647221845005192
Ag 2.691988250867284 10.244818865177141 6.9941046528162065
Ag 4.319895858718338 12.401918585479004 7.772100761704166
Ag 5.508484665859693 10.346581289782003 6.340035065326584
Ag 3.4320169046623255 3.0452960691092157 7.5561857087243745
Ag 1.2653243009189032 7.841527600899038 6.014163878677699
Ag 9.814280775544516 7.667803419431715 5.373119601566791
Ag 5.964001852900047 4.055012468629215 6.991997754913953
Ag 8.921405244218365 3.729651795145127 5.871106146189177
Ag 6.744477720693413 8.294154954905139 4.951426217029981
Ag 3.8371486903940393 8.320174844133518 5.322409240737463
Ag 2.9530782554649893 5.689878859964563 6.699170494081283
Ag 10.88014341225286 5.225594121832026 4.455507700366549
Ag 5.400724504701551 5.91551844865478 4.994547527995224
Ag 8.084445151723687 5.775552612214291 4.041461254062634
Ag 8.83690358445045 9.64844394985715 3.744181080163724
Ag 1.3083437125994664 3.8750643599427756 5.4304368908478455
Ag 3.935198662609527 3.5854727775358426 4.80651501779898
Ag 10.061506024919588 7.317678438142254 2.557725640348662
Ag 6.644279068688486 3.2978372806748846 4.3171757964978905
Ag 9.190424230331697 3.3474432759845065 3.070686011135551
Ag 4.563232813994492 7.5387627022530435 2.783036225306841
Ag 7.283641660283894 7.759318476544953 2.188990828227174
Ag 2.4728227030091787 6.083159966770992 4.017477790252734
Ag 11.136750996018758 4.827683247574541 1.6670082136995212
Ag 5.872503903052183 5.137076207847887 2.3147010170289914
Ag 8.457367220800128 5.401786953805612 1.2110415726738246
