49
Energy = -106.289554 eV
Ag 10.347279884952853 6.333128173256798 10.237129487241125
Ag 10.368298660882767 8.377063442030055 8.399077628214211
Ag 10.962233453381238 5.500784511213841 7.715469483431216
Ag 11.753691703248432 7.681132310283733 5.992163351843609
Ag 9.172243583467607 3.8465375153962316 9.226999844934017
Ag 8.228968956005623 8.196611296192149 10.280279374552226
Ag 8.011567073459556 5.468038706469548 11.327032958754462
Ag 7.604695403621214 5.961362199483349 8.429101016015602
Ag 10.838862930376521 5.25355565855403 4.7904745298521725
Ag 8.08478832973766 10.055427101578639 8.178002668797209
Ag 8.785388529265893 4.097876001436996 6.401500475314152
Ag 9.86751127860575 9.737255227643862 5.9576239995757
Ag 9.84325950375725 7.709827566791134 3.745804808292066
Ag 9.035562896250445 6.930193230159518 6.259367885814032
Ag 6.343726638585947 3.801271888842764 9.817417113471208
Ag 5.721513826715455 6.763426641224242 10.42215252765326
Ag 6.3705642202878074 6.167330661877583 5.776166050889256
Ag 8.175543367576237 5.205817692604491 3.763635791332301
Ag 8.578871812228478 10.181479414802746 3.4459595625040293
Ag 7.17352406597566 8.889789854298371 5.635492801581074
Ag 7.765034267975479 11.63108897882886 5.724740161848889
Ag 5.477022639382202 10.623683237451784 7.071816697884511
Ag 3.8319759405673466 4.648672189236125 10.648438014272495
Ag 5.8637940417132395 9.697434669151347 9.879383274283974
Ag 7.127514220173736 7.789411454947107 3.019136225025038
Ag 5.767384955542502 10.282210623557692 3.6775842792032627
Ag 5.584130961598141 7.91059610123899 7.831150823054419
Ag 7.753081623412871 2.065648648035395 4.733838263578475
Ag 3.153408274223843 7.154569113424768 9.415319889996097
Ag 5.646319419560933 3.7623098455563646 4.547058443024452
Ag 6.4542346572741165 2.918076501875554 7.176518767137433
Ag 3.9499399934966077 2.6591915663035812 8.524453296237182
Ag 1.865998614648078 4.746216817889827 8.678978002610574
Ag 7.13168912023941 3.1333721305103333 2.1242482385908423
Ag 4.679923351283848 5.266811200190293 7.8767534243165365
Ag 3.0523518406884986 9.354535662460187 7.766780463014418
Ag 4.255648925414244 8.590674984340467 5.364840221575927
Ag 3.8884874921596944 5.861426869631684 4.567951202452875
Ag 5.696123871736982 5.545781822231808 2.274413338940821
Ag 4.37026763718392 7.997481083691979 2.5779292395085296
Ag 4.288429235013443 1.589990026605484 5.820086687909284
Ag 5.20875334017453 1.3750485785004272 3.1763319448682736
Ag 2.318264831779499 6.778643018901743 6.703078767501124
Ag 2.723615440194962 3.8271655583217448 6.250232795419897
Ag 1.9203064167330557 7.737171526102271 3.9586868903727535
Ag 4.387421198661393 3.323640207368173 1.2664800834415266
Ag 2.9572116336101932 3.0782558904685096 3.592813749607391
Ag 1.1396437695221138 5.08654346122746 4.358424627755239
Ag 2.8054160232250958 5.574661354439578 2.0170362656609266
