41
Energy = -87.81582915 eV
Ag 3.8486287054337778 7.279567581089117 10.168504657543693
Ag 2.4575708223408634 9.05138743385621 8.382832479124525
Ag 5.078009706091528 9.563143780125205 9.11856597377708
Ag 7.838664055057257 9.838740812250684 9.544765422630112
Ag 2.4293288277884892 5.049100901234674 11.056222235722045
Ag 6.641040130508103 7.372142701312283 10.202758287395536
Ag 1.8073725892766774 6.22296294960876 8.58863335995213
Ag 6.804443355139656 10.960478043451447 7.229799752278807
Ag 4.403964101994437 9.868131571245419 6.349538797557181
Ag 5.286490334154109 4.897617372606871 10.726106429530574
Ag 5.37528558251286 5.8342402600465375 8.069575536595822
Ag 9.248233829084358 9.499939019354986 7.0511714701694554
Ag 9.261120071619205 7.4987702743739275 9.1588647533316
Ag 6.713601413510878 8.140322539040461 7.286865635701088
Ag 3.5254509426974994 7.23575184774476 6.531418032625989
Ag 3.4381078470177835 3.9049039031476385 8.710937137088742
Ag 8.06470344304346 4.937539366982985 10.082375022405431
Ag 6.901872542311752 9.603575876070803 4.7153042053359115
Ag 2.1889291076364095 4.72252956403979 6.320281275060834
Ag 4.52471728046122 8.275904164759472 4.059959551571642
Ag 2.366069363620358 6.454356453802832 4.129298260933862
Ag 4.728888411602165 3.547905876574055 6.197615221856769
Ag 8.596195534196603 7.439365559344763 5.231013849630504
Ag 11.122007978653635 9.119509727374577 4.952279074351667
Ag 10.649901220151923 5.130512784369939 8.771377828473316
Ag 6.908786421945192 7.415320007963186 2.7739535172327368
Ag 6.033857796154463 6.07815221597237 5.283524015618485
Ag 9.058972233896974 3.0145838721503466 8.085721771276338
Ag 6.295730708126269 3.234835867107687 8.535394205112894
Ag 9.278032759945493 8.840901073619325 2.923475086034711
Ag 8.124118458896167 5.627679836154925 7.326209970380373
Ag 10.870181426674334 7.087564212468351 6.830415259370043
Ag 3.1089329037506412 3.77209797003805 3.865003091317534
Ag 10.17491806090042 4.480610101222172 5.856858752209619
Ag 10.813258968470073 6.552013739404526 3.8558298153541193
Ag 8.364652384346979 4.994856525459005 3.733321457117658
Ag 4.609567149892585 5.841446462607964 2.641314198195143
Ag 7.506213234161122 3.225746048466332 5.822342457005918
Ag 6.92787620451322 4.974274386729903 1.3205727092677215
Ag 9.286905250095451 6.470132021865751 1.4455610404308576
Ag 5.914701324210118 3.6009322988301373 3.6082241154984254
