48
Energy = -104.31580608 eV
Ag 8.0170880480486 3.6625746894840634 2.160785207605174
Ag 8.05264229122381 3.0067180700386507 4.84036222497752
Ag 8.17103293562924 1.9441679242887184 7.407400260122136
Ag 10.377802249697183 4.056526053636157 3.507096470896465
Ag 12.507588577839291 4.754739549669372 5.1549237735509195
Ag 10.55994749497484 2.9887552803653032 6.275734520705317
Ag 9.116124064597456 6.320785464482472 2.171961791586687
Ag 11.486880870236934 6.728105804026592 3.5426877006144935
Ag 7.14764847310539 3.0864798555659347 9.75685386888931
Ag 5.478353398068257 2.821792492498181 6.309575663177442
Ag 6.375472180095935 5.800263267682013 1.510910429476849
Ag 5.545974456077377 3.8884074648625413 3.6292985953130428
Ag 9.579874053097697 4.098965722490907 8.804358959808281
Ag 7.399646254844031 5.8205513424894715 4.351181534697073
Ag 11.881581131682854 5.268104611262367 7.768823188065619
Ag 7.440404184488874 4.62384308060782 7.164514476694792
Ag 9.784841638482577 5.615254077273765 5.828056052651374
Ag 4.5944068749899465 6.681207265080901 3.499831505067028
Ag 2.976215021865107 4.418543745355866 4.486810198444569
Ag 2.9603439518174293 3.75809273534759 7.152562953189891
Ag 7.045363422873758 8.247841429709439 2.7849470661647664
Ag 5.008697823248637 4.474316619275972 8.822704905686063
Ag 9.25554285753702 8.143562548587834 4.495103203557241
Ag 4.872477299883834 8.106956561931515 1.0800763629226804
Ag 0.7900003673024487 5.467152820002727 6.847660033235365
Ag 2.4440781173080164 7.022087548747383 5.29840485174778
Ag 4.9968487702254185 5.629983717467269 6.095617339143697
Ag 7.305282654471398 7.3708134197037865 6.773356899115407
Ag 4.644955412575326 9.576644701664144 3.4843316577481764
Ag 7.336105711966304 5.911349787821851 9.731082903307682
Ag 11.525692358660612 7.710766310056218 6.2311322761931995
Ag 9.689114852420786 6.924907961887573 8.386083839194317
Ag 4.755661242740758 8.418364327425289 5.969177726239184
Ag 7.099406033970774 9.838351632229045 5.074732922889425
Ag 9.174965885936656 9.386498487812833 7.082345688654666
Ag 2.447991199496538 5.724438984848708 9.103733942837597
Ag 2.2793398118245554 9.80074656370261 5.703676865999439
Ag 5.009326089435395 7.35700195158852 8.566591416492304
Ag 1.5453176135626459 8.016197351587081 7.772950614933331
Ag 7.96086204196913 8.703398672290932 9.624208437431783
Ag 4.708299421822237 11.223379544150408 5.84974658611352
Ag 4.469835887178151 6.097904265800311 11.033886846502957
Ag 6.369198471694193 10.016494390755726 7.827458737748364
Ag 6.61154875886392 7.681695974107236 11.79924198586249
Ag 3.549990544361873 9.963435306916912 8.195720550988874
Ag 2.7294730399610017 8.252121009746446 10.306603309459927
Ag 5.227973098979353 9.632612496195087 10.404864804691305
Ag 4.084429466981751 8.348743525594463 12.72247525772034
