46
Energy = -99.44564985 eV
Ag 9.665761648770303 8.559316597123173 3.1065988371934568
Ag 7.064867326379861 7.481870961035211 2.8378973452037046
Ag 9.356880158961994 5.863160477547789 2.753667121484216
Ag 6.715264693229332 4.953730982135503 1.4585529715760481
Ag 4.467992958168627 6.691976693978607 2.21542445017914
Ag 7.553669891504011 9.717990952921733 4.576237788441973
Ag 8.879149138968378 3.1700001418355286 2.6113454189734893
Ag 10.25438076791851 9.927029843667924 5.420794334659808
Ag 4.959242259019654 8.957119789172962 3.9411187001996666
Ag 11.184195021671266 6.977279852961733 4.942778414053619
Ag 4.326891138247494 4.004724182144904 2.9793084931408425
Ag 2.381369683368903 8.103483304513606 3.5016843295648994
Ag 8.53288620686392 6.77993401156225 5.3807373396236216
Ag 6.333727782024355 2.1548367666410684 2.944568739163368
Ag 1.9975107935062262 5.404938420132021 3.1090489949925684
Ag 6.890115717653564 4.831284964635021 4.11411624646306
Ag 5.41674304820358 10.392540385093143 6.760405621581462
Ag 10.112612876938154 4.222898656356155 4.8807131890102315
Ag 4.251163955304322 6.024802808520036 5.098815648882018
Ag 8.185401973665433 9.744695177521658 7.280962753044695
Ag 10.650393446835244 8.22995096779141 7.555285884680746
Ag 7.98246518840721 2.3839936551060728 5.218427067414942
Ag 3.2752375126853113 8.50584238773963 6.174058646703054
Ag 6.910548009948277 2.6667923965302918 7.898304273978289
Ag 6.462252101724149 5.164397743395988 6.834000642539086
Ag 9.051758454304538 9.062210644485935 9.856614348439798
Ag 5.195367403159878 2.916459984456032 5.457811887173453
Ag 8.142133624574397 6.942908447408669 8.195448452222783
Ag 6.263767528629652 8.808216509039777 9.172230663101717
Ag 3.548074336133877 9.323116461700598 8.904983011572817
Ag 6.099809046186578 7.829974591176105 6.297369893976216
Ag 10.50471355011643 5.459296795055864 7.310363797930721
Ag 4.313934882339716 6.700938406143657 8.220884792722238
Ag 1.2428697187315043 6.548845160008493 5.533590211941609
Ag 2.4707752185806577 3.9447812631101478 5.5333658986315895
Ag 10.387102331091201 6.601004488379316 9.896117630188714
Ag 9.719082543245118 2.7403231384340145 7.324051844212753
Ag 1.065034590941581 8.105983022920045 7.845791843215879
Ag 4.155430195210629 3.794829163971015 7.8535371141288115
Ag 7.648655267952902 6.82086769071292 10.941183020400192
Ag 6.0459598054061106 4.914187747599536 9.692168490980173
Ag 4.863086685277765 7.214366202815122 11.011171352125213
Ag 8.732025970907573 4.390254156196379 9.30488593060212
Ag 2.162784747394178 7.30126178746021 10.205575459896627
Ag 1.821022073650118 5.378708786992049 7.997945221601146
Ag 3.3518226132782343 4.839057733750007 10.375111277648235
