49
Energy = -106.84368481 eV
Ag 8.83950868514962 2.0028655529856256 4.017100292410173
Ag 6.180508810213647 2.752286736979475 4.4570030834176535
Ag 7.790517178321369 2.3401134176552207 6.7658465033966575
Ag 10.539112040784534 2.8244396026663665 6.007185334597707
Ag 4.898509753044515 2.7448617966401265 7.108879557283422
Ag 3.481630519053441 3.5544069718302045 4.73301940245116
Ag 7.915892587725562 4.047209791743978 2.395835487979299
Ag 10.6170327473959 4.487726116354272 3.5783459974152887
Ag 2.060268265514598 3.1474790249957323 7.098922797912873
Ag 5.0534212566143175 4.302534662940216 2.3626813081974216
Ag 9.443417797313481 4.320473169676086 8.078022296524516
Ag 2.571127337445245 3.306465616243257 9.747249590415432
Ag 8.39436562710113 4.6530653475668995 5.147997765073589
Ag 5.245604551613759 3.9056170835223125 9.747047441019125
Ag 5.559034110405017 5.49029229519502 4.844943599828905
Ag 11.28315782764633 5.431614106436018 6.3254580352416925
Ag 6.688596433774872 4.8742366403495145 7.461358000902584
Ag 2.547286604296218 5.55853405336894 3.0346830744433344
Ag 3.869917652948457 5.440192160505739 7.253800701728825
Ag 6.799708800126249 6.118348100337744 0.9865406315224442
Ag 9.788377779791269 6.910818564385396 9.349176479666106
Ag 9.315050373743789 6.492588977230338 2.0262865955636973
Ag 1.409021707089481 5.656732858507181 8.568349344881867
Ag 3.181591628007807 5.796845265626289 10.811217603269311
Ag 1.3888316276740034 5.350604441450524 5.6460266377850035
Ag 4.78193885724989 7.155056405072265 2.529880436989683
Ag 3.4171227635152537 7.368910312703618 5.013755990422354
Ag 8.652671580658572 6.888898174693157 6.775282815790584
Ag 5.764101578908446 5.719604972674376 11.95022659239595
Ag 6.96161837720303 8.800288293333155 1.8454811746871846
Ag 5.5120586481999 6.613910659366846 9.279254227644307
Ag 10.571726898131086 7.249250401212948 4.440877830705964
Ag 7.773661869930383 5.139699425783367 10.138646249109193
Ag 5.86412196619779 7.584084023461239 6.636776149449992
Ag 7.628285229304798 7.372221735522192 4.169479731857402
Ag 4.640699078515939 8.267952178654365 11.369260946173473
Ag 3.0227713627778816 8.009629103147844 9.034001720111043
Ag 0.8069909229335668 7.565376623188038 4.086490301599605
Ag 1.362206681782469 7.928757298705395 6.858574322548287
Ag 9.552826202592147 9.206588558147939 2.7902402192312583
Ag 5.333219430491427 9.268510316978903 4.229704586288774
Ag 11.069361473266728 8.147474045231574 7.146576815798052
Ag 7.489159423270027 7.980090289217508 10.74436537529926
Ag 3.8456727670265654 9.518490981134043 6.76513366333528
Ag 8.484999911746456 9.219450575807237 8.353659664250594
Ag 5.704026000324627 9.38258093168734 8.946370009331579
Ag 7.555838701859517 10.860294024633419 3.8098163128555154
Ag 6.669554686309434 10.346829230728133 6.470498550739052
Ag 9.236347564478129 9.549043244164524 5.58660387966892
