45
Energy = -97.06725321 eV
Ag 10.603265625718624 6.606360360490299 4.901221664272082
Ag 11.939100840939954 4.311129097916058 5.932175368820427
Ag 10.323803714993776 3.222471644659812 8.01239797556525
Ag 9.21556520381866 9.055726165163176 4.370904045672752
Ag 11.012173898041494 6.066785624378393 7.871238304227728
Ag 9.31706670736559 8.114599714199676 7.049455004837997
Ag 9.041665075761479 2.034119177863289 5.595178203216531
Ag 8.568224008489153 10.823827905883627 6.540081288802892
Ag 10.338766896038585 3.8980641659807094 3.762149836802846
Ag 9.705679500440905 7.721427333868746 9.80125765867015
Ag 7.641658988938158 9.484234897051065 8.879048668924167
Ag 8.700002290927177 5.991368715449172 2.7424358799424318
Ag 7.02129878240463 10.831758741971717 4.115606344544371
Ag 8.604608060759393 5.290319505479743 9.108465948215699
Ag 7.645743824413277 6.906893081905069 5.07274966710165
Ag 8.993580035290751 4.777402578707273 6.207523704080266
Ag 7.42823965818337 3.037369975526802 7.839574696707173
Ag 6.923961766808193 7.260534028627273 10.478967141810248
Ag 6.677799948485326 6.8632761432800615 7.699674169201452
Ag 6.974835733825774 8.332098322047358 2.7770548679454
Ag 6.156165568789337 9.482779177754812 6.47489871650983
Ag 7.592864967244968 3.535462220622978 3.70583687412901
Ag 5.873966102920453 5.704134911898224 3.092423012791212
Ag 5.49567703549854 10.398880292249782 1.7052568022435957
Ag 4.474543231467662 9.620990303125096 4.159243003134632
Ag 6.094640928427575 4.675838568339375 5.913566184610854
Ag 6.1416642813481825 1.8879998744690083 5.547334980052551
Ag 5.865183259043888 4.7820825239098435 9.518886316985148
Ag 4.902320981112697 7.153034079316779 5.452208102704867
Ag 4.93139434918243 8.759753738832847 8.957816775020248
Ag 4.571509213057412 3.0970580129345358 7.682284101409131
Ag 4.830957241188965 3.1388702078596107 3.38650109359811
Ag 3.232221027769228 5.252929052945777 2.299797195662558
Ag 4.333861378997609 7.830659234573278 1.9604153501536936
Ag 3.8437796165894587 6.073758747498094 7.892515229934294
Ag 3.2792393657449677 8.97667170527466 6.657008908259912
Ag 4.117437767176419 6.769685865880256 10.718383114746358
Ag 3.232545958239989 4.888316664548786 5.084392426034607
Ag 3.0988054466250783 4.229189689518709 9.879577812368062
Ag 3.2201574872342613 2.125144496246393 5.494955813887442
Ag 2.5206849814919057 7.486845862987879 4.102329711081069
Ag 2.210010404496086 8.1810194718964 9.153971076830633
Ag 1.875599875560009 3.9167266605276425 7.303216802669394
Ag 1.4721781123406938 6.751784061864868 6.616735859235418
Ag 0.8787400951561626 5.789171648446579 9.151286457460749
