45
Energy = -96.81967842 eV
Ag 8.485536941977038 9.934901310259985 7.581715066713535
Ag 10.64366643550526 5.516623670785953 7.960254180590098
Ag 10.522102422216506 8.091300267637292 6.730147340706815
Ag 8.8865585915755 7.550553140747427 9.035356855897838
Ag 6.230783140046926 10.522681975828746 5.936270979335525
Ag 8.46197710513432 8.904550143526127 4.995639960527373
Ag 8.537544908910888 6.249073941510552 6.32461548670594
Ag 9.087896288243414 6.497470797745155 3.594707288020729
Ag 6.6957582340030175 9.312087064211873 9.643021045282627
Ag 8.861125140560095 3.3889384797039597 7.766347499698347
Ag 8.958369136920249 5.004005124763087 10.240164089036396
Ag 6.25930613844688 9.317227583687211 3.354423810878778
Ag 6.822366904324653 5.434197489464263 8.47752809350214
Ag 9.478832052793772 3.953328369192314 5.098078008744223
Ag 6.508412544946811 8.006104466038652 7.099260975711163
Ag 6.997628917246174 6.872001384842716 11.036620873525397
Ag 4.263945923688384 9.641358733977105 7.913371710935607
Ag 8.760681637216017 8.886578872257711 2.212237476150383
Ag 6.804028841891938 6.830186639147017 1.687319248740022
Ag 4.7637361013292345 8.570442457956974 11.566001017717545
Ag 6.980927368762172 2.935050312679506 9.803730602795628
Ag 7.454874185326286 4.2544674291741735 3.1618664067901965
Ag 6.319108032990992 6.668405680300233 4.50530569026324
Ag 6.670467255746431 4.161111130619621 5.903051337420489
Ag 6.649692109587946 1.6783140313204687 7.337089155206607
Ag 7.352961391612336 1.8104016077849707 4.637695253895096
Ag 4.755096483731287 7.224691722691842 9.214924036200221
Ag 5.0309288245259 4.824647363191429 10.60571069310368
Ag 6.243076203913763 4.032956437973796 0.6215544391739907
Ag 2.3359279454705435 8.279839755679719 9.818055102309737
Ag 4.62283785920813 5.865220621612432 6.669053260422903
Ag 4.6420140886757 3.439060769506261 8.163166784287665
Ag 4.259065622054483 8.582202255208768 5.255321720201578
Ag 4.464285253082666 6.1170508951455815 0.20421447170838367
Ag 4.762969618277505 5.01319789830272 2.8651127896409925
Ag 4.147161802416098 7.715103845435237 2.563994331917673
Ag 4.546272356943471 2.3699345317225458 5.493942451508295
Ag 5.267689354522039 2.2848526628385857 2.771750992771626
Ag 2.435231625923075 7.510736851959225 7.14126206546301
Ag 2.686282210950323 5.3750242127838845 8.938976931305808
Ag 2.7612540408568007 6.205113951768907 4.597321786661427
Ag 2.465296979017517 4.044455875144329 6.385294366294148
Ag 3.5079632671851404 3.4048652301241344 0.8664441217973451
Ag 2.210745984716972 5.678536328768476 1.8537217833229835
Ag 2.646658084897935 3.3441500902039683 3.662209083778931
