42
Energy = -90.7936771 eV
Ag 8.6797520370336 0.7615108471300012 5.192737416375128
Ag 7.680405431903112 2.427420186651889 3.164499769307072
Ag 6.787262805800214 4.169790108051666 1.1249668716616776
Ag 6.419117947454573 2.3888878637049373 5.677296251253518
Ag 7.436110786629817 6.910345880119145 1.271888322060161
Ag 9.052254182416291 3.5038313919150537 5.476960493237567
Ag 5.436898704837863 4.1376750188843525 3.5595315633639912
Ag 8.304006232371373 5.15364155496684 3.312394712642082
Ag 8.315459633459449 1.9256897396333086 7.750760569072693
Ag 3.3669965629776537 6.031688419610779 4.060240446679445
Ag 4.782238583368475 6.160234063365305 1.6322386381454728
Ag 4.1763711482568295 4.057690256386481 6.0878160966282
Ag 6.79415027937424 5.233930267394333 5.913320103416638
Ag 5.628913048140371 8.988468110854782 1.941575528232973
Ag 6.122288822345629 7.157117990844326 3.880262422856524
Ag 6.0389456805558215 3.5587961772961485 8.246167675437515
Ag 8.792951799523118 4.7324531722489 8.03436864201964
Ag 9.423133575709038 6.32629914822334 5.696733161006505
Ag 8.94455289872955 7.899784827080455 3.425310877157605
Ag 2.043021452514052 5.746430657820883 6.623746792929567
Ag 7.98345940436969 3.13789069888809 10.253120405551545
Ag 5.73476226385955 4.83389732246908 10.749988587510948
Ag 6.446849558931527 6.5064821012056315 8.49035446633801
Ag 4.571366459059258 7.0565467836975 6.371553703622698
Ag 7.637878173668638 4.405262166655596 12.749909110527648
Ag 9.630931589497733 9.169989843618511 5.867927694658531
Ag 7.277050840224691 10.06318450286119 4.037227347147891
Ag 7.082798772328573 8.234112236908311 6.276049207986329
Ag 8.385091789647742 5.952101983741409 10.543347131026689
Ag 9.093979423200604 7.564353297213163 8.237729671269314
Ag 4.587046037472947 9.435046013309998 4.539252774261122
Ag 3.8672667348318015 5.334206917415577 8.685535279030447
Ag 2.183041441330665 8.303632809097365 5.456664081043731
Ag 4.612614138597846 7.504457944132438 10.452688427485747
Ag 6.534666360672965 6.964386934251642 12.45282470703244
Ag 5.331412615418421 9.3653856422751 8.431635994812572
Ag 8.660962982807204 11.771836478121932 5.795396180583308
Ag 7.30175218643394 8.603725080656274 10.282906712545618
Ag 8.062055444914694 10.24299040984876 8.086253581609384
Ag 5.985477943934062 11.15340567721458 6.336068768215259
Ag 2.790499041907192 8.033654076559493 8.312453170917165
Ag 3.339831822465707 10.418600784305989 6.8395656670759815
