41
Energy = -87.05169987 eV
Ag 12.197582354399433 5.586956565401568 4.088210005533028
Ag 11.227723910004459 7.261461412751954 6.022431281963588
Ag 10.516440701168309 6.22034902394675 8.611474758079595
Ag 9.715536562831192 3.4136174089059126 8.540498057050177
Ag 11.013791048738534 4.484443170480014 6.362702279370652
Ag 9.469982746343021 5.5180789657741425 4.282909601331679
Ag 7.8262672760290055 6.80703784338981 2.435883804071263
Ag 9.293913305593305 8.546272062311575 4.447868828034842
Ag 6.993837386064012 9.782899000057775 6.10007366811055
Ag 7.201104551457593 6.9611819006886355 5.241612388464951
Ag 8.468449309670032 3.324217965870275 5.919724290160879
Ag 6.5949736130425745 9.140466542847495 3.443555034038718
Ag 7.977573335299462 4.44688466413042 10.48787372814096
Ag 8.011910593852718 5.488626618082242 7.697394547419677
Ag 8.074257582860806 7.288190516591918 9.897990419628162
Ag 6.825319499180319 4.442415919789248 4.014475076166136
Ag 8.999319182951908 8.22815105912254 7.311362535658006
Ag 6.889986708663598 2.989993561532953 8.27541098675208
Ag 5.410778344228437 5.208803900506869 6.5281966775128595
Ag 5.13041470022879 6.445233839114142 2.959943660851727
Ag 5.7849897939795 8.34764984354847 0.949796492738751
Ag 3.568854585371863 6.873366723134868 8.157233602729466
Ag 6.585514845767616 3.8394262470212084 12.788162204621303
Ag 6.426494989374693 6.44965505434169 11.985919228420352
Ag 4.678550333851425 10.6900933859774 4.864268541602614
Ag 2.4516450288174907 6.584212429989692 3.9987727436913065
Ag 4.941946940510561 1.0363865941254993 8.301525218016911
Ag 6.262265129538596 7.726606721237619 7.818506329519497
Ag 5.055508727554271 11.021448537546583 1.9689716524379357
Ag 4.03410064673992 4.220823398577676 4.20166214276332
Ag 4.515846943350461 7.731235972654195 5.490923592419178
Ag 5.361554094440177 2.7930635755575075 10.553132729246585
Ag 5.600117245988376 2.476539672982648 5.8783305124073735
Ag 2.488127451382484 5.105090874586487 6.340589811212936
Ag 4.22374929926578 9.599335818325503 7.5287621911517775
Ag 5.041220190929059 8.179374666686678 10.225070315188114
Ag 3.668171256978761 8.819570618176176 2.819175230185166
Ag 5.5448716228632415 5.455448903508452 9.553469517874495
Ag 2.2575772171068293 9.296563382584916 5.241634947423968
Ag 2.5448740355616177 11.338079695487474 3.1857189044360914
Ag 3.9057849521425116 3.6116739867754175 8.259710507696235
