44
Energy = -94.6064875 eV
Ag 10.059639528701469 3.430503975769585 6.416860019679089
Ag 7.294801007510096 3.1862945807708654 7.27711925074172
Ag 7.945560485290103 3.1161578592865387 4.606550688590617
Ag 5.670452526898733 2.7776338140648784 3.06057727915024
Ag 9.110768135621841 4.98579632097396 8.462529525880145
Ag 9.421631232657232 5.537873565151503 4.718402017828049
Ag 6.296705707370133 1.2025324124141443 9.003847166777009
Ag 11.011876804433037 6.343669535368694 7.021105996635146
Ag 7.423402592797906 4.966254915744231 2.6205911053331
Ag 5.230464136015393 4.5410880470811 0.9016323548675286
Ag 4.85545532131049 3.5688781176908466 8.681726847106642
Ag 7.286871308210566 3.49127244444944 10.097829661530511
Ag 11.341872583704953 5.7567215943323085 9.91956014609875
Ag 4.837954850721588 3.408205453624946 5.746004753055085
Ag 6.460501633339986 5.924206590425972 8.40580274430492
Ag 7.713824469963159 7.488567242540953 3.7371774322584135
Ag 10.229535385587779 8.300391980956473 4.931723498554649
Ag 4.594570690001246 5.273635197890783 3.5144411870779764
Ag 8.70561156971775 5.580842585313035 11.13351489092796
Ag 5.788215507159727 7.181360960381129 1.7283572962502278
Ag 6.635642883303288 5.554376074751286 5.568845855287438
Ag 8.414073778329685 7.358555138587343 6.837976426191297
Ag 4.816095890357417 7.973812217203344 4.250747007466578
Ag 3.8861092934637362 6.095289401462374 6.132601278153363
Ag 10.341467432886713 7.579683766338947 11.984691772350342
Ag 2.4850861026328026 4.104479886392352 7.337913148504208
Ag 7.710921972471232 9.68893023749219 5.364811931377841
Ag 5.748502691984616 8.16477098790962 6.850595881200024
Ag 5.804950939984297 5.723896566455341 11.061414881918063
Ag 9.797675734902816 9.91986472843306 7.23051804922206
Ag 6.3635307202287095 9.819502024848333 2.8639263868709337
Ag 9.759019710996446 7.887377955803449 9.250124651134515
Ag 3.6072173155454514 6.02833156553533 9.195575649410866
Ag 7.6769559005568 8.131406049204562 11.179841420454004
Ag 3.076900794781989 8.858051793582703 6.389828477035282
Ag 1.5030999318660023 6.756695130349388 7.509726237224313
Ag 7.249258817448306 12.180061578054847 4.251745141604536
Ag 5.24109518026555 8.205118366566689 9.846299091268655
Ag 7.446097923637156 9.467437889951011 8.699709944624983
Ag 7.05553389567814 11.742375028724815 7.064350716937143
Ag 4.717603047027229 10.432352272019049 8.174317582089376
Ag 2.5977676180642466 8.692113287296104 9.16622457406346
Ag 5.049751959643975 10.629972253028553 5.344881594843021
Ag 9.90477257184083 11.112506190687398 4.6268260230296985
