47
Energy = -101.07266013 eV
Ag 10.85434510381123 8.297144235351453 4.515065596001483
Ag 10.086824033057072 5.823916435546772 3.2263904244083133
Ag 10.665018941535594 8.147497063808464 7.341160512634501
Ag 8.754911648102318 8.291609221738398 2.4315914465272015
Ag 10.771356136876204 5.775277220747487 5.924003685310864
Ag 10.89888741250979 3.4074002183451673 4.473508837375036
Ag 8.754818393973107 9.907734338101498 6.2554537384186375
Ag 9.456695903560519 10.643524697693145 3.728913681355289
Ag 8.037989838255147 5.827922760397163 1.3106397060020056
Ag 10.488934343023864 8.134269401793246 10.149651101612603
Ag 8.869899539327784 3.375350221505998 2.406924308564382
Ag 10.661780138749059 5.710440894529506 8.76524381251797
Ag 8.223958784912305 8.549866860711752 8.628315610023607
Ag 9.687533226486435 3.483142717876999 7.311708577626871
Ag 8.193831778848896 5.851348077822253 7.401596685854103
Ag 8.293967685829347 7.318156228196151 5.047871613580756
Ag 9.178694198663797 1.479352337759099 5.473366737974247
Ag 8.23075097248161 4.319793391681781 4.950850271332613
Ag 6.171768311751074 8.642718278301711 6.7199334322906905
Ag 6.1796335215813505 7.158587594162483 2.917692319925569
Ag 8.302136715104933 6.351181684076487 10.348478390672524
Ag 6.798902847518681 9.693577124436976 4.139003286748405
Ag 6.186316321191688 4.355805988754781 2.79725265169216
Ag 4.63764566679594 10.834542346241832 5.646458734644348
Ag 5.844620744506687 9.219891010697834 9.88130428963906
Ag 6.932263341616253 1.8728185275246896 3.924916953087859
Ag 5.924874679372244 5.91977188292057 5.6189711485637375
Ag 5.913997623536069 6.678880844302509 8.725675571190884
Ag 5.822474093925233 7.075772801921995 11.667308809928626
Ag 6.955396748695114 2.6087804904130962 6.813402932442747
Ag 4.229414499510435 8.372493538151547 4.498751243043127
Ag 7.235896545106498 3.9345577215883867 9.252509780613897
Ag 6.982857091137384 4.555792442108569 12.014607426736177
Ag 3.8482097529388155 5.705108986481275 3.690943575123216
Ag 3.785468774455506 9.64006891344121 8.057999515399585
Ag 4.830276251830303 3.3246355607171245 5.017477816407379
Ag 3.695370549915877 6.98258382003147 6.984761265828118
Ag 4.809343618032913 4.196221583129759 7.709778545058867
Ag 3.5321606296295727 7.597214320665721 10.032945024610012
Ag 2.060528652771241 9.745518743897945 5.879113718467898
Ag 4.656014933466739 4.84229348547896 10.455318529938474
Ag 1.6940568782639596 7.128113011069283 4.882251900594037
Ag 2.54620194149247 4.597755650013833 6.005688059578637
Ag 1.3949290173389524 8.158298306037459 8.262524050596175
Ag 2.3431219349294774 5.322685290791876 8.832832890136332
Ag 10.89888741250979 8.501283557684165 6.171345271963962
Ag 0.290751263057523 5.929570870694101 7.029673726361141
