44
Energy = -95.06386842 eV
Ag 8.433817650608512 6.534236746815499 9.691527568571336
Ag 6.057009152040668 7.474474411814577 11.15117505220919
Ag 6.186611130779136 2.306236000484303 9.241973528992343
Ag 8.858909561090814 3.647636131629002 9.501826853194677
Ag 4.634685277604049 5.396883376233886 12.452137682939343
Ag 3.8710123325985606 3.493580546425168 10.4284339987936
Ag 8.113862755791379 1.8941395406369947 7.257188087472669
Ag 6.346125998720313 4.794541656133481 10.332619012595833
Ag 9.692071474733668 8.411629650958849 8.087358859238675
Ag 10.171557991963224 5.5776931920120845 7.701682254008432
Ag 5.36158203217023 1.6964666752155986 6.654727313314385
Ag 7.330517863475479 9.234925578390946 9.424848280683536
Ag 4.502043629828988 8.961197278770335 9.186125632712848
Ag 4.608132922941198 4.247188214770379 7.780967063244456
Ag 5.658168086818341 8.56823196329178 5.934283655739305
Ag 12.059480694672699 7.525251349382099 6.9240042964474355
Ag 7.464374815637934 4.612685672155781 7.387193376972708
Ag 3.829482426731701 6.289072753735624 9.948729714383981
Ag 9.66137120151913 3.698055056671583 5.6857636349850855
Ag 7.034248970071482 3.1263615591408893 4.883264377762698
Ag 2.005202813479808 4.837522376110819 8.465513565818615
Ag 10.17447205330265 9.014578737870986 5.370201464389832
Ag 3.4141412852040687 7.149237689172559 7.268021597059046
Ag 10.64465120805067 6.21512449904275 4.942920322949886
Ag 7.90328733629473 10.160807760517526 6.8614369421809585
Ag 8.085705477033066 7.1228437587649225 5.970369781442539
Ag 5.659178935916081 11.246355983682218 8.242987178600137
Ag 6.1146195066042495 6.876578018145795 8.180837885816665
Ag 5.553700462119506 5.610697874152314 5.523521060419837
Ag 4.297951098778746 3.1312361757908858 4.483627859071855
Ag 5.872612353884628 4.62768789730346 2.6908759313555097
Ag 6.586006621342802 7.275560318132791 3.5515248168387648
Ag 3.4610801790991554 9.962831018053992 6.747037719721093
Ag 8.4707070743648 5.096457409901346 3.565373717579639
Ag 2.6801080571435514 5.017092452776638 5.698428289699717
Ag 9.270617652898133 7.76543054081616 2.9681324908095053
Ag 7.722400152203902 9.85154100112934 4.117945516256537
Ag 5.6970941272824716 11.32169229647094 5.466549413285286
Ag 3.5762115918284594 7.471780600613267 4.389755194038287
Ag 7.508978715256477 6.290346092008739 1.0968132518856148
Ag 3.146613538696474 5.131660090052746 2.8897320767820216
Ag 7.153563425950972 9.056395269839745 1.444611114135762
Ag 5.012926692892188 9.625536054427762 3.2776592647104503
Ag 4.634172525857448 7.17158758583484 1.6513621561719594
