50
Energy = -108.98170351 eV
Ag 12.04825807481663 8.193165409147625 7.4370607818640995
Ag 10.804794492137724 6.321280784240595 5.538701967875715
Ag 11.949988516485226 5.462864492651402 8.260276467019294
Ag 9.768380835523564 9.04850538916363 6.169917886513289
Ag 8.440519472851138 6.807191368369352 2.6748348622754463
Ag 11.340478415678458 7.629103069281686 10.07606640034767
Ag 7.569283232234235 3.91829544592541 1.8900951922463098
Ag 8.977205239203375 4.486199817475222 4.318568698401513
Ag 8.014679888669951 9.291025692197548 4.039119929386297
Ag 9.39312690726089 9.690923306444335 8.914557450592723
Ag 9.776541921780867 4.198324454378635 7.0857075056677274
Ag 9.601574360177798 6.9226920450715355 8.023463928207216
Ag 7.967245717019054 6.880879565801039 5.638246300463569
Ag 6.234085310826657 6.138407445630551 0.9299980859060683
Ag 8.581600695542724 2.0604744958273837 5.766318734570337
Ag 7.555389098114741 10.687029549629582 6.59897779004483
Ag 9.620809985286096 4.844158315844677 9.948591948990694
Ag 5.890867577962062 8.291126827469586 2.5928688907196413
Ag 6.257672983397567 5.518187229047063 3.827163092024846
Ag 6.301850238500325 2.6562057212063426 4.059882158495027
Ag 4.6655144983204355 3.960338706618013 2.118354508878081
Ag 6.9489032927549195 4.3330221759918475 6.369321680334689
Ag 8.678402864206149 7.554408787782016 10.660397749620344
Ag 5.736233689980184 10.975040654536958 4.173428804422622
Ag 7.100500530529326 8.232211703570254 8.028458121845217
Ag 3.6406667947962146 6.6669839253507845 1.7746365618211104
Ag 6.087242007302871 8.316190967809616 10.842121579729417
Ag 5.946791435711469 1.727782807719018 6.677987892182021
Ag 5.6917171949032115 8.627978528791777 5.544860321365945
Ag 7.9092099864955925 2.795656713040338 8.628967060099528
Ag 3.506659746738885 9.32661155319233 3.5614113122835107
Ag 6.6524608407081045 10.631799090109789 9.288861413008066
Ag 4.789309655825073 10.961037134346768 6.911354005874247
Ag 7.167146715493528 5.578510868193044 8.857377856239783
Ag 3.9129073457651184 6.72306450228904 4.520931895702223
Ag 4.240123394739373 4.0953060898445 5.607387101602985
Ag 3.4318248507989884 2.065544261525725 4.02260456045145
Ag 6.9234691807913835 5.616914605156161 11.563912193367212
Ag 2.2721849359319677 4.6515088720681215 3.3963636530157495
Ag 4.920050043181348 6.4058803456903135 7.139934918083843
Ag 1.4425938213632348 7.388976174630981 3.4328602116255853
Ag 5.161842749772617 3.6054662862732973 8.607612367028453
Ag 3.2561624816063244 1.9210184057146087 7.1905672180457625
Ag 2.9570801502998525 8.67736507244672 6.311566817547154
Ag 4.415938857795935 8.88847592597095 8.731017968711399
Ag 1.401330495141224 3.319191189506907 5.696282333335376
Ag 4.537667234004328 6.0908783037087275 9.89532765644642
Ag 1.6046566766580925 6.099211148819477 5.966650406338119
Ag 2.613133977531633 4.506764916329482 8.04719825524959
Ag 2.2420691646605873 7.173840053602646 8.573469504350895
