55
Energy = -119.40638425 eV
Ag 11.586247903755595 10.753425084655857 2.6710193376241667
Ag 8.73627285035414 11.45041537796222 2.324651186464731
Ag 9.667227197300772 10.031406727894339 4.437607114576537
Ag 11.303702481728749 5.694417306713601 5.329312471355326
Ag 10.368841296522888 12.761725054105824 4.364203699702874
Ag 7.597353828741459 11.956075070440368 4.907983326598636
Ag 11.718023398230779 8.21873011520144 4.167388495768415
Ag 6.643819509506301 6.983174775716476 6.33901714761905
Ag 7.063716114428422 9.392281368468836 3.6429229383995256
Ag 9.061098864175678 7.339836615420255 5.007873611070382
Ag 5.0039479144095935 9.051183430858368 5.549315085063172
Ag 12.170785022573327 10.852256123546773 5.479947133708609
Ag 9.471322018517307 12.025056830302496 6.98810268906301
Ag 8.744086405560784 5.027181805504794 6.580771627073042
Ag 11.54767640075119 6.290542686029915 8.005323495393442
Ag 6.644733988471551 11.86826275117258 7.7087535724575185
Ag 10.69304468455704 8.799756259948712 6.797436176500565
Ag 5.988974829060714 4.711539797875513 7.704421893082806
Ag 7.747381052313553 9.559259530361063 6.366148832503892
Ag 5.7075483912821845 9.255468398915664 8.211494651321178
Ag 12.765124646400556 4.002752182018597 7.03804282596469
Ag 4.23871278529349 6.990196690143088 7.7719083305735195
Ag 7.898672510134932 2.584713410886831 7.545042891422447
Ag 8.751226481645261 7.291882463333213 8.307752051905286
Ag 12.969808503293038 9.956851981646546 10.941626844298844
Ag 11.044287113908307 8.612368235715067 9.538838127376026
Ag 11.89507686920146 13.309561410770925 6.771781949813792
Ag 4.090248509549553 8.527368907528041 10.322827646821427
Ag 11.895056489868331 10.940623044179214 8.360112845720513
Ag 10.403640597971405 3.4204280762176626 8.35250640085315
Ag 8.141723730585781 4.625161586756405 9.445106317016299
Ag 8.554300424951396 8.336021683662173 11.06379972361449
Ag 6.58931088217327 10.157167150666018 10.659577723106619
Ag 8.735977032816939 10.10790834537058 8.870497310588075
Ag 4.399504721752516 11.42245172273174 9.708268863553744
Ag 12.471072757646098 4.386790035954884 9.887994517357614
Ag 6.288204149034548 6.768094531721051 9.76575341304317
Ag 10.699505134425596 13.217181742165804 9.338149832832315
Ag 13.026885710518897 7.05046340618267 10.643618075104778
Ag 5.69946665746545 13.879560320821987 9.454075895759429
Ag 3.2699632161056034 7.834796488071747 12.848364363050589
Ag 4.449949063812164 10.321675348729247 12.530691992936504
Ag 7.231348164797724 10.33871016889081 13.357156658245742
Ag 10.315375101086707 6.117584327541828 10.538821074146487
Ag 8.111689100583163 12.684070802796747 10.01575653575165
Ag 10.049742152143379 3.5209642717874283 11.292043836273864
Ag 7.872331775620938 5.746084696017601 12.003040217984681
Ag 6.028657644209752 7.878504457898226 12.481258916759742
Ag 11.137469220629788 8.309260130726338 12.394412016286688
Ag 10.278211470421883 10.929721576818583 11.084588499628053
Ag 6.00078464543479 12.586717145321924 11.957176341534264
Ag 8.62620095596176 7.875668977841453 13.804030826127025
Ag 10.362176149173878 5.668239672538286 13.26653030419892
Ag 9.964315441484187 10.391438039272312 13.840989468953323
Ag 8.755945413180568 12.664791231704996 12.691932251575032
