52
Energy = -116.06195989 eV
Ag 8.404756253025443 10.763124466364355 11.868424703048207
Ag 6.1130709558435905 10.763104663382787 13.425830362786684
Ag 10.76317351488705 10.76317115960432 10.324139628439436
Ag 8.372850490388903 9.25274337146133 14.329969939049091
Ag 8.372826719083262 12.273483536290176 14.329995118158754
Ag 10.763133419791119 12.223123702764653 12.742705625194924
Ag 10.763111960690605 13.68464482307081 15.07581101759895
Ag 10.763154072847996 9.303148951763808 12.742661222148323
Ag 10.763143157811454 7.841529074060054 15.075742874716829
Ag 15.636078723328362 10.763205869459195 10.569283918035929
Ag 13.121535065486587 10.763161107425045 11.868475289731022
Ag 10.763122125105873 10.763091932492477 15.281055037963345
Ag 12.24272153156718 6.892833803432941 12.82119969137204
Ag 13.153424328870226 9.252763526291936 14.330010829365532
Ag 14.874956422105809 13.150213213453638 9.190378051344785
Ag 7.793577342767066 15.445394328536043 10.501053118383643
Ag 9.270212710297502 13.122187684826939 10.383884732980832
Ag 10.763131384806984 15.588921652458861 10.48579851403272
Ag 9.283579172839357 14.63345452862042 12.821288553216158
Ag 12.242680288625138 14.633471374078773 12.82132211277851
Ag 12.196133137138721 14.76523620028808 8.103150286262258
Ag 12.256093268250078 13.122190131888672 10.383931566975846
Ag 13.732687019451706 15.445443833195599 10.501110694478117
Ag 14.676691495784429 13.159261533972652 12.00896258864175
Ag 15.413200133334787 10.763161107425047 13.425960427857458
Ag 6.8495953005924095 13.159201691525256 12.008879651050021
Ag 13.153411765972846 12.273508644060591 14.330038366928157
Ag 6.849632458544642 8.367037428036346 12.008822320208374
Ag 8.3922860220813 10.763180350631737 8.908014203622919
Ag 6.651375113388679 13.150151215987794 9.190280613002438
Ag 5.940219141587379 10.763175726856801 7.689851321504272
Ag 9.330194871948425 14.765216540879452 8.103107279502913
Ag 8.04020186425325 8.93836326320951 6.848966141814405
Ag 10.763188911766187 12.285334551368123 7.899301738258538
Ag 8.040183122442393 12.588041830143778 6.849020647537423
Ag 5.890255927089776 10.763133028401617 10.569163530314391
Ag 15.586187173375098 10.763241929499777 7.689966712462171
Ag 12.25612075036057 8.404170451252497 10.383817694382675
Ag 13.486208976147134 12.588084594161378 6.849087453800335
Ag 9.270244733275105 8.404133574758518 10.383769808769218
Ag 9.330267845227283 6.761172891041481 8.10294791231994
Ag 13.134060769161417 10.763211694839178 8.908088009334035
Ag 14.676711349373775 8.36709283158872 12.008901995412712
Ag 9.283617335424779 6.892819867493452 12.821169816551722
Ag 14.874997224013457 8.376225351172383 9.190310843373405
Ag 12.196187438878152 6.761191255961515 8.102996262071482
Ag 13.73275379761081 6.080944714339812 10.500981009179077
Ag 7.793663173170278 6.080903456489628 10.500917024170011
Ag 10.763201878623326 5.937431861063603 10.485653162830948
Ag 10.76321550131461 9.241090401644762 7.899240474503481
Ag 6.651406260498222 8.37616948759853 9.19021969360844
Ag 13.486248599749358 8.938389998264055 6.849026364531198
