50
Energy = -109.09037201 eV
Ag 8.1075690395955 8.79646634833892 2.6916599681653315
Ag 8.756381347326487 6.223818028035334 1.7013056706900442
Ag 9.45177713367839 9.92325434985134 4.9509091396180755
Ag 10.20443979869257 7.281285485586059 3.819568106626506
Ag 11.548022394305553 8.36342970670204 6.066560806204657
Ag 6.027426403369576 6.874319488761762 1.654378887880629
Ag 7.1700527727203065 4.065789742851942 2.4451017511770643
Ag 7.205678394217586 6.480879999682421 4.176759109588628
Ag 9.717073899126751 4.447245132931266 3.654869947471105
Ag 7.207654683769871 11.144783274243792 3.957555651344293
Ag 10.410097056220788 2.8134980131259937 5.901615442252032
Ag 9.804483367804536 9.760425248717874 7.828406749282293
Ag 11.033758495336018 5.577948178796283 5.97776408278628
Ag 10.645636914472131 7.070653155343237 8.399523685210768
Ag 4.744714440995698 5.044407177768216 3.348770730534093
Ag 3.3676451967755727 7.417603221605596 2.552595652153012
Ag 5.464156485703464 8.917899712531417 3.5642793491698224
Ag 8.311404310678839 4.665873117939404 6.130667685112007
Ag 8.754994544155966 7.518358694487297 6.238520969724794
Ag 5.29268928699331 2.3441166619628313 3.6486719324172485
Ag 7.921944263487832 2.3360858266117877 4.627992946517307
Ag 5.08453426600448 10.753647013750461 5.7660100845070925
Ag 5.298755545297516 7.983810847924018 6.186859589245602
Ag 8.197403043680707 2.264218948351647 7.664015082271464
Ag 7.641624528262426 11.274339983871291 6.749263193246715
Ag 7.087931064779681 8.831541155930061 8.06614714872882
Ag 3.3434216857967294 3.5532757731539197 5.353475469789437
Ag 10.114766855952118 4.244366747443379 8.358179132420124
Ag 2.9257441790518652 9.088489387513981 4.896667717936185
Ag 5.742755112860262 2.4963504135001466 6.4100169267947855
Ag 7.864916426241114 6.126862068121333 8.485248898757384
Ag 5.289765552810888 10.910294346736817 8.588656919629171
Ag 3.1110095826184567 6.3188237699710195 5.133128511589638
Ag 7.939165018147743 11.018750168354558 9.611422068097037
Ag 5.646804167637734 5.306202485221183 6.262524872136803
Ag 2.8216923426957856 10.440006192076291 7.392619531349647
Ag 8.885327131799658 8.412441916447145 10.22113589294456
Ag 2.59385921382415 7.69139581113798 7.442367549470009
Ag 9.74075805902673 5.766894143452143 10.719691857180145
Ag 5.163098394196003 6.801299843634339 8.80239631528817
Ag 7.798383191078065 3.806883763246717 10.070010611751217
Ag 1.5959618107046696 5.049426626954017 7.1377468026023045
Ag 3.9843378948351154 4.016685668198007 8.09492789742018
Ag 5.813973474218144 2.1406892735767937 9.219930434555245
Ag 6.112767557111278 9.11685438961286 10.739926078925114
Ag 3.4409685729739157 8.998948960587784 9.740966991513531
Ag 7.031798303491385 6.437210590075361 11.184801356077378
Ag 2.614871539131686 5.95881286775904 9.651456805591604
Ag 5.069200555393898 4.494347123135138 10.602833182507435
Ag 4.345294718247259 7.077479171684987 11.558584831042218
