5
Energy = -6.59791838 eV
Ag 9.447842608311834 6.616716537261721 3.8272952848297526
Ag 7.4473247480684766 6.225237889943486 5.487447404879967
Ag 5.032074068681417 5.6834234498675205 6.661393387788863
Ag 6.654052016092884 7.38122539330562 7.87302594818702
Ag 4.288568830137874 6.973131259238327 9.059333321792964
