51
Energy = -112.81861771 eV
Ag 4.20020654816842 4.099564819864166 10.58844181392939
Ag 4.568563325399709 6.749527609238957 0.8459817750461798
Ag 6.860412230468513 4.956134881356815 0.6525670336591081
Ag 2.096784771741435 5.232100621990971 1.4160423990168263
Ag 5.996327657080895 2.2954442190119115 1.0153131098103265
Ag 2.7507400683058165 2.4522042765228473 1.645165771382394
Ag 7.181010197065381 7.550350001369347 1.86901669220502
Ag 9.415513024285032 5.737496271929407 1.8503190993036005
Ag 2.47966772316692 7.845532779665229 2.5807463601036447
Ag 4.65330363774326 4.389690799324469 2.432512145065519
Ag 0.1468098407074186 6.319928032055539 3.298389444359597
Ag 8.489442199400308 3.0425989427434743 2.163634748957765
Ag 0.8250600828829546 3.485630822959326 3.478694462690709
Ag 7.4963866191876445 0.43518154861327235 2.5729506604160295
Ag 4.586905623940431 0.57544072843956 2.687467363358332
Ag 5.019850799949844 7.112233106389644 3.5903380594187593
Ag 7.235419594079432 5.204770619777022 3.467362135182179
Ag 2.621295407873715 5.520689911145835 4.209885361061975
Ag 6.232584473031394 2.388753785653011 4.01708726683765
Ag 3.3097568288637627 2.520345292245483 4.433563800762704
Ag 8.992042487083403 7.379933832346813 4.174915093805594
Ag 3.6982678638802158 9.367445058381007 4.637232305805603
Ag 1.4100375878076608 7.841122541725291 5.409474530561593
Ag 9.853254479527642 4.559083797905328 4.413788381466383
Ag 6.839538552973017 6.751720592412282 5.9111759246813715
Ag 5.083843638632842 4.679659429807619 5.148195890020801
Ag 5.06725661522768 11.226679971002348 6.082511859135743
Ag 8.941484349469606 1.8213622772754694 4.712286285693645
Ag 8.601466064974936 8.74447809399804 6.677092954991769
Ag 2.9236528954157803 4.312309092777256 6.8374214315274
Ag 10.056103150137382 3.2206824636614706 6.983320907319007
Ag 9.400200089267834 6.013720045134904 6.858619490448864
Ag 3.9944662046564896 6.99312755054897 6.336727245172339
Ag 6.648124404765965 9.272847415122138 4.6022860194513155
Ag 5.112813768554856 2.349877653069911 6.750577329408865
Ag 7.571204149647167 3.906614723680108 6.085876361680649
Ag 1.0105455370429073 2.44774271965343 6.169033126152239
Ag 0.34227052350880605 5.236373640133762 5.938317033143151
Ag 3.0485970508412685 9.343950949156568 7.442518700384346
Ag 2.913559830949327 2.1718916391995466 8.631759460342128
Ag 5.872873989069539 9.046958470221972 7.455653021999791
Ag 5.542637797208794 5.110633045043377 7.885417289089664
Ag 7.711596090915363 1.7720147457512971 7.868220865969831
Ag 7.41534603838539 7.09440353588194 8.725176203146368
Ag 8.1107302598943 4.336100190140868 8.90262204507973
Ag 0.7593570333422506 4.082288371035602 8.530976677566082
Ag 1.8015723769445924 6.722743583719048 8.071398845825382
Ag 5.56887202507724 2.7973793807672678 9.503132605027398
Ag 4.374721850182389 7.400814289166832 9.194902067164298
Ag 5.997820790577816 5.462499412404829 10.58844181392939
Ag 3.3289517013640317 4.779172269246022 9.668209911716731
