55
Energy = -122.013521 eV
Ag 9.273099637821911 3.551689295009227 3.469082226874404
Ag 10.44213472824248 8.16010435464278 8.863706105809687
Ag 5.518227533083587 5.772478433229278 9.099653285753828
Ag 2.421980776107724 7.850602593607981 9.123192831677608
Ag 4.963544026020823 4.592185714165085 11.753428310236696
Ag 9.756829432943661 6.364675544545217 2.5254850728943907
Ag 10.907947869374327 5.463736519087656 7.869198915902076
Ag 7.028615503341172 6.534077638438523 11.59051541606378
Ag 6.43025925184534 9.25407729921506 10.974008593513307
Ag 5.02076881201622 4.975487915004406 3.863134591092985
Ag 8.773765096098337 10.571550134365381 4.338444825680619
Ag 5.822013894264834 11.285735369997251 9.000351337868675
Ag 6.771895047349374 9.883973861370482 2.2361767505456926
Ag 5.075926274327786 1.2790581745397054 7.26861698620661
Ag 2.4881823079682075 4.43560619799962 4.9691049107865695
Ag 9.481974259863431 5.855197891935907 10.31539637936033
Ag 3.291405727781432 8.717531748847641 6.393623323852572
Ag 5.522117242314321 4.101946821038752 6.753056396540784
Ag 7.624901870808712 7.767963620558059 3.9371332916289035
Ag 6.520539747740526 2.75514945916581 3.006622309775604
Ag 10.603671574368605 8.382377696230604 4.327425964464926
Ag 2.963087075654631 3.2379366968949816 7.481769193981295
Ag 9.065140374323235 8.52053595964521 11.26272599299789
Ag 8.470164212838148 10.328707919413311 9.05281324616656
Ag 4.797572898918153 11.176733629813599 6.396221002359645
Ag 2.9013012428979645 5.063321478031112 9.758371046318228
Ag 7.696881358940284 5.076107652724911 5.059553736957079
Ag 7.254045654971798 2.166224177352807 5.545893369133881
Ag 5.023423698120727 9.24747164381731 4.2960163764749515
Ag 3.253743659755207 7.028597996083426 4.202980339883222
Ag 5.261181797891124 7.33770358966786 2.2743522586466325
Ag 8.002636950543446 5.003345654028282 7.94481301292552
Ag 4.267429520969654 7.23963669697884 11.218069745923177
Ag 4.378824946286702 2.388736790716481 4.818760705877058
Ag 2.9284750777889075 10.627610738884153 8.338720429407497
Ag 4.941637937406657 2.937358680995035 9.509172148994251
Ag 7.647914708880479 7.632419064608945 8.926112472070894
Ag 9.676966140548013 3.311532202080384 6.395686076107969
Ag 11.933431759319262 7.700776726419513 6.589820958202414
Ag 7.428687475864273 3.897005129211326 10.618193107163375
Ag 9.024243545076049 7.283240460693309 6.4370601442046
Ag 9.864856457567477 3.269718169664201 9.267708561181356
Ag 7.096337573812912 9.387392990450962 6.513996429204148
Ag 6.333153874660072 11.77532660028021 4.253835697804278
Ag 7.746929460076293 11.990530332981582 6.7945234654196645
Ag 3.781313588150902 9.935576896808904 10.826840680159336
Ag 5.029034447864564 8.5975483021607 8.5276032551908
Ag 7.469802980034811 2.221583319574711 8.342150793176163
Ag 10.770808167599643 5.537209784774984 5.000132659104034
Ag 7.686672221709631 7.586025431931579 0.8962146371998275
Ag 3.2808378359825223 6.029558026540257 7.1106968985780705
Ag 9.55629088710678 9.257243184584214 1.9909123653427665
Ag 7.229625028299321 5.223097307691717 2.1452368906348775
Ag 5.8985645902774975 6.903933824871788 6.259817646530439
Ag 10.04890622766565 9.974770648114546 6.715590821633101
