52
Energy = -114.77146965 eV
Ag 11.791807297192326 8.415422360459255 6.150466010229939
Ag 11.622150829445388 5.686163149842571 6.901674787531261
Ag 11.058241128121988 7.715014830696042 8.870720750837632
Ag 11.95682971700824 6.5461449705434935 4.100869197621743
Ag 10.966144535489867 4.906721537522205 9.529321281116747
Ag 9.301457574210529 9.048730659471262 7.06712628178825
Ag 10.18305760834812 8.942649766554627 3.7365714797525
Ag 8.857671326989625 9.190567353033227 9.840367931926139
Ag 10.484911553603759 4.278327619629429 4.735406406610571
Ag 9.943521440695243 3.411997142099288 7.449920362663315
Ag 9.433459735469762 6.869501324832159 5.363749992768661
Ag 9.19138443580797 6.5329741376836346 10.884092764247686
Ag 9.589615091318189 6.265501248283515 2.572242422381876
Ag 7.183670917137473 8.105516911779565 11.962616679530942
Ag 8.26515136360689 3.869634661712492 9.66814069725794
Ag 7.852290255414202 8.516998894417803 2.1220883942921245
Ag 6.708863334868627 7.3747818046698805 6.459533097595106
Ag 6.940445314898173 10.111134003534564 7.809601834137064
Ag 8.793669002644753 6.212587932102917 8.094044531938957
Ag 8.887829229339266 2.0243170102870343 5.303763382553054
Ag 6.366801921116461 10.413432931770004 10.519032542034296
Ag 7.567644650328341 9.384968050798644 4.766789289545232
Ag 7.794257583547988 4.6092323091681715 5.903068731893775
Ag 7.185606214580913 2.3502659479770376 7.589431565981403
Ag 6.505973377196048 5.540915732114842 10.998816905642556
Ag 8.179756076686575 3.8598596733044146 3.169091260279076
Ag 6.060984943513155 5.190971462412054 8.119685966256304
Ag 6.373151381184797 7.780994339723642 9.264922271727347
Ag 5.47883182359419 4.317885366766341 2.707324563401001
Ag 5.186843259742997 3.183579545624126 9.615308193600464
Ag 7.042332855825546 6.401707928044464 3.7819598844167492
Ag 4.436475717136433 8.392347825577554 11.219261579883895
Ag 4.938144661629894 9.800247562416182 5.98789010471369
Ag 5.4127732072298835 9.699262033115359 2.91777648587778
Ag 4.479006762494668 2.3260195368454073 6.914194848500914
Ag 4.246363189387232 9.914568266078296 8.73305616118574
Ag 5.381021687409074 7.000237630111718 1.6632927962696054
Ag 6.217884595453659 2.4540090037790194 4.739206823826397
Ag 4.028971510232764 7.175910064790711 7.358792644678855
Ag 3.960075234073089 5.93556528550733 9.983757784762764
Ag 4.849975884494657 5.013586120922316 5.512634444655996
Ag 3.033241222810174 4.434612884389463 7.8881784356355205
Ag 4.476439872463314 7.571408418125103 4.429718579211378
Ag 2.2395376955734165 8.115214948760784 9.486719122938188
Ag 3.0286423468734447 5.56188305749421 3.0451139855175984
Ag 2.8538459162626166 10.03170249913178 4.208202253652255
Ag 2.2227402406764614 9.2846661840949 6.845643927098612
Ag 2.90378722090786 8.197007414352283 2.1445210427716916
Ag 3.500162155265964 2.9362755718992974 4.250600558389993
Ag 1.2248328136804696 6.635548497145386 7.363632457114664
Ag 1.8304907316198176 4.7818321254682745 5.433608758020247
Ag 1.6133989622490919 7.490296017703205 4.683641707734599
