50
Energy = -108.74477942 eV
Ag 9.724174833963563 2.9137962309032397 5.284988571011305
Ag 11.097673415565328 4.131865174418918 7.293173276809773
Ag 9.396987876847364 5.693451566731474 4.458877201320683
Ag 11.96637796917827 6.511588151207366 5.928018206011553
Ag 7.477101062765126 3.5634082921561068 3.7620523501575946
Ag 10.195418731110815 8.504757641667553 5.028613046449316
Ag 8.323962206339676 7.88705611834599 3.020003979780829
Ag 8.120576752161544 5.384006727191395 1.8557921716049246
Ag 11.359069655820532 8.844280170371878 7.565415409808321
Ag 8.295505233086061 10.480162390303546 4.154382210563244
Ag 5.863090098219854 7.064781268081951 1.7741714828312163
Ag 11.941201625540899 6.3459437162178975 8.829395311898168
Ag 5.891512866059371 9.15134100871191 3.688062025424485
Ag 8.690691713054571 2.483632839706608 8.145556027026567
Ag 9.614784020709468 4.779689135635919 9.52316064665767
Ag 7.240343175099879 1.6866337296934826 5.832368200218422
Ag 7.73170319336879 4.520925809415753 6.491148288218052
Ag 5.837499624193391 11.90512177490764 4.0800783073366835
Ag 9.551438959967717 6.604563706788217 7.199981178334764
Ag 9.35301255555621 10.61699777087351 6.693952148832557
Ag 5.025878032664743 3.4237772301883944 5.13223246891589
Ag 6.195922173946711 6.048334261990843 4.382116545506763
Ag 7.540460359979378 8.02188352858735 5.819341615778984
Ag 4.341199500292261 4.775820172803374 2.7290164778071033
Ag 9.943554940793627 10.458335663775166 9.452058946217667
Ag 12.104771715984446 8.826018780004901 10.242534243875706
Ag 7.288565369185486 6.394456874139315 8.865245442462458
Ag 6.947433394805681 3.914479005986245 10.0523173380242
Ag 6.026227391366443 10.52266173880981 6.510933080141736
Ag 3.631987182511698 10.302025699396436 4.876993392834723
Ag 5.72378937052484 2.763832088364822 7.864532931327535
Ag 8.186252121906332 5.908011920813249 11.64300768976977
Ag 4.711046738587764 7.955669635534349 6.069701820878986
Ag 7.659794949123929 9.114519214045288 8.35254401457892
Ag 7.652278721523799 11.88264097797803 8.56214752656471
Ag 9.629447828549281 7.680757005740649 9.94624465871716
Ag 3.6171049567393903 7.540393132011556 3.32717549832521
Ag 3.0400336259843956 5.506600724436269 5.116810912569283
Ag 3.027742228331752 3.5692511837597 7.174832762797626
Ag 5.219572628256175 5.47472331100402 7.155229335123205
Ag 4.131999025045585 4.500389755051375 9.533386722078586
Ag 5.329427066104911 10.532144338860663 9.365558076712349
Ag 3.218853670933686 9.736473300576096 7.626243971731756
Ag 5.422458806873187 6.217994525132035 11.252364029078985
Ag 7.02101549181381 8.51748770220931 10.955892234769706
Ag 1.963953537603508 8.1285009265106 5.523936168963603
Ag 4.825310293911374 7.813108968910785 8.931028036176608
Ag 2.606527035208849 6.434208745682386 7.755519196069279
Ag 2.730939855434133 6.699058433209752 10.563617166461249
Ag 4.293807069019735 8.90041142863753 11.452754829281544
