50
Energy = -108.94726648 eV
Ag 12.017772802854031 6.191873777996431 7.680129813433154
Ag 10.179135126414572 6.548900845758064 5.604871373537793
Ag 11.642108309224895 8.711652233386404 6.232848378835971
Ag 8.851187651063743 1.9736704396598181 6.268344917638723
Ag 9.958265464572404 9.80266439171961 8.171675510077911
Ag 9.666565834275689 4.440204826214279 7.321920403096948
Ag 10.736555732167089 4.70727908531146 9.838997144186786
Ag 8.517713308392992 4.352961811894015 4.751880930884376
Ag 9.789219687516914 2.135123382103922 8.934952806093655
Ag 8.53782112071459 8.797380321822624 10.495193006241362
Ag 9.54336571223974 7.025541658634996 8.618281314209531
Ag 10.382654314409432 8.556401082250844 3.563434925774631
Ag 8.774989028199242 6.129296073802519 11.293746850507702
Ag 7.554371619575999 6.477619955614706 6.686628786486252
Ag 8.037224550629851 6.9310118096332385 3.84978376050124
Ag 8.71445007220979 9.129217071646549 5.6249911676689
Ag 7.815660776894852 1.9484756393485032 3.5898677941222887
Ag 6.095579496419888 5.104273024877153 11.633453029899988
Ag 6.342253232868867 0.8982908712746973 5.839915166908627
Ag 7.930577561888295 4.068824121218548 9.667283585223736
Ag 7.280566734569833 9.022870757662673 8.039712958035484
Ag 6.67921879835514 3.8597691658749875 6.889779497450052
Ag 6.977976702966161 1.6297312542152553 8.471707320512866
Ag 6.815460632180541 4.404814289817144 2.499331109396234
Ag 6.656694949022422 6.716312188274869 9.471460027216107
Ag 3.894893880635119 4.973884869749078 2.7196724040980973
Ag 5.173763022879023 2.815988286530846 4.21582803239352
Ag 8.066028834703655 11.539424970341358 7.014552735745485
Ag 5.148301940975824 3.810133090839783 9.33393392110193
Ag 4.331918986262766 2.3616246536617718 7.048999488696152
Ag 4.77203961066242 5.994438793658903 7.333411182952805
Ag 5.791986067394157 7.108018133008448 2.2479718669519286
Ag 5.66612014265405 5.626615501743884 4.736962479125301
Ag 6.685584567739799 10.966677706302946 4.678383519051165
Ag 5.647686403791481 8.35011826372181 5.668354343854001
Ag 7.699250588940289 9.354971467984232 2.6786543684712023
Ag 3.872849846487198 6.209711314389443 10.057883742402927
Ag 4.581671722410522 8.547322551985305 8.581273813786485
Ag 3.1049175194076284 7.609291162708317 1.9807680043198495
Ag 5.341772769713317 10.862131222753966 7.125145751210731
Ag 3.1410940006637578 4.237591903712345 5.384670158394779
Ag 2.60125943794292 4.382969964475629 8.178862527854715
Ag 4.89783802899972 9.614316127094652 2.9119672731410597
Ag 3.9709886229065505 11.53366673406671 4.720232305333089
Ag 3.1104757856731156 7.00619949910115 4.780277033326244
Ag 2.192273518819875 7.193786496749089 7.904269985667902
Ag 3.024253810724849 9.449618204592918 6.429949803852322
Ag 0.7993652749695567 5.429544268832663 6.259234631549827
Ag 2.200654760809976 9.555669748003302 3.7385091165184443
Ag 0.6906283502366038 8.116000419586026 5.613882604007131
