50
Energy = -108.19349072 eV
Ag 2.4279293728174896 8.729945266918076 3.526623854173444
Ag 3.4684371541221295 10.08677253214262 5.7909432712380795
Ag 5.198111805091441 12.283823969408045 5.1779622746893095
Ag 4.76887127106594 10.298348518556422 3.1951229695130077
Ag 2.558119883640545 7.460360741557562 6.2162823143216555
Ag 3.067001875656146 9.252194297657022 8.504322614506323
Ag 2.8366345921837177 6.018311846505231 3.639663534447436
Ag 3.585028914506378 5.644661985590942 8.15799594740653
Ag 5.205644545945335 11.17574717520781 7.751503545075147
Ag 7.383499432233397 11.401563868020679 3.5406334337328063
Ag 4.612731123419453 7.6246649129877815 1.9006978756630217
Ag 4.879151108721673 7.7565134010821915 4.625115948021843
Ag 3.5457187857980896 3.3673771275761766 3.8379692414989854
Ag 2.1824321738107377 4.570037851520146 5.955783244270633
Ag 6.399217256547977 9.8121672005505 5.625799692708251
Ag 4.324176935813606 7.257535457329273 10.24859787384865
Ag 7.9263390095239705 11.936475397787499 6.356342982205896
Ag 4.997151093845191 5.1931762626677 5.629531253463866
Ag 7.092122725615453 8.575643300165547 3.0238383327901306
Ag 5.217687066234919 7.921192113641219 7.522601005053829
Ag 3.3409110329947325 4.650845400956769 10.784728445130632
Ag 5.566671610108253 9.756920219339898 10.056140260206803
Ag 6.465453391322285 5.812572843713865 3.2760122373102702
Ag 2.3123769414918 3.230444192268655 8.527484765339779
Ag 6.49293141795941 5.327650849141431 7.993187619030748
Ag 7.623147239145905 7.323227067977814 6.188517713132366
Ag 7.113852046881894 7.4889930224997245 9.7432019688798
Ag 7.752910713275868 9.710509095413302 8.150469728764598
Ag 9.078899090826596 9.540006181036018 4.916471417305326
Ag 8.054885906571448 4.691378204164851 5.584533671210068
Ag 6.239603897463132 2.9887461814759058 4.3218985282768205
Ag 9.162423556948665 6.786914665463862 3.6979262388218057
Ag 8.520784185824752 4.005457412468909 2.9034772566130846
Ag 5.099543021432609 3.154802795388057 9.180465892379804
Ag 4.249825829928636 2.632113274677047 6.490792451180885
Ag 6.11930703940651 5.180823039045702 10.939664793522597
Ag 9.229084660527144 5.896660430018762 8.341395428303322
Ag 10.613662930479807 5.74126157219555 5.906365404995571
Ag 8.919004573647241 5.885667471183326 11.139389224558183
Ag 9.575007315139285 8.595510501626059 10.057823216276567
Ag 10.143201368398985 8.494588412550675 7.3355147393990325
Ag 6.989325067394704 2.5346805956379073 7.158797241867386
Ag 11.482243305303326 8.164883117188566 4.86533813725279
Ag 8.802816541731476 2.061091555930941 5.017869307269935
Ag 7.924094314202722 3.4738159528189603 9.682921599555007
Ag 10.614068871481704 3.8730497206527996 10.112521621486689
Ag 11.499754538213875 6.58099625955031 9.859028684900016
Ag 12.109348498453302 4.581802720150968 7.931952903830983
Ag 12.600924939046935 7.213500172678985 7.245913395065549
Ag 9.743761509777993 3.1980568461667254 7.430956922228511
