52
Energy = -113.55901419 eV
Ag 10.877204414471837 7.344694777952255 5.8163935372773645
Ag 10.182881320744489 5.427271456157981 7.918722935270628
Ag 10.10398307651363 5.470544057935618 3.8663032892055162
Ag 9.07357777181542 11.107209430636575 3.7552788532464825
Ag 9.093621117383117 8.127677351837011 7.7762694529789895
Ag 10.250923450197217 8.339570985602137 3.2328935521511966
Ag 9.547868797355422 3.452453696504987 5.804521647563629
Ag 8.87988556261288 1.459540861095031 7.704499912562824
Ag 9.092283988350674 3.6012420482949756 9.812227293129775
Ag 10.300003152507092 10.105649407190878 6.0806483617522495
Ag 8.063717460243119 6.277484232892168 9.645842638979545
Ag 9.022921450204812 10.815633341991454 8.503195247362328
Ag 8.142532556638795 8.712753702459205 4.951980978531869
Ag 8.387209994348472 11.499688470173364 9.40521979561073
Ag 7.060593606599049 1.916824830794481 5.562103275714038
Ag 7.8460610502935175 9.383019705314068 1.9904657266963786
Ag 8.336693988407692 6.082909851720539 5.93197238332464
Ag 7.877775464725092 6.720693906627194 2.7309114740520863
Ag 6.150699755366472 4.273180417530729 10.042038440428305
Ag 7.427624544768535 4.231817029783258 4.035370109206841
Ag 6.159148390986026 10.444304565836235 3.9544539386545425
Ag 7.087522298094145 1.6492775227870897 9.919994016102503
Ag 7.664841398697066 11.413946291052163 6.138463017393535
Ag 7.466617482055753 3.9147432293319016 7.606622175227431
Ag 5.983635067254224 9.04975906273032 6.735553027055901
Ag 6.411808475895347 0.05629845489666132 7.581792926853098
Ag 5.16910378403092 4.227179651851152 5.927634344332803
Ag 7.062717701176469 8.937408098074142 9.463409718310363
Ag 6.316125493957425 11.499688470173364 8.536439399624431
Ag 4.560945787970292 11.335169660330896 6.319869840458272
Ag 6.118346169268738 6.40675148667194 7.633305943234422
Ag 4.88653793465274 2.299586876187814 8.327753243932541
Ag 5.4532057874072395 5.255618758833635 2.410022007191617
Ag 5.883692960998909 6.887710118399111 4.7830610902565445
Ag 5.15930016204333 6.992666082372198 10.147190077911434
Ag 3.819756169237181 4.868227116206732 8.594125368228022
Ag 5.303654479774534 8.189615459581521 2.271231075509931
Ag 5.093098660291847 2.674487228045416 3.56267630066217
Ag 2.5499253890265194 2.969782439267132 6.867139996401193
Ag 3.5855255430636284 6.615087256710767 6.32355893892426
Ag 3.8503761514028456 9.061200307268658 4.664905345063327
Ag 4.357774739834811 9.6091718687118 9.115060934157665
Ag 4.417912770772938 1.075179555470575 5.851153378637654
Ag 2.5272552100744687 9.489840160723631 7.013336550101708
Ag 3.6173727848923876 6.467004951096596 0.7308569340809973
Ag 2.6483243288830147 7.420076766531302 8.882807085412932
Ag 3.176151253912888 6.662414485422934 3.4418035691441906
Ag 2.9059435567195466 4.102362223298281 2.286868141123035
Ag 1.7070369257928464 4.715594903449517 4.788183949540489
Ag 2.435976824442357 2.1156064879782766 4.194246824580293
Ag 1.221730603554829 7.515445570566048 5.4102687299752485
Ag 1.2678372459839613 5.431958790385993 7.435426389272344
