5
Energy = -6.45707802 eV
Ag 8.544628933381722 9.165643879310524 9.309929109678752
Ag 8.820927210179574 6.724856037185205 4.74336935331768
Ag 8.165421032108467 7.435614517990796 7.169688422852403
Ag 6.378272161102441 7.60109264705619 9.144556268473773
Ag 9.811813327287586 10.202597937483416 11.3537741153081
