53
Energy = -117.15823759 eV
Ag 2.602494540753045 8.074206885973004 9.23803051697123
Ag 6.168163669167449 8.918753059066717 10.020332939518847
Ag 4.613686403554161 9.941761261073763 8.011449501733244
Ag 2.6218172330388425 5.1644186759732875 9.346319001105645
Ag 1.949994811815937 6.3095323148434534 6.873701276442369
Ag 4.668952585035686 6.539787834950206 10.728798821822942
Ag 4.637281173609394 7.083594688964876 7.824006609014914
Ag 4.21470020294392 3.833961312360088 11.25654374930001
Ag 7.183882697616321 11.168609425698824 8.23089971663697
Ag 8.947048038089084 8.291829851470627 9.67573685832133
Ag 5.7875225207952905 10.880782180557855 5.64303800057796
Ag 7.302963399480704 7.057955014941409 11.822122237148225
Ag 2.6680880631162855 8.944678134011326 6.392215690039089
Ag 7.048643150113459 6.312067918241571 9.152882384759792
Ag 2.5654142734126415 3.500147411647485 6.945230185856345
Ag 3.572326243942498 9.936582307737547 3.933429379908836
Ag 2.5989940501400093 7.261178453867759 4.130566593547276
Ag 6.876943941588707 4.335644003873193 11.13722654116874
Ag 4.307684645824757 5.309732368804858 5.559748601257643
Ag 5.141530512869127 4.267935841576393 8.209227115015201
Ag 7.16528721950642 8.638825810545178 7.321225881148415
Ag 5.246975159065808 8.102518571346327 5.1665648802977175
Ag 1.7584323021946933 4.594374821909089 4.5435655501410315
Ag 3.186426860344587 2.2600639673980636 9.2791101283052
Ag 7.435587791065324 12.209542044183019 3.7805366382384356
Ag 8.62147868711401 10.678321314321899 5.746488117512914
Ag 6.872137495818008 6.028018255044535 6.418429784558153
Ag 9.999199066827265 8.640101508435531 7.144083656435079
Ag 6.178390118196084 9.900081679956276 2.984437672725172
Ag 8.92090469461703 9.976604968431607 2.76257743768847
Ag 5.994576634283172 2.003449997241099 9.681830005122025
Ag 9.366337759204011 5.521104007857194 10.422811008442965
Ag 10.83053384467668 9.267058120144123 4.586464687114382
Ag 4.644403674193165 7.738804709146958 2.243635237475407
Ag 8.203248746445091 7.9910795804203705 4.740266765542944
Ag 4.725613706228418 1.5923285614403335 7.015104464211666
Ag 9.482360551552059 5.901842821869782 7.555848691716635
Ag 3.993234770297756 2.7238660671321773 4.5382663163902945
Ag 7.988729113434701 3.682727482882046 8.616298036389509
Ag 3.850971669252257 5.036970346425775 2.7340405118490625
Ag 6.681931012209014 3.433692280956339 5.641487607157866
Ag 6.422759875779384 5.907766101485823 3.6692613775083864
Ag 10.072526224819063 7.158478539284494 2.8416455694057694
Ag 11.264532067503675 6.678128918395293 5.495587092137067
Ag 7.471929603200415 1.2460351047616136 7.324882903538263
Ag 7.519277582127945 7.717791607805293 1.7403241372278893
Ag 9.069077176526804 5.185952983537369 4.71135156254896
Ag 6.261301497103778 0.9511154047802911 4.6256311446778975
Ag 5.935876801225715 5.542121128935403 0.894604300769403
Ag 9.447170870404724 3.0312115029054647 6.380193069827994
Ag 6.117850482552123 3.2512835609292456 2.7056524624644003
Ag 8.616428103489465 2.557263677133297 3.6846548033607003
Ag 8.480950882171141 4.9138224293013115 1.995272006376863
