50
Energy = -108.33703574 eV
Ag 9.677217029549155 3.1465115496025517 4.0454751563461
Ag 9.984169749535479 2.171079796975144 6.681151118390776
Ag 11.494134545597143 5.259383052626395 3.1569138924089533
Ag 9.182725641218035 4.836485419823085 1.6662102765066034
Ag 11.171432629073154 4.626066383638859 5.928370013568547
Ag 7.092985114816635 4.141194849434937 3.406165225804
Ag 8.057704730855605 2.365451808637984 8.71533518214142
Ag 9.99267922725819 4.324205387893857 8.485539432669697
Ag 9.02966128464392 5.88525385511544 4.400220067706335
Ag 4.621186860707977 5.1076818969933315 2.579805621072111
Ag 9.713924695396612 6.80106376419979 7.134810954192546
Ag 5.859404636011202 1.686232997205421 10.261429859583682
Ag 9.847297537528078 7.572242306496991 2.3345085960765894
Ag 7.976925266990658 4.11015788944687 6.366145523095608
Ag 11.453010473277711 7.344838484787638 4.921816963485187
Ag 5.594075561670694 3.7145293193936637 8.284770856853589
Ag 7.13911885278945 6.715583460476127 2.163435311331706
Ag 5.307666132921811 4.488513645936978 5.442069047120447
Ag 4.415293229494499 3.791801653130131 11.324897680595424
Ag 2.8766909349889977 3.9095551910237205 6.970636311542648
Ag 7.1782657510147985 4.178348406174854 10.808021131638736
Ag 3.3192945393423656 2.3344090433033347 9.214187686826362
Ag 2.8850825333220538 5.92600201347683 4.934257069073332
Ag 2.8917235776786647 7.353680374218229 2.542407857767885
Ag 7.489186559843257 5.90268284429347 8.692423455496773
Ag 9.497133722192414 5.8846590930403035 10.679555462665332
Ag 2.652923500293377 5.084298750023524 9.584114365496688
Ag 7.43613065433316 7.700842749791928 10.910848975796089
Ag 6.995663840206328 6.848036939561518 6.15724842170508
Ag 8.993399949042647 8.670808154283325 4.788298924471412
Ag 1.6313891107496237 6.449013915930304 7.363868578936807
Ag 5.197540629847695 7.275293987022274 4.0982651778148815
Ag 4.486054592852968 6.166849819531744 7.465744429661298
Ag 11.035084536203781 9.23315176134365 6.999383963990429
Ag 8.32568102069083 9.473638601259934 7.3707144488370755
Ag 5.910888399777694 8.400453509236995 8.40462527027831
Ag 5.13142971649415 6.27212548487829 10.353341885066326
Ag 9.732417750116758 8.445015416184626 9.510507022685829
Ag 6.956918563840977 9.366907157136815 2.9845111088375393
Ag 8.183366652134975 11.280061962070576 5.128257744900819
Ag 3.037985009834283 7.9157559910784325 9.273050513433635
Ag 6.0391441077899835 9.467401498431236 5.651136444983241
Ag 4.9766492438053 9.130783198696147 10.97311386879526
Ag 3.4356930982864426 8.504012595338565 6.366874488990201
Ag 3.949778295725717 9.689967084613096 3.6925250447352944
Ag 7.4078745417038645 10.309778048299194 9.88059337509315
Ag 4.013773462032724 10.468706489008417 8.693056206378131
Ag 5.734516760186234 11.815854581771896 4.039438727959604
Ag 6.369223104196953 11.52043241760453 7.526015424087775
Ag 3.8777340081597123 11.30854490550587 6.063859904787172
