52
Energy = -112.49327479 eV
Ag 6.99983786355908 6.873296973649532 10.831089631590702
Ag 7.313835841241979 8.392738168272357 13.09065147606051
Ag 10.830823030013285 4.230392018153753 8.963809120880358
Ag 9.117436242744663 8.881709772356853 10.956729052577108
Ag 7.133817838755235 1.427875940774669 9.315822808398034
Ag 7.939426390393807 4.168550530350964 9.687448823839445
Ag 9.445899172137137 6.566552701324721 9.485658596670486
Ag 4.459861850001747 5.754765677184749 10.777252529684022
Ag 4.646293562305148 8.146930884283673 12.085254737263517
Ag 4.917782379628206 3.411099165592682 9.324820496148341
Ag 9.392569118709966 2.279491726973675 7.685042143655777
Ag 7.427927450688841 8.48153116564145 8.356312544277587
Ag 7.474091147996992 0.626590512872579 6.475773620548931
Ag 6.500033162854595 9.76917211811315 10.787433745131546
Ag 4.90330764311546 1.1183306719735782 7.574509798295179
Ag 10.30873589146619 8.99392443666654 8.382037089808472
Ag 8.651271285068868 5.205260480842511 7.082173057593646
Ag 6.6964573574552215 3.2275969577079557 7.256875049463421
Ag 2.2697046449183174 7.522222212079726 10.251866813511699
Ag 3.258853733410539 5.692522448091936 8.317496063934483
Ag 11.375715111212187 6.522756934359581 7.422504035952513
Ag 10.920966297970432 4.0454778521724 6.022355973730852
Ag 6.139384374658761 5.918449496694363 8.266575624910953
Ag 4.650355685878558 8.312111038917838 9.172278869975894
Ag 3.8352484132165627 3.553245179238868 6.614898785390409
Ag 8.402406794201793 2.962468539201208 5.061989668075522
Ag 5.968878966778591 5.347203747490561 5.468764758177276
Ag 11.288450086023351 6.475394415488547 4.64021689950708
Ag 3.013805122729663 6.000222098356301 5.554609134455434
Ag 8.476973631726725 11.052713555608273 7.777738336985795
Ag 5.635426986980942 2.148881436725967 4.886118300114236
Ag 5.067398452866924 7.918298931980609 6.351408601328741
Ag 9.019145182728671 7.835309648593865 6.123132365350088
Ag 5.758880403724221 10.889044949633924 8.401017011124912
Ag 8.718635070933255 5.594140487981837 4.219279407939429
Ag 11.560909258718254 8.950322418712133 5.850870874201594
Ag 2.3431202355796246 8.155641221335035 7.447408259780643
Ag 6.5861494050810325 4.142391025261387 3.0406177408273045
Ag 3.8560672784815946 4.0232550434959675 3.8121736317393116
Ag 6.651253663824329 10.438627782916557 5.830621478392704
Ag 6.9180183653357545 7.905340222141044 4.244349834246333
Ag 9.327308626629222 10.48923870491347 5.143329074507841
Ag 3.807639827814046 10.3984511232838 6.471396422901414
Ag 7.50345801870391 6.536995522971962 1.9025746877937453
Ag 4.483517246141214 6.815591816977284 3.213196779569269
Ag 2.537824210658862 8.541977990991391 4.641369897053239
Ag 9.531060597743569 8.307098414708705 3.3307229059549455
Ag 4.821606110075117 9.888807445000705 3.8957314744462965
Ag 7.489463679482634 10.455448563661111 2.9915583445508287
Ag 5.856170014068834 8.627586833017443 1.4992402141007872
Ag 3.1306710780734237 9.12945436204282 1.9142426859973445
Ag 5.073730645384241 11.282717611022887 1.5636792069162482
