50
Energy = -109.2953386 eV
Ag 6.074025311963267 3.605323316836161 4.141870242689588
Ag 4.6057402142955555 5.092772775252247 2.1715620374944287
Ag 7.412263371411329 5.325814635620678 2.2449244280216205
Ag 5.018161765569029 2.7232868025170918 6.688588559465093
Ag 1.9462927169387516 5.338536637452674 2.9547716543142744
Ag 7.786902788689856 2.3212380601400557 6.228874282645295
Ag 3.226633956650207 3.550398793311052 4.6745524173410935
Ag 3.007178833547385 7.35504704315351 1.3776862259268599
Ag 8.819670291287641 4.321662741667632 4.582376950087804
Ag 10.65683965922621 2.5664471795358423 6.215967672843312
Ag 5.683419094829619 7.678822139016082 1.7694071860416944
Ag 7.010309867931984 7.124329377891469 4.247289315224691
Ag 6.645356581966972 5.10245697120451 6.454019370363696
Ag 10.095284246099052 6.5509116102317 3.5778853539282682
Ag 4.377788510595063 6.077132753820226 4.845499307312207
Ag 6.84693868759132 3.130439713460154 8.8101146986728
Ag 2.222897665215087 7.97510544487454 3.9855050107289833
Ag 8.438326706492598 8.005897053368132 1.909559379708302
Ag 9.454463698511372 1.9750683148845447 8.685860143217326
Ag 3.3993207972301867 4.836286681529636 7.253045051327693
Ag 11.314463390092756 5.266513252403053 5.858820037843796
Ag 1.5011334530923082 5.8552092481199685 5.634740906953556
Ag 9.126884516965543 4.476864339716047 7.560607813485433
Ag 3.8864286244859203 9.849011830886957 2.4433226895145363
Ag 11.452223841286434 4.215424628475861 8.896112148772357
Ag 9.017060336926265 6.883463509356353 6.09360230436178
Ag 9.268152187247244 9.169094960720242 4.448703059998425
Ag 4.864169664901162 8.828259278633446 4.782536423510845
Ag 8.918521272688265 4.078389178590107 10.471978165022803
Ag 6.818794490493483 9.975002690430852 3.0631195178875092
Ag 3.210303234673611 7.761083671112422 6.934512600117429
Ag 5.612721535265662 5.782622659709416 8.954742494353006
Ag 2.639766451426802 10.418951463512647 5.20697135503394
Ag 4.1355766630186785 3.5457705255546297 9.584476965775675
Ag 2.9105599322983977 6.34601717217762 9.490691156897757
Ag 6.2339043604807545 7.803551248891981 6.985998394601501
Ag 10.490880501613239 6.309343937927286 10.731886733664242
Ag 5.0938816942639145 11.598663180221042 4.5208504109501035
Ag 6.2657560537708745 4.250886341990473 11.316735298062621
Ag 10.956204819563 6.944436045960938 8.114171108350224
Ag 8.184333196200985 6.819817288886723 8.805620948792217
Ag 7.262156706231038 10.365911369395434 5.915569820973763
Ag 9.385228345350972 9.253501744770205 7.4230030339123845
Ag 4.7019341868691455 10.338981400484746 7.1757274036014165
Ag 4.678840842783483 8.510393719071214 9.334241345138262
Ag 7.837730366752816 6.538927073285537 11.65550059978011
Ag 4.950603294013337 6.723462313516876 11.527427923360579
Ag 7.047470212174744 9.890601853718904 8.782938775438051
Ag 9.220162234651175 8.804994823437013 10.354763545714555
Ag 6.578768254338986 9.009821714379692 11.40257140101253
