5
Energy = -6.00215338 eV
Ag 9.950302705590323 6.628213066781598 8.684455074424935
Ag 12.143624891654014 5.341140572213081 9.261872453221981
Ag 3.934420163955459 11.00349361548088 6.01713289545162
Ag 5.712964721776979 9.461686909478102 7.139976050409165
Ag 7.778135662938626 7.99662423871197 7.986793256211788
