55
Energy = -119.09189185 eV
Ag 9.815908667884463 8.792410994087756 3.0859069311509844
Ag 12.152870766121643 10.073232491309568 4.082004482089757
Ag 9.676426744444226 9.801379008378685 5.699939015011551
Ag 14.136841513743313 8.318774765594394 5.117614578430947
Ag 5.536818363932283 10.874351541616601 4.38422463788328
Ag 7.36668866818783 8.70694754919158 4.400864789259366
Ag 7.105672459868138 10.538765943126204 6.597904146846187
Ag 8.934878594362056 6.3378732349510996 4.181425275926888
Ag 11.957813232792574 12.263039658777538 5.808696990750074
Ag 11.370903579120016 7.521651792256753 5.054024798558918
Ag 12.20177007713219 9.559501827762562 6.881407850994133
Ag 7.255144243335739 11.84532618706758 9.058655815282597
Ag 14.452968171972216 10.974532810485094 5.945900668091785
Ag 10.623597880042217 5.216533246201635 6.293881876207573
Ag 7.954327858974541 4.472738035588555 6.044790093857777
Ag 8.801409514460264 9.414575009340043 8.496579383105686
Ag 10.09155182012983 11.72554424518935 7.760841455724607
Ag 5.008583229039375 8.651042253706688 5.889289133772541
Ag 10.746531124299509 7.3274486951810855 8.178276027381793
Ag 13.077823327114519 11.906421847825552 8.337690138850245
Ag 5.637971322826282 5.942540806647844 6.688108918571228
Ag 8.296923550934588 7.190148678052572 6.737748469786124
Ag 13.147104264335393 6.494071926097856 7.017832026054395
Ag 6.195440385895016 8.117276419432809 8.349631867691915
Ag 3.482379892646465 7.557851505537638 7.9438701053765906
Ag 14.76698583035299 8.800645352100693 7.792094599119837
Ag 4.632494920159513 10.410655036959248 8.170239047102147
Ag 8.229901859891848 7.045686996075569 9.906375299571248
Ag 4.836757219804098 13.12157856397016 8.613787061586155
Ag 9.421011202887545 4.8094123089837835 8.806957995394853
Ag 4.962967300605972 5.834899412271716 9.614562772247792
Ag 6.745130835347747 4.05870988671376 8.485090913622795
Ag 13.1778241827033 7.4994332327002295 9.726245003322813
Ag 14.276168215438197 10.032993535867668 10.237105643667647
Ag 12.348736977233596 11.913347337051478 11.141519748848479
Ag 14.841370022325425 12.730041675397413 10.30697902249937
Ag 7.441346073137328 4.717325040908311 11.068898170360427
Ag 4.205878369055404 8.61109373965231 10.410120458068135
Ag 11.446731808126378 9.765941000675593 9.52134543219013
Ag 10.805375521970733 6.544828094322651 10.920671231285727
Ag 6.9401108190952705 9.476029670031632 10.655164873038608
Ag 4.9928302483416624 11.480002882929327 10.830225896608384
Ag 12.257375901512756 8.951960731238529 12.070344457194416
Ag 9.593037634306729 11.7151366285708 10.507751459509715
Ag 5.955527061788431 6.990017431580028 11.913340719758471
Ag 5.175131803845478 9.55381750594818 12.890775652781235
Ag 9.550838170041716 9.035109480181964 11.515407107109866
Ag 8.592586057420004 6.746080075546618 12.789746353018717
Ag 7.612658319375914 11.486069421177715 12.47104475483605
Ag 8.745149166050092 9.280349088376067 14.172095197538376
Ag 6.478922611106453 7.701973958944127 14.54888939453854
Ag 10.52859803046133 11.1418713191918 13.095977294470313
Ag 5.196971466689486 12.292087442468514 13.532074726100035
Ag 8.677581504959681 12.085015903749944 14.948914689031009
Ag 6.444982469994237 10.453237630632753 15.208476406547033
