50
Energy = -108.59831974 eV
Ag 10.192573530302171 7.354459222126801 9.562325802396693
Ag 10.512149417586727 5.680199416535224 7.319878247184461
Ag 10.004452584409922 3.74557122985105 5.18800182851562
Ag 9.691204912522474 6.625692407400832 4.756416670903473
Ag 9.765331515189358 3.0505765570049004 7.929565778226709
Ag 9.615061821721524 8.299618639234946 7.027284182960348
Ag 8.614061224630627 2.0215655723641115 3.4099611981077977
Ag 9.699670893854666 9.247110552565802 11.488393826466297
Ag 9.20038664641524 9.428204717872196 4.452098314160408
Ag 10.745087742872093 10.116099578158483 8.879710477974823
Ag 8.069336627053485 4.742030124152514 3.3679936657034717
Ag 8.267623162246062 1.583357227414095 6.130850551159922
Ag 8.510106035948484 5.171142255590744 9.228950522448134
Ag 7.836272099148906 5.120689407840979 6.333301331146372
Ag 8.867775049631664 12.133164104542523 4.182419705671682
Ag 8.77343603097124 10.979596790420874 6.904217576006203
Ag 7.714439301686355 7.467275635940107 2.864952552602641
Ag 8.13336615331268 9.48431906585297 9.236695517728435
Ag 6.227195146867792 3.072291292116942 4.763805506499008
Ag 6.6613412210097716 0.20256162666635327 4.342574717663201
Ag 6.911858232298772 3.071181547709631 8.06309546505119
Ag 7.218418610757895 7.937526014136368 5.666462616321452
Ag 7.617497771248407 7.263701689760878 11.012017264360091
Ag 7.326408907840556 10.223597121135262 2.511307128361708
Ag 6.673408931247818 7.175828121531627 8.281875360555864
Ag 6.622450089370286 10.964967072620997 5.137775013974087
Ag 5.922528761411064 5.496381273039008 1.6776054725250207
Ag 5.839224884083424 4.903937803682799 9.920995143725063
Ag 5.625124559411263 8.252128552379721 1.165946980830497
Ag 5.319759316752757 1.1784896549065944 6.618494693427077
Ag 5.6636929157924865 5.8807259680420545 4.45342245582221
Ag 4.1331494416751084 1.2529084827757333 3.9346863758951045
Ag 4.881348478174475 6.753447912290504 11.703898875219904
Ag 5.187005796400433 8.824859340239534 3.8370602478397515
Ag 6.007901799888135 10.414862400419915 7.7636916004140675
Ag 4.151993028314267 2.8117765170647675 8.64186036521752
Ag 5.520608602966903 9.035836799341649 10.158742447051157
Ag 4.521541610274362 7.809846564304516 6.424808582703913
Ag 5.123372790509245 5.057733639666474 7.077042584532127
Ag 3.613303391074735 6.751257043497952 2.594267281996635
Ag 3.114737088248899 4.654457068660584 10.538403348483026
Ag 3.968611810089163 3.964586159147495 3.165132577684128
Ag 3.8448801360540834 6.931128968531799 9.091180855542827
Ag 2.3494604059956425 4.864993804627258 7.821334018735718
Ag 2.8266847568909177 5.758921754484543 5.15949586061741
Ag 3.413819885005017 3.1066187144637936 5.849462112434982
Ag 3.983189160420902 10.561784229996006 5.804020877788675
Ag 3.423664625338451 9.621613602679952 8.385257620910291
Ag 2.4535518141737587 8.469719243226079 4.553690249611835
Ag 1.8036810322624786 7.5440507393608485 7.176715358023391
