55
Energy = -122.12294428 eV
Ag 2.3343309400860197 4.574159114278171 8.635555181318306
Ag 9.330406209588066 7.52182935703685 5.365456656450407
Ag 7.07916216506312 3.616469244549963 9.99809219941245
Ag 4.554971245411954 4.885972385353108 4.0640446646690656
Ag 9.387186023564817 7.725644578510689 8.265671945047908
Ag 6.924406178847384 7.907403358681379 1.0831802642891966
Ag 4.643565374393987 5.145795919286836 7.078086100042271
Ag 2.2733940772210466 4.380707855151882 5.696068193208109
Ag 6.936190463411434 8.201041013492079 3.896881275503574
Ag 7.105684517506108 6.16113824533312 11.323744565550966
Ag 4.682502825081787 5.282143935970751 10.096629977534295
Ag 6.981183719877689 8.400643150643743 6.814780990253865
Ag 4.547788300292787 9.915932269927419 3.910900917135097
Ag 2.3079171349597645 9.25654158781927 5.453131626833166
Ag 7.054707665562046 8.577319777890756 9.742924201442841
Ag 4.597416242535104 10.320612933552853 6.745428225314777
Ag 6.937199217030096 5.596591316041213 2.6536106679277087
Ag 11.596801304086576 6.632534898448635 3.9907796291211706
Ag 9.340122960484296 4.851996324729388 3.997030296670871
Ag 6.970326130445603 5.802571548339761 5.53808760933129
Ag 11.905539688294397 6.859983796218135 6.81688587520895
Ag 9.381146820502774 5.146054934354637 6.987008722050191
Ag 7.035580875457689 5.993330431419141 8.428538707503495
Ag 2.2953612485259267 6.721670170578528 4.149289213861603
Ag 9.459117163374229 5.2662175226175325 9.99412962380392
Ag 6.878798633781053 10.491906788934019 2.39065372489759
Ag 2.4082161461973013 7.081513147649604 9.87320791871833
Ag 9.294503509433182 9.924515841286832 3.7913677743298275
Ag 6.949806204461214 10.778849903271917 5.235885016295872
Ag 4.731728905322713 7.888383772043109 11.27849487170823
Ag 9.386795583961037 10.297082088097339 6.628637734586733
Ag 7.019500241768436 10.954167738832425 8.074358219207333
Ag 7.136836259611557 8.652627931145732 12.578125617039944
Ag 4.633740860335379 2.6103215838909715 5.765950964877597
Ag 11.649796310061488 4.2890618281614445 5.589218722883418
Ag 11.702117341938791 7.051258522765526 9.660425255163497
Ag 4.699912793795832 2.8023445313456796 8.717044162418556
Ag 11.707933536446033 4.502138525033047 8.420797289322794
Ag 9.461876824993427 7.885109687340122 11.161210285270295
Ag 4.565300668016679 7.318317609579501 2.5581044637064534
Ag 11.608503704570168 9.21002269392273 5.2190822337184954
Ag 2.3765179137775863 9.43113141583601 8.274846636442655
Ag 4.595959491319669 7.525716945111718 5.465572090468695
Ag 2.384159943088827 2.128540904118752 7.327244571485646
Ag 4.680312237905563 10.292261004311177 9.607395669634199
Ag 4.658589259108042 7.713549860802144 8.372597472289069
Ag 2.064608833686823 6.900115199333919 7.014984207554787
Ag 7.082378540519839 11.041627582216469 10.936947750115133
Ag 9.344571545115368 2.6072935117247287 5.720343985530315
Ag 6.954937509531033 3.239346995037028 4.296393114685069
Ag 9.428652346069185 10.304121905161528 9.501726694675982
Ag 9.4120334368964 2.8098997023726437 8.57612111532208
Ag 7.010501390485935 3.2755308298973014 7.156465322971334
Ag 11.671471370287886 9.414895602033809 8.057430462010286
Ag 9.30160296526193 7.297713477870239 2.4871021225380647
