54
Energy = -118.92530477 eV
Ag 10.494793165880036 6.614867676334507 2.768906266558364
Ag 9.120076948451297 9.128311140393043 2.973013528907882
Ag 8.688541557461745 10.455872541359437 5.3421762830104536
Ag 10.096604439230887 7.921774059229449 5.2177740225094515
Ag 10.406375584574501 6.724892489069823 7.7730618030372565
Ag 10.542384131255107 3.5601078746462798 7.698264767154189
Ag 10.516760608109308 9.58803542094295 7.357663138195782
Ag 9.301162280899304 4.020704073442519 2.8507676292488453
Ag 10.009046383226854 5.1343610090382406 5.377647895201739
Ag 9.958538601086543 5.145482003907388 10.012802437939362
Ag 8.10135109916293 7.506332334707567 1.0180252341595604
Ag 8.617545371170177 10.1291639573525 9.237431488912172
Ag 6.5466493695660795 8.678255141939411 4.631798704639093
Ag 9.049312433610304 12.146806602727402 7.431420161709802
Ag 6.140473076922291 9.173328494176085 9.688964545223815
Ag 8.417443342100094 7.434330804083949 10.027367052617453
Ag 7.9815555402889995 8.131336922575693 7.220850471050132
Ag 7.614805708178571 3.6344262737011315 5.109974875622463
Ag 7.9389746876534355 6.349456535045688 3.679863403364845
Ag 8.189800574643991 4.876949482997093 7.710749819811017
Ag 8.862745672348307 2.6061262140063435 9.85505962114719
Ag 7.989592228934254 1.9646547051547951 7.365298121809763
Ag 7.083647135081685 4.946002182320044 1.2853478192324996
Ag 6.497419289459546 10.900086192525837 7.198645324618344
Ag 6.659042646623821 9.853042331582378 1.9689264442187575
Ag 7.241764661236042 4.713533489832305 10.720440077079488
Ag 6.192418654299305 11.388352188626389 4.351775559669205
Ag 6.120121571454975 6.384889105180594 8.732948432531463
Ag 4.148268094130051 9.559962074048157 3.1590126532417466
Ag 5.527852255216664 3.7688026069279768 7.136517895571895
Ag 5.090856941379411 8.431574669742098 7.091663891842726
Ag 5.771722532718727 6.92417413413968 11.45643964101254
Ag 5.563201801070886 7.272184616421799 2.2364097845317454
Ag 7.295374999500472 0.8271161982234253 4.926973528631479
Ag 6.064927471051735 2.4576194522303565 9.575785617602385
Ag 6.289877923407072 6.136522389663768 5.917237062791472
Ag 3.950681978901975 10.505450681465195 8.59351412295508
Ag 6.963423206035815 2.471080781762613 2.6372293878155717
Ag 5.409600467325687 4.77324942571122 3.5259443111041406
Ag 4.285635613574462 4.801949174521087 10.122039116651177
Ag 3.891688825122474 10.562695965562336 5.769168620129895
Ag 1.8585827900145042 8.950441158317354 4.6518004196116065
Ag 5.339304594406636 0.9850604385067464 7.114008424382897
Ag 3.4456964775155474 2.586425781952054 8.662604468850645
Ag 3.9167066910601562 7.060822958095699 4.598826229481062
Ag 3.671060399514929 5.913486390006073 7.347180255395649
Ag 4.919409367774706 2.170516126078953 4.5150375088390975
Ag 3.7087022836800663 7.7502791650554475 9.66454558191374
Ag 3.1719937160920866 4.280622514394843 5.085999148320993
Ag 1.5444598093059512 6.1142360167066645 9.034242285327519
Ag 2.247951643243118 8.550308311253907 7.387274315128996
Ag 2.7281536298507145 1.7117967104060139 6.129557180964559
Ag 1.3625604035350705 6.4007922091767595 5.8383524891010365
Ag 1.4591072573368835 3.9514429566710736 7.281621138166626
