54
Energy = -118.58737097 eV
Ag 6.181219610145813 8.148754496438958 11.030574462225095
Ag 4.4733963267492 5.79982608866167 11.340139739090535
Ag 7.221573696087503 5.510256129987838 10.925448881704563
Ag 8.753803990647594 7.264957019846379 9.559690302049031
Ag 7.215594665167269 2.7780116604261904 10.444494589072354
Ag 7.8631665207432535 9.875765824705596 9.264739500774205
Ag 10.466173606394758 9.11986942798719 8.402017380524153
Ag 3.574412517793842 7.84206250822156 9.707597921862588
Ag 2.522653964718349 5.180284213758967 9.257558595191991
Ag 3.736236436542875 3.060843322545095 10.589157932290796
Ag 9.322562630165502 4.340783329695744 9.262874288706294
Ag 5.0754623630297875 10.25765247342496 9.291683168429318
Ag 6.053199094182612 7.616897088398218 8.330207253950697
Ag 5.429618869708502 4.480247521183723 8.92674096140587
Ag 8.996126356471823 10.929095256868273 6.862856181691074
Ag 10.44039947468187 6.386551409932272 7.463347761869617
Ag 1.4812327586064118 7.233475905647126 7.651344692257281
Ag 7.491853342328911 2.641049535463158 7.66421757219071
Ag 8.36243326897705 8.078695077353652 6.56903251891835
Ag 6.8484202044921085 12.249273107291176 8.074258763834871
Ag 10.906304969601218 8.733711543899842 5.656316095554491
Ag 3.3551081791738815 3.0558278144015802 7.611462679863892
Ag 5.285591219727438 1.4582386012305772 8.947257467643185
Ag 3.9912937823437686 6.165141191924244 7.120269958838823
Ag 1.7942307319923396 4.917281131610668 6.020716275891967
Ag 3.5020350421483206 9.141877389434644 7.222912513785913
Ag 7.605792934105665 5.516418573676592 7.524352023359446
Ag 5.3097574015276985 1.3970488253907702 6.151063751394985
Ag 6.250655110513455 9.856873217731117 6.681190033080589
Ag 4.371112144116278 11.859807716178393 6.821759155571628
Ag 9.652246301817872 3.916375397491355 6.291169365571109
Ag 9.33538089257692 10.694492943689658 4.1544253433488345
Ag 5.662263935073955 4.248037052956643 5.925777866724477
Ag 8.05461843790474 5.709639665101779 4.7573914848162016
Ag 10.909978528330647 5.972266249580983 4.725862438215473
Ag 7.6887373971673885 2.396328501071114 4.867869170446645
Ag 2.530940281849755 7.711131933160466 5.041481993336548
Ag 4.273982371132878 10.004331559200368 4.686919852598338
Ag 3.1967234152078032 2.7767882413356295 4.848832985607693
Ag 6.9119982416426655 11.988431506575068 5.115150697663321
Ag 5.785164585240727 7.320297148859616 5.307045414534816
Ag 5.314378133676352 1.6116303939170271 3.333847843169526
Ag 6.867326863714774 9.45897069854024 3.7735970745434693
Ag 9.569188208020808 3.9167533378595594 3.291725655786318
Ag 9.278916226154807 7.966296921830221 3.5461834217773855
Ag 6.245972922054078 4.2374839679787915 3.161136396918773
Ag 3.7500794246812177 5.4365648650232625 3.987499307383417
Ag 7.8855676595794035 2.0206028247234795 2.1072261991079917
Ag 4.346550113921545 7.924583685078588 2.8403011676882555
Ag 3.3201232137467427 3.3430959278362637 2.171204096102615
Ag 6.93153995565802 6.927838897370998 2.456366837404877
Ag 5.651843647905371 2.94290659575894 0.7173710337280599
Ag 7.89207166996163 4.659072226070706 0.9953007988539877
Ag 4.744928464515693 5.61979283088294 1.2472872923886018
