54
Energy = -117.86958312 eV
Ag 8.393527238468291 3.551116303465533 10.970403335277277
Ag 6.231279925015333 7.411006172025806 2.8091403734401563
Ag 3.01360663210008 10.310194342388954 8.679193501017066
Ag 11.394403872039964 8.723214330076779 7.099301190457425
Ag 7.855295815137764 11.145624876642566 5.540281121167043
Ag 4.1069739858417496 5.9358381456469 1.8260644329969065
Ag 10.553897918740041 7.619528320021358 4.622489057788849
Ag 6.531019594293284 3.417211344438855 8.816185765402196
Ag 7.85468710961932 4.182850398196452 6.29951491305796
Ag 9.671875871733924 6.51930863690104 7.22689136970291
Ag 6.715871854390136 4.780655361064307 1.5255334276587922
Ag 11.37835364138332 4.253058335775289 7.369029384892538
Ag 9.94325894330928 2.308324738242116 5.7682484158676495
Ag 1.5687780909923572 7.151664498282785 5.520048185996579
Ag 7.1653266200438095 8.164139178455851 10.232736694211683
Ag 7.790810189068249 10.827204953819635 9.501926176617033
Ag 9.818921100804094 8.751229872895417 9.418897432299639
Ag 7.749695490362846 12.95361879773516 7.667439010729407
Ag 9.117612202164501 6.127721219049805 10.150022611036276
Ag 1.8316569361510422 4.384819511459217 1.9215035927598592
Ag 5.941074863914797 2.082171677358828 4.4084975027964655
Ag 5.193160449800355 8.438995346077776 8.107585366753144
Ag 5.207574466059468 10.184668955742096 10.363803036354362
Ag 5.912366714001065 9.073406541570156 5.20860640663567
Ag 5.77150776827223 12.785191800841325 9.628644878766417
Ag 4.934661732033926 3.722216777437044 6.506303388557666
Ag 8.355364520589337 9.039645912966149 3.725135075495603
Ag 8.79656614753197 6.185457408520253 2.843605865948595
Ag 8.296691593496508 0.634901891175562 4.3119007864826235
Ag 1.9896822147013864 5.4578047050225456 9.948601869789174
Ag 4.285924627586747 3.2197044164289434 2.5048721137195917
Ag 6.395309891755427 5.517567327803851 10.777063191441098
Ag 2.976464949902116 4.945990050788048 4.368259811118161
Ag 6.969922735974097 6.222276201566848 8.031384765520368
Ag 4.441720290554027 5.333818824845495 8.789046860652899
Ag 8.330480742082306 3.3701336602087832 3.466952049874886
Ag 3.3328423931125473 9.34092016355318 6.095254204246124
Ag 5.618796620926094 11.087481843659742 7.371380404105169
Ag 9.254717497069258 2.7589148883865318 8.451123930392349
Ag 11.716802987825988 6.639110598642347 9.050188942778544
Ag 7.650184705213982 6.822721960346557 5.316473663599742
Ag 2.322376731417507 4.899501514188728 7.085431693256068
Ag 10.24842659070716 4.924766521924023 4.887791832448636
Ag 10.516816302307683 10.38602179563643 4.904187090508063
Ag 3.629826028887239 7.864154012221002 3.738312881852318
Ag 5.919491096596769 4.873897359652519 4.12561953959314
Ag 4.22165570212552 7.506896885687511 10.553301511710421
Ag 7.912598016092345 8.893390655346854 7.324507958894274
Ag 7.295456460197828 1.5315733342322735 6.806569238296641
Ag 2.4878848624568675 7.527618831674543 8.231748466987696
Ag 11.062240792360267 4.143423235086111 10.15875280237221
Ag 0.7772740966058822 9.40160896345782 7.121725857953031
Ag 4.6041956669555955 6.564500579766369 6.090536294244175
Ag 9.825351389037646 11.006850435352122 7.585130345635928
