53
Energy = -116.1638455 eV
Ag 9.76298763664023 1.2857483847075144 6.9642053993924895
Ag 8.128106030679607 2.1707017880789325 9.061187240312773
Ag 7.099101506317245 0.3654112274636597 7.05826770608336
Ag 10.21445641266087 3.9450907116414053 7.915937402009289
Ag 8.874735844612315 4.698741514525665 10.328151214929388
Ag 8.90390395906982 7.509934523407739 10.570768562542472
Ag 8.104604279955536 1.1961800900858923 4.595036292948319
Ag 10.268432493581658 3.146558512626009 4.924737483550018
Ag 10.267556214665285 6.770260759042252 8.313584868080618
Ag 7.854412486131866 3.360060034128077 6.50797167765102
Ag 9.144174831333837 9.64941287364098 8.715481686500615
Ag 5.285449325230294 2.1731290603404663 7.951557636083868
Ag 6.1678500092256785 3.9336880634614806 9.877915091398814
Ag 9.60991207749707 5.692065330015806 5.740996876133843
Ag 6.390649942946495 6.387777406233895 10.97795251160191
Ag 8.295271544635762 8.065525590110253 6.504832772732879
Ag 5.276775072677856 8.950617572478777 11.184261216063383
Ag 4.682483951834625 0.828061997646176 5.5239997761661765
Ag 7.699636396601178 5.759299428464693 8.058600314681595
Ag 7.903748898648878 3.6920177454473246 3.4431726035616874
Ag 10.179278384441753 5.285947674181422 3.003882544984904
Ag 6.746148374242444 8.310228046295467 8.958280590207696
Ag 8.99405814292889 7.7147535277201715 3.843270586228885
Ag 3.418300308592381 3.9760290755973684 9.230429479164693
Ag 4.159687101776221 7.018324552292616 9.205836288812014
Ag 9.822129721455866 7.494474372167648 1.2348012297170223
Ag 5.152806891745701 5.033013374020719 7.385783627703646
Ag 5.821426112064511 1.7270652453225868 3.014299310425658
Ag 6.735716523846351 11.050528237572268 9.689353150087303
Ag 5.508893839068193 3.4211515563396917 5.167074498315684
Ag 6.952044688267489 10.4589282769958 6.950398777066189
Ag 2.2982304442405206 5.68585546946776 7.286620058943062
Ag 6.641177875999509 9.161150435925773 4.462962929552503
Ag 7.357786895097613 8.840221467498957 1.7466213940173736
Ag 4.3242491384036805 9.916783784880732 8.74594415670752
Ag 6.806575394846669 6.012076187784277 4.97418908169064
Ag 5.32305150284941 7.80018430008198 6.645846562069976
Ag 3.944255679585893 5.939761370262673 4.9600921537929805
Ag 2.525897647477679 8.420031635766161 7.243194551127492
Ag 7.569998340690797 6.052332605829071 1.988676774970089
Ag 1.334525633461428 4.528373908386611 4.911919072748511
Ag 5.192612796444177 12.4294702723827 7.730079535180187
Ag 5.3071770721171605 4.5510469002169796 2.579615007279235
Ag 2.9782326891320494 2.9682853158475675 6.570805186271853
Ag 5.241539241580625 11.52193321960874 5.008997070172982
Ag 4.904583313496532 10.136530854877364 2.4527066036538527
Ag 5.130375587439513 7.342598262618116 2.7387759468802395
Ag 2.950115115519668 11.107548181132172 6.661373457987985
Ag 1.5185188912558054 7.334423656236378 4.842123303966402
Ag 2.612197589863924 5.59081243574339 2.5990891259877698
Ag 3.2369542816433414 2.8704739433290287 3.6903624902456373
Ag 3.648240675969098 9.181188446395323 4.757679974924533
Ag 2.559403668454334 8.402307544043845 2.3614213244646187
