53
Energy = -116.3756515 eV
Ag 5.788672192049634 6.808662831949947 11.958218986995298
Ag 6.569339677439601 2.340825703107702 8.856945197767248
Ag 3.5331639797850003 3.1193841654823316 9.901687538911313
Ag 5.897037289640533 4.5196204097234025 10.400965347361073
Ag 3.4286743150877306 5.999831372714154 10.624574347346973
Ag 8.179292760944678 6.093839870903208 10.676738052870999
Ag 7.843805689821026 4.775928878118137 8.279435979189667
Ag 7.331569819898972 8.836710288642898 10.835165688162782
Ag 10.460208638290856 6.109888605185846 8.428965275643801
Ag 4.196041289355311 1.5385674766901745 7.682477209317689
Ag 4.408475952089881 9.028898351748218 10.851108115669643
Ag 10.004768341443171 8.123756439527696 10.452100695387728
Ag 6.556111031118812 0.8675455697735943 6.3778285590298545
Ag 5.897686488892865 3.575020985617757 6.391410128664985
Ag 8.622360445613669 2.883268406736167 6.274913448098652
Ag 5.503674934591458 7.306622111467462 9.034777992772726
Ag 4.120251784922801 5.049799152319078 8.072219232931728
Ag 2.130340649862459 3.263132990892619 7.1867375367992015
Ag 2.5377841407010755 8.132723262400726 9.012916631027174
Ag 11.27191391883667 8.91238098400721 8.160790060710688
Ag 11.165425327916477 4.261128303984361 6.2449858893311
Ag 11.584305356530514 7.254542760581398 6.029318249182465
Ag 8.929064408921617 10.309884147818877 8.841695981574254
Ag 8.183341337715413 7.744615469145202 8.138285084498666
Ag 6.307346313837592 6.325767315559526 6.4835340322781345
Ag 4.087464777696144 2.0853359611286715 4.9237867114151195
Ag 9.074282130019881 5.964313393258482 5.89813655912977
Ag 6.078909244705255 10.159152164839655 8.751439316665865
Ag 3.4618085774375342 4.809005159746965 5.301041479344992
Ag 9.52050227303295 9.390415890124954 6.083409095203378
Ag 7.576747270923355 11.38610837903605 6.607201250627018
Ag 1.4957605245248558 6.001411599359768 7.280074845886805
Ag 7.0746781686435956 5.020777746913814 4.154587357273086
Ag 11.346028523211702 5.662495390501828 3.8297244206164796
Ag 9.509418953191199 3.6016347695412056 3.737622163802723
Ag 3.7757139964217576 7.4669795794776235 6.592237780780584
Ag 6.8842953517501115 2.232998695623696 3.962664305197347
Ag 7.459134811367381 3.8732246495557403 1.681693150150438
Ag 6.120314497976466 9.079497657306911 6.144086934924883
Ag 3.740912025596171 10.233163520737305 7.2570970500019705
Ag 7.645116629561974 7.7393314888620495 4.212472117208309
Ag 4.820622771670509 4.090911385291812 2.9263937777628404
Ag 1.3507627462871572 8.846278152904935 6.558478066978509
Ag 10.344169344460095 8.30142344579574 3.6404287841510627
Ag 1.9281176406322442 6.997880831994646 4.503948421770969
Ag 8.067920314196138 10.505566343349178 3.937322652229659
Ag 5.422960249837833 11.363269029894866 4.784943301844276
Ag 9.15940588523773 6.07024276361008 2.2204261215800587
Ag 4.753972341528789 6.90648223231743 3.950167756130498
Ag 3.421190172201966 9.410924691085738 4.5018408949172635
Ag 6.426213113305042 6.573187261333969 1.7650316983528291
Ag 8.311001420715861 8.734260209796263 1.6910216082074814
Ag 5.709584018243144 9.314958597615025 2.8085700013760317
