53
Energy = -115.72972904 eV
Ag 7.281417292325112 5.664727470528126 1.5674420941511658
Ag 7.677314604761695 3.5231908539848193 3.2843205132760445
Ag 9.977680662318154 4.984199751570095 2.6083329802975554
Ag 5.128393913199775 3.5332664620721816 2.2123091120953142
Ag 4.584633497460946 2.3403856128320966 4.889188513909671
Ag 11.991212109469261 6.806752436866457 2.247772014840902
Ag 7.27348084281808 2.582696764831919 5.847854427060898
Ag 4.642010726619166 6.313189939385202 1.9387751916640303
Ag 9.290904372574728 7.643697495985037 1.8829013104479864
Ag 9.610451409386851 4.031097012161198 5.291068917348645
Ag 8.113618149161523 6.3126818499372614 4.230269953445652
Ag 2.8732266012740384 4.4798118141932965 5.804908758764566
Ag 3.0916579578969317 6.7386031086220735 4.258525723363735
Ag 11.949251390396075 5.394212869232854 4.739932816186339
Ag 5.52500510466693 1.0315666538341115 7.357146593075681
Ag 3.771132972158551 8.944996641466338 2.556158130656932
Ag 7.384421535518631 2.830996675742123 8.657780992337686
Ag 5.505811801300745 4.9486309684328305 4.559285425511669
Ag 10.52913097698966 5.834418946879785 7.207801672865483
Ag 6.579767330781522 8.448692541037959 1.640082749777002
Ag 10.649621752415674 7.824474117232786 4.449815571797022
Ag 2.930092649881027 2.113787187832306 7.3775692092159915
Ag 7.561991631455434 5.287593559960061 6.862514264755902
Ag 5.149765088537557 3.9143723752431088 7.340385167465495
Ag 8.723182904619437 7.850355373738223 6.479064399717642
Ag 5.728931384899452 7.730723024352084 4.176986548740608
Ag 4.753079503060223 2.394962466375802 9.697165562174616
Ag 11.348592137432707 8.549370919733144 7.239741330250626
Ag 8.788187982802018 5.151511069764845 9.362642105834984
Ag 8.138416090960646 9.284220427120294 3.928942782990938
Ag 10.09475061931118 10.372046676257014 5.569552013972008
Ag 3.5621395921762966 9.234364009570616 5.420377407391766
Ag 5.652226135606202 10.590371748795482 3.9032811698604246
Ag 5.04736925216713 6.691161131387145 6.770339796734456
Ag 2.347643467390972 4.62958634716471 8.550181670424617
Ag 6.061403961093376 4.951667431712377 9.980922889417883
Ag 6.351102280929133 9.259793969750472 6.460418174214324
Ag 9.708886177960535 7.72934727048119 9.374044385773761
Ag 2.3423751474767944 7.040350951917168 7.075085551116821
Ag 2.0141097505534717 2.30294131820868 10.050379000871697
Ag 6.866204404296828 7.6167735785830715 8.762228158076214
Ag 8.811718505953792 10.123128724384229 8.072517123373329
Ag 7.594702599065128 11.606904027355801 5.723491193982083
Ag 7.821604097694351 6.7768284463818125 11.403374059549455
Ag 3.4984524082254764 4.447020603969706 11.13991762068107
Ag 4.7961028239532775 11.56236204548286 6.510627127876612
Ag 4.047994315694919 9.15634995660249 8.165010522750713
Ag 3.8334516283697075 6.773378501692532 9.555081601292189
Ag 7.889174039263618 9.495396907067423 10.744369208079569
Ag 5.0650896333110405 6.525017667761735 12.114618260309882
Ag 6.203658974508775 10.768724087728643 8.867599749178245
Ag 5.067306160390838 9.023525742549348 10.785734771329436
Ag 6.558405409648758 8.632729213055976 13.098592253313248
