54
Energy = -117.93865264 eV
Ag 7.45225127638472 5.187468342722604 11.19677059943175
Ag 4.885175928128849 6.0546623925477165 11.1721815447774
Ag 10.639026238943995 1.88951960177424 9.600932392437345
Ag 8.02251712677494 2.65072572263884 10.069925048394454
Ag 10.133706102019197 4.386485837802067 10.880890171151972
Ag 5.293003848483983 3.2919885703597855 10.456479550415663
Ag 9.464681410399473 7.128929443800458 10.507195634170653
Ag 6.7597760669576585 7.527105721513744 9.660192641066772
Ag 11.236263954050482 9.121019052372969 9.801327537323317
Ag 9.130363282370597 2.60416058446041 7.30032245247732
Ag 2.747276462073522 4.538626490725004 10.27600678391238
Ag 8.636512175162457 5.113998960656326 8.634951755333434
Ag 11.470016586030338 4.18562207216144 8.368327195563397
Ag 6.318825289708137 2.3454166835077594 7.931865236903177
Ag 10.969915978852296 6.908397665718008 8.08405446219895
Ag 3.6233517767774965 2.980494763169382 8.139195460028109
Ag 8.50970052244658 9.694319894746478 9.668866822278769
Ag 5.518589373639235 5.282523836951944 8.437049322684793
Ag 5.7526921442970105 10.17955419177043 9.341870060922414
Ag 7.2387612151778855 1.7243203555796622 5.347071164428515
Ag 7.186982212642783 4.473072449359619 6.211591202512343
Ag 4.780359693615442 2.9999236873093835 5.588675519386684
Ag 7.855019056839566 7.194134264306899 6.9790472446954634
Ag 10.14959420584053 5.015720270976033 6.130139965713459
Ag 10.077303412613412 9.396143547099951 7.2961548749562075
Ag 2.405565067677176 5.449306029383648 7.652022455147305
Ag 2.95114388213717 7.323400817728774 9.60014770066031
Ag 2.0228703053776593 3.4411852093528363 5.806347026302213
Ag 3.0167102436758415 9.950481938946975 8.681728699437736
Ag 8.933304561167153 3.484123214262071 4.100539593065001
Ag 10.90147740119155 7.569391760350603 5.274578118195379
Ag 4.920848347363525 8.036547303958155 7.542127709566591
Ag 4.684413977456651 5.832947373690058 5.74749859007155
Ag 10.897942372420777 5.401281312591947 3.401919521902318
Ag 8.378863208099347 6.35181459338063 4.355332178976352
Ag 1.7622707022437216 8.073898863274403 7.088180907258257
Ag 7.309812188178222 9.961622854651623 7.0804921772361755
Ag 6.2153616807766685 4.6923272510125695 3.4935308136838463
Ag 8.801024186660445 9.294011007001567 4.803114364710059
Ag 2.016321785652457 6.208468663830155 4.973553938234261
Ag 4.73433936019815 10.879873384965052 6.72155906427832
Ag 6.180839495828284 8.133098117894296 4.8945338151936415
Ag 3.3549899958256026 4.2118545540661385 3.473874443385065
Ag 8.560418068262127 5.139448919698341 1.8095448068177555
Ag 1.9716089743225316 10.735803909305632 6.166694585554822
Ag 9.721676387377595 7.881949531802301 2.4773979737653775
Ag 3.4138817671436534 8.721135026866737 4.916449337972613
Ag 4.251981035161792 6.778936092627311 3.030776328256869
Ag 6.864759410833852 7.312160002165565 2.157238543404217
Ag 6.590891443292516 11.033148189341059 4.596639899051311
Ag 3.861300918836317 11.504418774650285 4.145525664044235
Ag 5.037370419349822 9.415871014717956 2.592563730696389
Ag 7.825258313148619 9.99097307736438 2.232645727155024
Ag 5.812045617245416 12.00349024042513 2.1163150415977228
