53
Energy = -116.80269773 eV
Ag 4.6398805955576 2.4298916652203677 2.939191040523118
Ag 3.4600590120117625 4.373456187771544 1.2169494495413993
Ag 2.0705757998370404 3.7625688610917645 3.736807216857805
Ag 6.233340358355149 4.387956826964686 1.6106700214441247
Ag 6.744494072716235 1.6205474153254995 6.242047594151481
Ag 6.853610530511624 3.6747113278874077 4.360533581457054
Ag 4.198604300912555 2.8988870352671725 5.6715893711422325
Ag 8.825867740950432 4.504943213699709 2.5924136267549036
Ag 9.115775380373858 3.185114530998896 6.350294126427787
Ag 7.657075410269376 2.3849373116413823 8.791158902534212
Ag 4.459720861918766 5.106785555571423 3.7484396076303925
Ag 4.850088377330772 6.9912235707409724 1.4537525535660318
Ag 2.237762822858894 6.507750615436567 2.448849644906974
Ag 4.906464927119126 2.0399887796807317 8.312969184878602
Ag 1.177087319285867 6.190569386596531 5.054737720089982
Ag 7.6930103875352955 6.702566353656526 1.0328524683029834
Ag 1.6988284957817603 3.776251057475853 6.541748493007239
Ag 8.374202605749087 5.827866829863358 5.666830662647175
Ag 9.494929360702644 7.130252970994935 3.211548653807664
Ag 6.6989675380932745 6.6977814069688995 3.67604241083767
Ag 8.604831256405808 5.148220904113663 8.41196736155405
Ag 6.192216231987154 4.3896216507532575 7.034804770688304
Ag 10.35885904834202 2.986071341246591 8.9264459719966
Ag 3.6757983114386117 5.789009935411873 6.3262699904018636
Ag 10.75718468020458 4.866631156325353 4.581726765341805
Ag 3.6050227603172575 4.457401661355578 8.697568926098336
Ag 11.17879927751202 5.2058572883692555 7.311105813584028
Ag 6.73948551764685 9.064093174098714 2.270162401100584
Ag 1.3535995990237608 8.74585904054527 3.7906945810294164
Ag 1.3885489077170716 6.1841467465491355 7.965489489821378
Ag 5.762593722579235 3.7278848260852646 10.39974138034444
Ag 10.682722295092217 7.5101458807013 5.772055232417701
Ag 3.9724806387325007 7.831230995241544 4.415243550782265
Ag 8.184970436097187 8.839551482407911 4.955788877462762
Ag 5.925761114874939 7.39003047797301 6.400132614831825
Ag 3.9092467086335434 9.556392884306478 2.33834326662181
Ag 8.50680085971216 4.107380898146647 10.966503938357054
Ag 10.822458234858424 5.5195732510924405 10.15579329396588
Ag 4.031038410316873 6.017826413763986 10.963747997078784
Ag 6.155587206245722 6.268982006661905 9.138013748065939
Ag 8.290490363543892 7.878425176877357 7.6825154533963556
Ag 2.091151545268698 8.486897800656969 6.513011058889089
Ag 10.880820093172314 7.849917939920199 8.623971297164601
Ag 3.034312188644826 10.63208392843348 4.923620195681229
Ag 5.734561244777749 10.099723862821081 4.674931467182173
Ag 10.013534904158671 9.98085406863886 6.884442629128529
Ag 7.210627546602166 10.480426303628922 7.1006172569779675
Ag 3.7598106610299964 7.5879823267147515 8.618815020602563
Ag 6.644035166285397 5.986669316095905 11.908487268015348
Ag 8.604364567407913 7.300405669822782 10.471177905029558
Ag 4.464672515809392 9.898083142213336 7.2189680396520775
Ag 6.183866218248071 9.03500330950159 9.339625352338595
Ag 8.873891608010318 9.935028486273206 9.47617473271167
