53
Energy = -115.58346725 eV
Ag 6.990310844843037 0.36861301320436746 6.500239421070755
Ag 4.588548072128287 0.7490711009238231 5.1638167831050925
Ag 4.612120252075921 0.5360654580855835 7.9751408028417545
Ag 6.903958728317393 2.360365478655708 4.336997309087739
Ag 8.578441304645906 2.541806076240408 6.728019779339853
Ag 6.92330311319726 1.9259202807258966 9.001166854029329
Ag 8.874340893339438 4.0168178638064935 9.008273750988474
Ag 5.559730682681634 2.9994044274109597 6.778954740661376
Ag 10.188704961560244 4.930829932216821 6.400592547987781
Ag 8.243067709238753 3.144973609106585 2.005428428811384
Ag 9.73430717546819 2.958459128512243 4.3166684333781555
Ag 4.019516956542806 3.245428890313618 4.275946867058513
Ag 2.8169026491778006 2.511687935507177 6.778890687328561
Ag 11.043091723178598 5.610564407336697 9.30286694084667
Ag 7.802451771195667 5.805056479718273 1.144336805141009
Ag 8.352253051193234 5.361747307307392 3.8959850804306373
Ag 9.928343258371546 7.478753971413058 5.072996473724286
Ag 4.105386353105552 2.819233894839706 9.364032069805209
Ag 11.728407223315065 7.2091789573418215 7.173899994131707
Ag 7.3636059993864365 5.088122008077874 6.600413060129882
Ag 6.230492683580467 4.731154072452333 9.298784096169044
Ag 5.833893704391246 4.358867411307153 2.5774263211510315
Ag 8.519520931083136 6.387843169217983 10.447611410035323
Ag 8.834139346846062 7.183545367529541 7.7351588837957745
Ag 3.324813494916244 5.723909546961744 2.9897750064821933
Ag 2.0947167577496377 4.9213286449229905 5.429779583221156
Ag 3.7806145552220176 5.253634410409683 10.597547909600028
Ag 5.012120900093446 5.734662327198538 5.24589328973805
Ag 10.56228200652485 8.340180337251649 9.623282814684746
Ag 5.788953665850799 7.112269494110157 2.6223857132690656
Ag 7.103923521622368 7.695937637546428 5.269820399002835
Ag 3.7091696477116427 5.112592691711668 7.76311895249657
Ag 5.817924752430522 7.220880038511184 10.540743206470475
Ag 7.831575428880671 9.10672837113447 10.090544593330334
Ag 10.329023702638434 9.608517940505765 6.935846599763776
Ag 5.800153574649671 7.248809324955076 7.688927323958764
Ag 8.414927277001597 8.038551180373439 2.758595887573435
Ag 1.1726766207663175 7.167704866326832 4.034320320432973
Ag 7.42809890301805 9.711375846014658 7.33324843071295
Ag 3.2717837875090283 7.567747750165475 9.131378799434987
Ag 3.638972101838229 8.421976422800151 3.7639160416704835
Ag 2.828465691605526 7.506576805878349 6.333784536854483
Ag 8.66599911375158 10.10924862124883 4.733261254269633
Ag 4.872179541531067 9.550315837094447 6.013102491687309
Ag 9.751453728140252 10.980771228694756 9.27967040533373
Ag 5.187445800829577 9.679186496563666 9.24397209633798
Ag 6.126344650781864 9.757922598064185 3.506852596156758
Ag 2.7768712592415836 9.943212848912037 7.787778232655868
Ag 6.500998258105978 11.838166545956053 5.345574233115687
Ag 7.096373941555775 11.807228059768738 9.237993664396619
Ag 8.901554449471707 12.082459667449953 6.820931084294722
Ag 4.796362401814134 11.890067142180312 7.578764759805829
Ag 6.737911657487762 13.84545901824714 7.3415701989627395
