54
Energy = -115.77657823 eV
Ag 11.595555878400573 4.85394540461813 6.1102800674692235
Ag 12.359501202873332 8.303324788434384 2.639243360000227
Ag 7.730803933374744 3.6023085512567445 3.498774415497193
Ag 1.9150492116543123 10.365769039907871 7.085554990631339
Ag 7.253366679807209 8.561769330611156 7.38949458800333
Ag 8.6586973277892 10.641801285956102 8.799203570873091
Ag 4.528446281383068 9.379478888804153 7.283228399828462
Ag 7.021549972138659 12.787041171838352 7.724700992540961
Ag 8.45738906265487 5.430872228431459 1.425999645105502
Ag 7.6516200845582985 9.288942910042719 11.031779571870809
Ag 4.1807600293290275 6.2177461153432585 4.158521157453914
Ag 5.488643140636882 5.047527642570483 10.461244433970723
Ag 10.85803116318622 10.055672014247051 4.304842690043831
Ag 0.25129378666859087 8.870912281972256 5.309339390835872
Ag 10.973100462237536 6.101685820450731 10.656196722952838
Ag 5.449703380415615 7.839760214979607 9.502050691612583
Ag 4.9633597262598235 3.9578068293543023 7.887998513118077
Ag 9.86525482543832 4.609163260910291 8.450774314315026
Ag 2.893861723138135 8.392927562760956 5.342558182262535
Ag 7.439321737084825 6.55789475633939 3.7891490251298685
Ag 9.634736262594126 7.897281468500519 2.68202390751432
Ag 6.268117338302565 7.147254642812249 12.218133024770289
Ag 2.929170919584502 5.272141421513024 1.9602996668495258
Ag 8.318470751832137 9.10092130199302 4.789904966271401
Ag 9.044916585026952 7.252855740298428 12.383554535508
Ag 5.919832861304676 10.773571897546448 9.369851730654336
Ag 11.678948291323124 7.561918237814244 5.256396356328219
Ag 10.068124924501706 5.209768789091674 3.7456199845391382
Ag 6.344764568373338 10.935101413113816 5.829272960266942
Ag 12.822652033967898 5.675411800634966 3.6099106962069185
Ag 9.0722895317844 11.511029896229676 6.098024260678789
Ag 4.250769140572426 12.078442927328094 7.454778294674283
Ag 6.867929890129044 2.219393389556236 6.549803178064151
Ag 1.4352366064311293 6.895222565909865 3.631471525687624
Ag 11.19544258934556 6.0728088271170355 1.29616926576029
Ag 5.710471973458127 4.975840781688275 2.1873101952938065
Ag 8.295094293801178 5.245415681583875 10.728162331340613
Ag 9.096433271138862 6.5577670496251335 6.253351739147125
Ag 4.351368917992204 5.1871157603985205 13.038712668305157
Ag 7.065738268248993 4.680413535318374 13.110840113782952
Ag 10.251597336892976 9.163615347168609 7.0276200891973515
Ag 9.078567883387622 3.6841470460942043 5.894201335550809
Ag 9.337743149276196 1.7921698679098264 7.874766970243455
Ag 7.10287682615674 5.828297899443025 8.190558568844793
Ag 3.165253622320515 9.73767608699296 9.619954856951093
Ag 5.667095569233639 8.407931668674882 4.905147171643657
Ag 4.7074536351437235 6.637548347375634 6.94899439645249
Ag 4.962147646038245 9.58648979588255 11.745537623536972
Ag 7.355453757419457 3.1810656169464306 9.163845029654482
Ag 1.8392209761722642 6.12067712127358 13.233181639385082
Ag 3.469500504826911 7.199364100020735 11.31633782541954
Ag 6.242474975118168 4.752987828999406 5.529758808361399
Ag 11.530607955916055 6.865447037723215 8.020721606404361
Ag 9.15691518900005 7.699508276516916 9.294164350584843
