54
Energy = -117.66778402 eV
Ag 12.728456174898609 7.949644623309703 3.9985019417994447
Ag 11.784252904409204 8.87178493623455 6.402528855114794
Ag 13.048044689235496 6.42173712177158 6.393214748596752
Ag 9.924246500451563 8.257329758847863 4.104444836598799
Ag 11.593389808595077 6.960301028006659 8.760919920156237
Ag 10.06535959949942 9.480913266145496 8.460779448188376
Ag 9.637527660328393 10.564051549100869 5.808975088161491
Ag 11.195729358986759 5.6852417890019815 4.443403967335433
Ag 9.10624614660487 7.411278149834777 10.025295488587112
Ag 11.247198638656771 4.397886246796938 7.105280484709942
Ag 8.401388144785823 10.510155529798302 3.290213561557055
Ag 9.813921298916236 6.833901334023298 6.704213243682382
Ag 8.047090596357185 11.47912651579455 7.969319652503551
Ag 9.626427894214276 4.758923402411831 9.357812600741731
Ag 7.878654789240972 9.926998173847883 10.224976613875667
Ag 6.813410794467084 11.146342287996424 5.502146068661107
Ag 7.513747616682721 6.582682732079409 5.026009755648404
Ag 7.02891377757871 7.945134783083715 11.955917958848438
Ag 8.897320475692279 5.583686183399806 2.8416669296853496
Ag 7.967485527990107 8.050809296268492 2.102861527399041
Ag 6.389089843024248 7.615220634079733 9.128022212471162
Ag 7.533445662533315 5.4574969963896764 7.619231382378883
Ag 6.083739214396024 12.027990572528372 9.900347022563677
Ag 7.763896597938313 8.754781319292912 6.88079824721021
Ag 9.060074741598518 4.152111718360602 5.293822076061744
Ag 7.186703667705492 5.42973557057213 10.75938746735883
Ag 8.915906370365855 2.6842294690976947 7.5727051362436635
Ag 5.022504291669173 9.530524591902964 10.660543072873407
Ag 7.788331310205776 1.5990195285862854 5.071663698678891
Ag 6.849176364947314 3.809933625237158 3.642672888082741
Ag 5.397187096412946 10.168953618386649 7.886984515483038
Ag 6.863661921094447 3.0915955716437424 9.40220736835758
Ag 5.846148556916988 6.304442792094357 2.7633363205921437
Ag 4.874561349580603 5.178134900510392 8.259735216756829
Ag 5.162658687512643 7.697427536178684 6.570076632912596
Ag 6.143886192532991 8.857950925262479 4.0088888700939815
Ag 4.176711576660022 10.311855329017883 5.211160063535814
Ag 4.930823190574848 5.235167656367006 5.295054757598454
Ag 6.143428441754426 3.062894217655672 6.719659634892146
Ag 4.6017067287309885 6.683596604889722 11.20881960691681
Ag 3.494288458695888 7.774259086718562 8.928251244059282
Ag 4.791072440171771 3.9400389123937796 11.09061091575794
Ag 4.976690214558394 1.8827990747400767 4.493878518336238
Ag 4.164765498165565 4.078279088681131 2.8113056015806617
Ag 4.109575702058147 2.5699447168405465 8.8079804964086
Ag 3.521909466441233 7.441128795417437 4.194889420337536
Ag 1.771966625908453 9.607818389785796 4.015619773722456
Ag 2.3942828282081257 8.798161408545077 6.650953225678962
Ag 2.5671939082323227 5.135537016118613 9.714722341522172
Ag 2.461736902569428 6.0072414734729715 6.953982897733157
Ag 3.172891931780786 3.25348517932399 6.327065968695139
Ag 2.2892571114306333 2.2637333741960313 3.8485659036115916
Ag 2.0263556928218738 4.975853302700903 4.338503337572564
Ag 0.7240939520291408 7.255067158744553 5.077040710406776
