50
Energy = -108.98692252 eV
Ag 3.5307103849928825 5.512009144373747 3.7421890009095877
Ag 2.8470161352412524 8.164126201633673 4.343954997235665
Ag 2.658911310265016 10.86702041700382 5.276267918033371
Ag 4.959265190637859 2.959626287082256 3.411700394242252
Ag 2.6343507136383533 3.1634131376449997 4.957399952373028
Ag 5.225519237991736 5.0567321013962285 1.4891694380710314
Ag 5.17777987175906 7.590259693572051 2.7914529220242104
Ag 5.12391605682481 9.917315325758375 4.4373923921445275
Ag 2.764258308509573 6.151826441876476 6.407956427330892
Ag 3.7196863092000614 8.913420274677181 6.872622279591406
Ag 7.633138184581952 6.5463393152456 1.7196479839438017
Ag 7.567237150252216 8.848441585550438 3.526121125504481
Ag 7.5959713095562265 3.5473007595458013 2.1067345545272302
Ag 4.933144100250776 4.4280672040007145 6.092365948924675
Ag 4.783538012292091 1.6137155843853 5.98831131301774
Ag 5.033364211081841 11.448245437896572 6.772186856918875
Ag 5.964524334985287 7.485022533534989 5.62784583273894
Ag 7.323354367237033 2.7174422235415348 4.84676494840734
Ag 3.048299675358102 3.2014424446649326 7.698572536870236
Ag 2.8504702276798968 5.488298702581922 9.251864545192388
Ag 8.7722263138561 7.249206262595514 5.43870208860792
Ag 7.453299698178957 9.902459619929502 6.255206656445168
Ag 10.017730703032809 7.416159466858974 2.9265668338000483
Ag 5.794300855004122 9.489041675918699 8.762163357615654
Ag 6.550995594184068 5.356773487543772 3.968147996426051
Ag 3.159531205149139 8.271033418940732 9.524620681566512
Ag 10.049281341438808 9.603611780153773 4.845257666010182
Ag 9.926581961375714 5.011474409305696 1.4505616900547351
Ag 9.397801719588642 4.797248542394091 4.190048501537838
Ag 9.839647837600237 11.200255921218206 7.116250737008064
Ag 7.0946586476172735 2.3800156120544056 7.620126155077531
Ag 7.540387217812595 5.046003773925369 6.6254586181885475
Ag 4.857446323734382 1.4126872114300433 8.846628975530257
Ag 11.598296490242413 7.173542514421661 5.279088790289409
Ag 7.742594988926159 7.437836879518569 8.088026413489008
Ag 5.465943135925708 4.220441169063284 9.14095753652093
Ag 5.049502058685228 6.6992172011216065 8.067233144288783
Ag 4.901933808550648 6.543149315739507 10.89609016621614
Ag 7.349932260937281 11.91696816277645 8.262464310516146
Ag 4.799266784959843 9.304562207650806 11.519846924240854
Ag 10.580779693582295 8.525352471010262 7.548898486311146
Ag 9.598552716617146 3.117820376637612 6.479819156162681
Ag 7.090057729022678 2.4847811898549805 10.4905311634776
Ag 8.875475382157239 9.762962769578591 9.317326597722554
Ag 9.664770336187665 6.875477359293051 9.904535637248653
Ag 10.281429686504989 5.756949545433484 7.330787054080208
Ag 7.2856104219709685 8.111727596037241 10.911301741795835
Ag 6.909006024046626 10.98276024752596 10.882946894377804
Ag 7.418692087409163 5.344460342446398 11.065803365662632
Ag 8.7869384047938 4.192853972091846 9.040009564807676
