51
Energy = -111.91366814 eV
Ag 9.621425105287031 9.240975180047144 3.1409297926250948
Ag 8.218275428222544 7.912980869397117 1.0882618294967104
Ag 5.806197101907644 9.502538046722632 1.387538688134615
Ag 7.2611343859176705 10.931773474152296 3.29043464329726
Ag 9.342952021999048 6.48647846383322 3.375186314745486
Ag 8.436762188830064 9.812314370097473 5.574557896675073
Ag 10.459328898608586 7.867063345240225 5.568805146619316
Ag 6.920650325853012 8.17831832471746 3.5809137261118824
Ag 9.934657771996555 9.396135254063976 7.927150006745562
Ag 7.9629352055860565 5.121120646429207 1.2888240963072743
Ag 3.7707578054664475 8.285155733995149 2.941808777032252
Ag 5.607161943624119 6.718356778923627 1.4345101730875436
Ag 5.593016122724307 9.889625027889364 5.437617964468432
Ag 7.13264126383566 10.318571519059624 7.929792025432478
Ag 7.733817152473728 6.907150284976589 6.0004268639746785
Ag 9.94859702421569 5.0135611374709885 5.814546439400274
Ag 10.513691984480015 6.5603506948345345 8.092794336309368
Ag 10.35150096347609 8.129720275462876 10.44887700081678
Ag 8.417181979988564 10.104829897929902 10.410361824660963
Ag 5.458505426593636 3.933617328739819 1.424753305821477
Ag 4.343486443768427 10.461038254410546 8.157167358079086
Ag 3.522217044766342 5.414209431773008 2.825813052034494
Ag 9.149723096187811 3.6800507749211073 3.3980173160766878
Ag 7.981032298906318 7.6624352655410854 8.910393081295492
Ag 6.769594763337551 5.169989702748636 3.867008828853808
Ag 3.120772974304277 8.824892335405368 6.271639646600975
Ag 4.828440990955003 6.881900678659989 5.000834854687856
Ag 8.079051130224366 4.945674086731566 8.068136807509193
Ag 10.369798840622959 3.670575307826173 8.51108012464312
Ag 9.350648204303038 5.560939256033103 10.58928931005935
Ag 7.7065074883464355 7.702834901522783 11.736951664315143
Ag 1.987218793439414 6.767354139849392 4.816439758940287
Ag 5.756706108786665 9.167394908355414 10.251622999963438
Ag 5.5468031260651 7.966442944410088 7.51268335756573
Ag 3.2563402561108155 6.105745209558797 7.410929722699997
Ag 7.860308993056823 3.120062389473926 5.839290666532619
Ag 5.711768823717113 4.87242518882975 6.642901409672162
Ag 3.8654171943677365 2.5615329763136123 3.2313879918429764
Ag 6.920184222555815 5.084789587692498 11.977030356343413
Ag 3.2901859635176374 8.087052686521957 9.420808760535854
Ag 5.737291615742657 5.916189190674114 9.37556262219719
Ag 6.6596639789630165 2.3456080121368683 3.387590292142069
Ag 8.094831634539647 3.1129364605065533 10.348376435601137
Ag 3.2142021102047753 4.232287213725288 5.347817114848837
Ag 4.836953257977232 7.003236909439051 11.753616533291874
Ag 1.0162948738241793 7.622795139402081 7.595145484116615
Ag 3.1248605766217032 5.325465365783822 10.158239295584924
Ag 6.45786828922838 2.5267688090347735 8.204077002564825
Ag 5.119267824543475 2.1979667470658653 5.745262996271715
Ag 3.775627471522588 3.424581037982231 8.092141659765165
Ag 5.2105118597432325 3.4231052204222516 10.57172530026086
