51
Energy = -111.45689347 eV
Ag 10.390658712647136 8.451913750320362 3.1634795202781096
Ag 8.132395836829348 9.88516193292652 1.8957327362630436
Ag 8.823654528505529 7.312180167975501 1.1391438406612064
Ag 8.82165159259104 10.586597737482865 4.486059101478199
Ag 10.402228654072752 8.740264500849975 5.912085166278939
Ag 9.529682302986778 5.6307465157339225 3.3667378143468802
Ag 11.210786191643974 5.868579346710115 5.551106033337169
Ag 5.908293561975769 8.196785752657998 1.6118778666608125
Ag 8.06396034536981 3.216826812936661 3.186237039436577
Ag 7.787416448589265 7.847416258345434 3.903815996815655
Ag 9.231438667019582 3.7650959230075474 5.711268799276232
Ag 6.071857038486601 10.167481130656476 3.8346504256755938
Ag 6.941164382849564 5.5311852082712685 1.9977790350520304
Ag 11.33718402220367 7.159466202874056 8.047390386162327
Ag 9.344490498048778 9.083263378647985 8.618032768435365
Ag 8.753537541064583 6.615666728723062 6.5723845556928575
Ag 10.233293343627015 4.620881018478361 8.133416402019181
Ag 6.666561570746833 11.69200873429314 6.222543881296823
Ag 6.943320792548874 5.280345280829845 4.828066218454007
Ag 4.999495472101021 7.121044661744954 4.007638919303394
Ag 6.570112302589046 2.6270960113439528 5.644103501251833
Ag 5.271786660044485 3.599410181844014 3.2075503087280985
Ag 4.202471456320492 5.78946549195772 1.6273969119378573
Ag 3.4240396274683302 9.335434024784869 3.6596559797077983
Ag 7.537564928371592 9.138237476051168 6.475710443074417
Ag 2.191779634603472 6.813511374524967 3.3031003507559475
Ag 2.5945792514272727 4.0551174297277806 3.24017491194806
Ag 9.733431833956931 6.657378814938922 10.262248467066634
Ag 7.294214675271517 7.243379570846108 8.968674084848526
Ag 4.195866313048608 4.817875944664076 5.814764228130487
Ag 5.670908500648925 6.986989504185443 6.730871404665982
Ag 4.700502119867069 9.71999669615316 6.273893239018351
Ag 3.7355182253490398 2.18886026887442 5.150823648642017
Ag 7.027588451991069 4.6509998978786316 7.714511126209463
Ag 8.68556169376975 4.058170787001195 10.2871778436077
Ag 8.163685060718302 2.310425808304129 8.117812296216979
Ag 6.210072214393601 9.846767337280273 8.833855896949387
Ag 2.9437681583071917 7.540981435801737 5.922418300374286
Ag 7.977169811264539 8.827272417030676 11.070055840297767
Ag 1.3786040984663666 5.183682179626574 5.485054468285957
Ag 4.879495474978049 2.719477161688742 7.8456609527163215
Ag 2.188037265912284 3.149015139680052 7.326357194006114
Ag 4.95987108862368 5.686897309053298 9.289758998190576
Ag 7.229590632262516 6.041287508614904 11.551730437526395
Ag 3.8413364347822525 8.247366343333262 8.570496369898029
Ag 6.07108713574471 3.275543999476344 10.275375521223797
Ag 2.3796724370212203 5.811166948532617 8.06345641221312
Ag 5.250611468495141 8.015352833857749 10.98516663733257
Ag 3.160373965329938 3.699256213253074 9.945078995779632
Ag 4.68250436335531 5.0634378470563925 12.009664514560539
Ag 2.765641865966191 6.6269818335164175 10.690575815480935
