51
Energy = -110.55757524 eV
Ag 1.1207081588108307 5.178315322846411 7.567741781625406
Ag 2.4797601334045636 4.787009865562 9.955264924679211
Ag 2.4433294185836814 7.4701893776861 8.46359514102625
Ag 1.0328202883676298 7.29691425703085 5.814843460544055
Ag 0.8511394503566142 9.382087955320971 4.071452576002583
Ag 1.9733947285629525 9.733523301281945 6.701788705925441
Ag 4.499968092284305 6.615859714674358 10.265351427637974
Ag 2.7345959482477724 2.891965407362104 6.873516164585528
Ag 3.818881305987243 2.36064949302571 9.34574486013948
Ag 2.5577198748467165 5.092000976224159 5.151148627208275
Ag 4.29592403906521 2.930797382720026 4.504691197412256
Ag 4.106728962910489 5.2395022612654945 7.720218737644844
Ag 4.238260102124781 9.69463459582923 8.37053915583388
Ag 2.8406775013042944 7.392516631182096 3.3648185450070907
Ag 3.263774497481064 4.738832037250229 2.538189999341692
Ag 3.981651067272874 7.624264731442915 5.9872530003956
Ag 3.5243284150706273 9.971031452002538 4.325990190280688
Ag 5.965258973993333 8.91576188847878 10.531352165777026
Ag 5.59697976906406 2.8368254767540755 7.1107776619702365
Ag 7.126824773653194 2.910051300090895 4.662150507947041
Ag 7.4508318879499305 6.387054893919437 10.196591258275323
Ag 3.932607201449617 11.743912174653921 6.4867277487739115
Ag 5.8106627081852755 4.142012672362973 9.802385468639725
Ag 5.586630324795535 5.302431779395327 5.213333863194946
Ag 5.95439270973284 7.5399143380936815 8.042354507967096
Ag 7.321191975423441 5.173011218272005 7.562230760658439
Ag 5.939893607183774 3.9503669775287924 2.382561913681766
Ag 5.86658388880411 9.84759967948795 5.918542388171954
Ag 5.033626043046026 6.568548232174526 1.4859305941434418
Ag 8.915170889552227 5.091827386652119 5.2425221863383555
Ag 8.747624684024 8.890957668708804 10.462282620508587
Ag 5.607883627537378 8.250433132737244 3.5874419206149493
Ag 8.6148586883013 3.7022175592102515 9.606016621309587
Ag 8.420249444502966 2.593098307078243 7.034002984631818
Ag 7.123253181612718 10.251680434890739 8.389396470015294
Ag 7.414113831278607 6.177642270371953 2.9479474671228263
Ag 7.392614228495191 7.401645617506591 5.638195067819243
Ag 10.343537064181591 2.736768756658346 4.971250492219098
Ag 8.83445538238927 3.7708748899425433 2.6232907733517257
Ag 9.06727657965548 7.703354103985081 7.925859034044915
Ag 8.683532135763237 9.870709877530995 6.025958370803622
Ag 11.35569967232139 8.37438987784821 9.568878528586312
Ag 10.278867412372842 5.865470714957871 9.714421874004527
Ag 8.53457100252041 8.643770810971843 3.430550302481028
Ag 10.654823138642556 4.111991748884811 7.5218018296620945
Ag 11.838941330189602 5.2014523941189434 5.146057257533513
Ag 10.27334628193509 6.300785193659689 2.9485239862520847
Ag 9.89592202779634 10.486240118921565 8.440332729202556
Ag 10.391069745722493 7.652404141270134 5.3888202110688574
Ag 11.63710940818894 3.8712825769118417 2.7318783445448975
Ag 11.891794737325188 6.625350494560744 7.517828877466615
