55
Energy = -121.07264487 eV
Ag 7.195197255520132 7.573191636473797 7.099577997819229
Ag 2.633022484001861 3.1770420812655336 6.127708751019556
Ag 7.111448559817874 3.1934786253340754 9.656214093908472
Ag 2.4590890346956513 7.501719891331819 8.53068480077752
Ag 7.312269692128116 6.116032587800727 4.623099159406252
Ag 7.132592087724597 6.139474652839255 9.6047772824846
Ag 7.129010455488285 10.447911077258834 7.05069116212155
Ag 7.278691777750694 9.083921712522029 4.547780448135853
Ag 9.375191540036159 10.383952407800297 8.787493317165145
Ag 7.233096261440707 4.677646417836013 7.113053781835583
Ag 7.372347328399763 3.1541095163708937 4.570975145348079
Ag 4.759764510329194 7.570319930880626 10.354569666949336
Ag 2.4909769036363687 4.609494017023425 8.54122935766714
Ag 9.653937352270484 7.598926025320536 3.8992689244247356
Ag 2.4710422973090522 6.078376173994698 10.9447168380306
Ag 7.250698923371274 1.807834835720999 7.087892620612286
Ag 9.700128835597601 4.683927246397651 3.9101788788192122
Ag 9.592989474706819 4.745902602720409 8.849289360161173
Ag 4.84845653631499 6.0933692629675615 7.806239139311457
Ag 2.5799657240093623 7.452731187186161 3.591663621055793
Ag 9.474806037524568 1.9407927718703368 8.846965050759026
Ag 4.792885336147776 9.055110211410298 7.8842230584606465
Ag 2.6247848009014954 4.61265514473735 3.596752255628275
Ag 7.047106419731758 9.083061419002803 9.6221614514948
Ag 4.866637276078094 3.1348277157926936 7.900619197914721
Ag 5.047650878664697 6.076519990899276 2.8501839725408873
Ag 9.56079471635646 7.578870107388505 8.8310321958056
Ag 9.657679264802054 6.150215847288308 6.359756561060509
Ag 9.655270059982413 6.139466963297716 1.4746786410273853
Ag 2.7336345620345313 6.030787287855531 1.0793089352682181
Ag 9.517373445887328 9.036219281423005 6.30501462702094
Ag 5.01591412416359 9.026523598015034 2.8145716232807416
Ag 2.7131001842881086 8.859623770951258 1.1568113498820067
Ag 9.604130202956553 3.270113833853709 6.342773117725115
Ag 2.6417018345514833 10.261884429815856 3.6333534762072097
Ag 2.8180925474240213 3.201636533568231 1.1578101255351196
Ag 4.931794904338698 7.535714092876473 5.340498406947103
Ag 5.1130290215358 3.128350397750973 2.820723903285378
Ag 5.060606061628529 7.5288600561844286 0.36767804051338965
Ag 4.881125516705426 10.414296101803053 5.370181695178752
Ag 2.7848373903532573 1.81100957491446 3.643320789661866
Ag 5.109907135191384 4.620786587040247 0.3670953021260772
Ag 4.973975172588119 4.631607590755687 5.346623516121879
Ag 7.3822642035919275 7.678374228204011 2.099152816855169
Ag 7.419790124722 6.110385138010022 12.061439329237675
Ag 5.013634094187373 1.7589799226027036 5.398701889257213
Ag 7.432575875040949 4.5450103859346545 2.1089589898675705
Ag 9.450320618936171 6.175605810123589 11.362587614418866
Ag 2.500653599719101 6.041601787402938 6.074650844594652
Ag 4.787214007849528 4.642343470059498 10.354238399261208
Ag 9.397695350059712 8.995410477180663 11.255986494518075
Ag 2.5541785295984267 8.915166126072174 6.119976727156782
Ag 7.0848933771313 7.5978001795006005 12.046279798115664
Ag 9.434649443833699 3.35594032267778 11.301223568968881
Ag 7.0973041438955615 4.727014251640262 12.061439329237675
