51
Energy = -111.93774536 eV
Ag 3.7991545314240893 9.643047823787093 9.68620479032487
Ag 5.999417605697859 7.97787404100124 10.020778595487881
Ag 8.448641593508535 8.857110319425251 8.546487270180945
Ag 8.323446944674055 6.23359018211156 9.82269013306061
Ag 8.183374432357153 11.260734717804617 6.980905846023532
Ag 5.887268079207243 9.956717403889732 7.928722303033128
Ag 3.243266649033135 6.855285052253681 9.792030368757827
Ag 10.163856898582027 9.217701630351653 6.154707200345168
Ag 1.5279008139949746 8.771811450887945 8.498911962732763
Ag 7.680439826637915 3.6559711209423607 10.605354604843308
Ag 5.550280770905094 5.235090645647622 9.80844954005111
Ag 3.289581931602924 10.451243070438053 6.878896079169692
Ag 10.09485395598938 4.071006374797973 8.92489601359043
Ag 10.13259339284073 6.744590339550071 7.696597178358831
Ag 6.795930917757296 6.834974920573006 7.564399116301658
Ag 4.092352505718745 7.748576126326788 7.187598254805877
Ag 5.669769204709232 11.04533365698096 5.32345505684182
Ag 8.34731261232052 10.929383557298351 4.1788206632436715
Ag 7.452429371157144 8.846260986040933 5.810996583337196
Ag 8.363951658684098 1.6799273860332395 8.846942798569673
Ag 1.6278885989752072 6.196049633793379 7.549466278179702
Ag 1.4569396544517288 8.484770979106198 5.766686753042062
Ag 3.1216366437335656 4.109787513071282 8.87675720460426
Ag 7.668265106139573 4.1751137332312735 7.631372262168756
Ag 11.301238191530192 6.9052813966660205 4.967219564934346
Ag 1.7332279712833487 7.7729825068414655 3.098471651871339
Ag 8.657066842275077 6.158388779077623 5.355577752034583
Ag 3.883743536855177 9.058995066633273 4.495017889165685
Ag 4.831911269227146 4.87522746189955 6.880901683105174
Ag 9.255044545939754 8.359581266898553 3.5580538789347047
Ag 6.441093461753918 9.026924498994251 3.232594748632543
Ag 11.32816783401645 4.574454866847056 6.447022155013695
Ag 3.1250316087126886 6.056747643895876 4.905701983044349
Ag 5.571568002534603 2.601644648661618 8.814749389554184
Ag 5.820849010427212 6.736540061291735 4.971492116529109
Ag 6.930123804141772 4.002466608100507 4.9384231053556675
Ag 1.9465017893382761 3.8347113330862443 6.218257617575908
Ag 4.201545180735435 2.2074901445881783 6.33958709070355
Ag 10.05626018872453 5.905148700722355 2.5413373880145524
Ag 9.683569363520194 2.3726671924481453 6.516394424762358
Ag 0.40444436983677085 5.966574106133505 4.969271778259681
Ag 4.461202703313963 7.092263994697476 2.515173437044175
Ag 7.311520486731826 6.284588118050241 2.6877085159891534
Ag 2.409727865939143 5.146040186575827 2.316293515541625
Ag 6.9063611932773465 1.569482360954455 6.47195777718098
Ag 5.161919173738772 4.400161834744739 2.6921294779850253
Ag 5.640286918988203 1.7920269260172887 3.84750527714702
Ag 10.043405679837035 3.739909711806839 4.157222486408642
Ag 3.1124773334395286 2.956315043947908 3.87184129869137
Ag 7.893587750015546 3.5538148156063953 2.3264677655680654
Ag 8.447675708313895 1.5048799189027475 4.134216901951155
