54
Energy = -118.47506922 eV
Ag 10.867582762151269 10.829126284739528 8.082824045475213
Ag 9.111943175073488 9.48629841212148 9.8620557165615
Ag 10.81853126792019 8.072061409409335 7.945476755979673
Ag 8.380220933216432 12.024840820503593 8.553408818717747
Ag 9.106870845447006 6.5131916164539 9.698115392987603
Ag 10.815839470240299 5.290748473818299 7.628569011546387
Ag 7.437155977986498 7.718788596035032 11.62044997115837
Ag 7.025362431796804 4.9287721559482485 11.087649310171205
Ag 10.797531860593368 9.609987321217426 5.53673569822535
Ag 8.872495783525459 3.7918458711431247 9.00521702869948
Ag 10.478425910625356 2.5835382997762726 6.990114960389926
Ag 9.461757339289733 12.001893076727649 5.8891508669976425
Ag 5.882155041903217 10.794555421358028 8.542654732485774
Ag 10.88430361568212 6.869765492355265 5.2601332552837725
Ag 8.266926856895527 9.639505462332435 7.0654712663006265
Ag 5.314175575367554 9.54217039610779 10.994722108852516
Ag 6.824172286246459 8.179519455357807 9.000426595856847
Ag 8.499471337827687 6.799271656080414 6.917249850454607
Ag 8.67684153761114 1.0197431952112899 8.602611683720172
Ag 6.534519568881411 2.4479305797248476 9.774812316023992
Ag 6.713788156538637 11.893697876450481 6.133820549212068
Ag 9.351465884796315 4.533681222285572 5.293318797558219
Ag 8.134955488503811 10.00754995063269 4.277399725908604
Ag 4.852272240397828 6.801815502671013 10.511079860081981
Ag 10.195460888911771 8.481717468407684 3.0663848052177936
Ag 6.537920162778193 5.3854702807364445 8.428439314269498
Ag 8.15354112583025 6.872372939462352 4.057334042316513
Ag 5.884166583930903 7.82137911212382 6.428332339817457
Ag 4.312436752236645 4.216545574551781 9.918940835854901
Ag 4.041622388967974 8.694570265854834 8.579602957998963
Ag 3.889727015014699 5.985554709676739 7.593096066579565
Ag 7.749574968613446 2.5926375248671154 6.480350081260075
Ag 4.426430775367941 10.30746065460783 6.175183909753142
Ag 7.388654372061291 3.378840336087324 3.6820020359248757
Ag 5.8065149379128025 8.371174593610059 3.688802113034908
Ag 5.08441933322925 3.254555888195687 7.313780067110077
Ag 5.526273092216826 11.199863791567902 3.7361868224304056
Ag 6.427555891277876 5.126683368066046 5.623075596662857
Ag 3.9044495834221835 1.5277879430534498 9.316059708959681
Ag 6.039897716522626 0.6063161487079782 7.62821434588081
Ag 2.353269142031253 3.5804755304082976 7.812241575679527
Ag 7.715000420563874 8.794755305735642 1.7866010220620339
Ag 5.890033066482887 5.631591167033167 2.781480165004951
Ag 2.567411595352588 8.206616976973407 6.232874600289322
Ag 1.6317062824193207 5.535731020161092 5.839612282810482
Ag 4.005063840650416 6.459961259455625 4.690039776152936
Ag 5.567127690368337 1.672313405951916 4.953784129498016
Ag 3.238791038293115 9.47327889719849 3.7587860990423327
Ag 4.767345132846016 3.0825679236796284 2.7062040110778307
Ag 3.338998876007278 3.5161107785698147 5.073315994426753
Ag 3.348029293043347 1.1332901264774897 6.592634916717802
Ag 5.064915538405587 9.785155670134335 1.3780604047541758
Ag 3.77424784070037 7.364948984375143 1.955101166675678
Ag 2.660360181265417 4.9643784491633065 2.811094653717426
