55
Energy = -120.96467159 eV
Ag 9.673448079534502 5.869343485531057 3.218520205820107
Ag 12.275172925560819 7.067263530847966 2.6049306308966846
Ag 5.265748601777767 6.613330547971204 5.439055306972551
Ag 7.123082827690808 4.818826919188819 4.2305824423113325
Ag 11.761358164012327 6.206465272603068 5.1751256000969805
Ag 5.974883158799084 9.448079705238456 5.796940008886086
Ag 8.539743820719723 10.255198307804507 4.948340901004651
Ag 11.305850195420936 11.10342553887291 4.473417052256588
Ag 10.370573407324697 8.489267004225892 3.9622818458350326
Ag 12.939310681052861 8.741074825523132 4.960262324733998
Ag 6.845067393037621 4.501967487368319 7.16918652372097
Ag 6.866001375813223 12.018690125206835 6.488144637184623
Ag 3.853015087167564 8.433203223457124 7.323745063790357
Ag 7.818225951381897 7.49913263291526 4.698048910639548
Ag 9.64546572573377 12.370686269991792 6.384667783834523
Ag 9.287188157046298 5.075490281071091 5.858376228541653
Ag 12.33148667863816 12.558280425815047 6.896252917945039
Ag 8.256474240842218 13.404752102483291 8.552765426946433
Ag 5.501882025421946 13.836411562725624 8.083948447177034
Ag 4.379157079739703 5.753156674069271 7.9248538308583205
Ag 6.926696966133334 7.392470048126913 7.54704220505625
Ag 6.315523203356482 5.6596212226310865 9.87564140921374
Ag 12.610182753741919 7.53750509195817 7.595519534373435
Ag 9.834673181786037 7.677698906563276 6.82126379423741
Ag 11.396324597473985 10.006943401269677 6.973035553475305
Ag 8.46991717297598 9.9751764906857 7.766530934712741
Ag 9.396862734284971 3.049434317259427 7.704892356305613
Ag 11.499710350388433 4.918876375345991 7.647194618139664
Ag 5.878886229663233 9.775722590830508 8.771287555716574
Ag 10.607922696536205 8.874058536551885 9.374011305802119
Ag 13.940682770526651 5.3866234336489205 8.777790913491767
Ag 6.701749226070971 14.235335982933032 10.673229858001646
Ag 10.53615369780795 11.782722065657824 9.056308665761541
Ag 7.796337419530199 3.3668230824711243 9.883796892484042
Ag 4.421797140284854 7.622384540959933 10.093508057641065
Ag 10.562734333078387 3.889907586703399 10.249749223091415
Ag 8.97053777825321 5.779771746631193 8.757171741852751
Ag 7.9093431808350525 8.177218679450831 10.11451471359911
Ag 4.2281278020451465 11.438399130176279 7.303681126366109
Ag 6.3247467275229505 7.213083162012136 12.275366915929972
Ag 9.278776815512863 13.220682994897105 11.254112427805996
Ag 7.886269035987534 11.033548724602863 10.319501027822929
Ag 10.259996899193357 7.849832171363263 11.904536848280005
Ag 11.799028142503465 6.406266275604918 10.138706618220638
Ag 4.936705399543332 12.158676966847008 10.189025950479456
Ag 3.1912982516920674 10.080948106887673 9.599533564897337
Ag 10.43520052759375 10.614856370651529 11.633795927109668
Ag 8.560881342945953 5.5120685625374595 11.582892771734768
Ag 8.655353076309785 7.005546934149158 13.974681641775453
Ag 9.127259650568448 11.878948866152896 13.758878409721396
Ag 11.075534994397227 5.319846220453244 12.683348238872046
Ag 7.875894586245299 9.511051732370637 12.863234289630617
Ag 5.368162671032133 9.777170932730735 11.604877032511977
Ag 6.633646720178763 12.156647547784145 12.540703348382866
Ag 10.304439323659222 9.380578254564442 14.231681414423571
