54
Energy = -121.27992235 eV
Ag 12.778787760047393 12.222962026724048 9.266136913650806
Ag 10.047932943597557 10.52533862885001 6.853968309745016
Ag 15.26279625500446 10.955213058115888 8.816855137230604
Ag 12.946588387649378 10.573756075391595 6.995065568223081
Ag 14.314085303157242 13.047148994343521 7.158046633146661
Ag 7.557198286792942 10.827639089866437 8.452223715180416
Ag 11.419614485809308 13.052723166314303 6.902172504306375
Ag 8.598219425247583 12.958931380338056 6.877268103696345
Ag 9.927351227506437 12.177468616172073 9.131346732831172
Ag 7.4709060133342176 13.538052481699852 9.517680643715329
Ag 13.465119834361321 14.53693631366581 14.197002007429823
Ag 13.544229998241903 12.779357291951733 11.956715540867155
Ag 11.06482650221267 14.748606482056692 15.686995582497191
Ag 8.720850363582661 14.444439443781683 13.953224442635987
Ag 13.57658693216168 15.575845031084015 11.41159908250511
Ag 11.162086315986791 15.880835031301856 13.015400433821206
Ag 11.168748807071626 13.078143558249327 13.529115848020668
Ag 11.284101014265103 16.777719152185675 10.329682919614402
Ag 8.834666158875258 15.47547966381303 11.26893045329441
Ag 8.800028137962974 12.75651587630328 11.752455417350557
Ag 6.517841401821418 11.383132501100446 11.192078417813525
Ag 11.280067146987628 14.10026801206681 10.867968872242942
Ag 9.897971992259505 14.963279090450232 8.53159420004907
Ag 12.79641528909498 15.010207540299628 8.669660916588922
Ag 15.833064127173907 14.14757412263206 12.5600362488475
Ag 15.170364578533123 13.663583565126551 9.856234242389798
Ag 13.96094978746396 9.846417935725789 15.851987867069226
Ag 12.648084077346475 7.849615588965825 14.211039933554094
Ag 12.598256886324396 10.643307663087159 13.618012182094166
Ag 11.321185067680782 8.719787777935354 11.880548881024398
Ag 12.502261632018776 12.28439011063157 15.890420793735482
Ag 11.356685581750474 6.038113615126739 12.409330020472623
Ag 8.969555192068302 7.233217259009246 11.33468413750479
Ag 9.083953776036562 8.275682523943203 8.546554277766338
Ag 9.746718716309394 10.599806806192312 13.482113628951257
Ag 6.718425278563479 8.644054673523973 10.177732685687772
Ag 8.982465230289838 10.043569378603813 10.793094226207431
Ag 7.373569887512793 9.142405024456263 12.889153087641226
Ag 8.23936838637774 9.748515219139856 15.594524846532247
Ag 9.602374756871441 12.2388061483164 15.755134485655887
Ag 7.2908520667428505 11.869395617849753 13.905770550340304
Ag 11.128322863890704 9.759200428325876 15.84283910499047
Ag 9.749007879472053 7.800542508509091 14.073099385345664
Ag 11.282022069579238 11.38313250110045 11.339902193163425
Ag 11.384935688874497 6.931299883085152 9.73093265436971
Ag 13.636166254439692 10.115017251760019 11.010040735635236
Ag 11.502424838020147 8.063664811607962 7.066267716924527
Ag 16.045311089206987 11.449291703540865 11.560222839940606
Ag 13.701153121472391 7.309906106848297 11.484464641041702
Ag 15.996956297683392 8.810972150366789 10.620612804876991
Ag 14.988761114638075 11.982949583743732 14.288615329862964
Ag 15.0787227066052 9.270761199462594 13.255792398152403
Ag 11.35677784466322 9.7427657239092 9.218449097851115
Ag 13.813674782969638 8.352347611347918 8.769290605914199
