53
Energy = -116.29524284 eV
Ag 11.661923576980971 8.126120351021711 7.164823911165299
Ag 12.011144660708311 6.493723314907103 9.376959636151417
Ag 11.359807040883847 5.33973213040412 6.909827798898695
Ag 10.11840298466023 10.36887058304007 7.217414696464325
Ag 10.48348609705474 8.925359723863954 9.721900821771262
Ag 10.508786538698502 4.083097417072183 9.244962604769874
Ag 9.630411444624993 7.474835661465735 5.217194529481025
Ag 9.335654619403725 6.847828908237259 8.198536689570254
Ag 9.987681441595575 2.8013788835805276 6.791229969284746
Ag 9.76382890896262 6.3682782238265 10.98855645229123
Ag 10.710881366956226 4.399623693249481 4.444970502954877
Ag 8.390795562033283 2.121333242893759 9.206028491543849
Ag 7.759591163962568 11.86666253816233 6.799524495232688
Ag 8.893649955300514 10.328442893900325 4.660946996615295
Ag 9.093062668836264 3.747046443874244 11.618198968465952
Ag 8.02618052320912 8.345244163060638 2.941687952190033
Ag 8.197996406903496 10.512553240564527 9.228817892450897
Ag 8.459640108033266 5.077024585953875 6.161563861161943
Ag 8.08978907190813 8.552156006856714 11.252867619960153
Ag 7.724970895509939 8.787501180935504 6.896789506892367
Ag 7.709023629674551 4.7842986568626165 9.324587940283513
Ag 6.726579399078761 10.698608106283611 2.2956896022127
Ag 7.169419937482545 12.57119912272169 4.221288730159345
Ag 6.5428392633741606 6.974316412336007 4.927978926642246
Ag 6.584343825961869 7.434010227956844 9.167859692390003
Ag 8.47316984652957 5.564244988419895 3.2737511394483687
Ag 6.435925980133837 3.1874325756087654 11.403414274519573
Ag 6.065873494180378 9.8861413252913 4.951673999957181
Ag 7.161099328958023 2.516046571982741 6.684270094213512
Ag 8.440997118792533 2.8399717508400713 4.170868311398919
Ag 6.757499456267185 6.539958835619333 1.2609992264457897
Ag 6.698584646738007 3.811704306255723 1.9969077926125882
Ag 7.0480811921488495 5.9577707989770685 11.84742097551613
Ag 4.918315285927809 12.319345365796307 5.825410479199178
Ag 5.581984698427509 10.596819982566945 7.907001328977958
Ag 5.821678627212526 10.024279035777004 10.566816107847117
Ag 3.8542390482419058 10.760553470334862 3.6305037819701163
Ag 4.920422765880948 7.964938490560313 6.920024011090111
Ag 5.844131139949081 5.259810426820841 7.298460252065687
Ag 5.489600075987188 2.752621910395007 8.873399897553844
Ag 4.861190660659007 5.152657520354834 10.174343811671005
Ag 5.127630184722895 8.469005811018826 2.4445350004969706
Ag 4.583198781825648 5.787608070483611 2.8590532672163698
Ag 4.304721742500579 2.953866556752706 6.392619199796407
Ag 6.031047661027993 4.163554637965108 4.6250378429973455
Ag 3.517342077107534 9.140595379287864 9.125363514510736
Ag 3.184355567325324 10.14012352435798 6.4122691221041945
Ag 3.283817641243381 8.10981557436226 4.450081657651417
Ag 4.766503134715823 7.640493511975491 11.333377038791618
Ag 3.0719931341914197 4.863727530250993 8.048491367530112
Ag 3.698795996461641 5.598243158827651 5.476783573632153
Ag 2.4405092629030745 6.740419928039929 9.95617159247254
Ag 2.2113794299251697 7.456305632098623 7.146115547709883
