55
Energy = -116.6628371 eV
Ag 3.5519155154036803 3.1679984577816205 6.141802556570278
Ag 6.288359228604934 14.763103605001485 9.51369569271322
Ag 8.29089527032878 3.2648294548622454 4.649942435034805
Ag 10.125166868389266 13.596600046561505 9.691686750378203
Ag 6.685153635866014 7.000158200115076 7.907680163448576
Ag 5.407131508270147 8.435384351631116 10.097519420401166
Ag 8.401473068592058 8.983072852038852 9.079292706233426
Ag 7.414106860830211 9.36822013720997 11.774703303050316
Ag 9.630357426082604 1.3098121684010398 6.264856307785947
Ag 4.669929140148544 9.601550567839704 7.699874920208311
Ag 11.138336096295177 6.071187485523558 6.512781711128618
Ag 6.047179307511294 9.83345378452605 3.045585767074765
Ag 6.499990731487163 4.248532059379503 11.890322947590509
Ag 13.240540188993162 10.102599677375187 7.116656906069873
Ag 1.8913446023383846 5.5483584201956155 6.404985435024749
Ag 7.359971571700602 10.295224809400484 6.753621654231706
Ag 8.082475537876253 7.946356655805039 3.4607620049149155
Ag 4.635726431314349 5.871596735926341 6.312131586058101
Ag 11.044435319805405 8.687369862045005 7.919590872883591
Ag 9.303270019420433 4.0302455833036674 7.183776665842504
Ag 7.855943793141301 1.857147804524016 8.30033050036979
Ag 4.234098091314378 10.620196222485832 5.16682406174392
Ag 12.557596216275511 5.783580114982421 4.156818491913409
Ag 7.60745886867172 4.428529598572713 9.334111221490526
Ag 3.1372481583959537 5.953926010983917 3.8926245542271056
Ag 6.342745837658382 10.987598672327472 9.516400103098697
Ag 5.355032381458493 2.7343069542514575 9.590044281328437
Ag 6.37114654231066 3.711861624661995 6.838877939149804
Ag 7.771808660557836 6.752877215265028 10.79652831717831
Ag 5.292828481840178 1.149529966463789 7.207415517266541
Ag 5.72406654280343 7.016049032826164 12.533931829380943
Ag 8.963602197026647 11.322444395741725 10.537707229613531
Ag 7.418738620091844 5.008331532458883 2.5631307813742876
Ag 12.24987990677902 8.29611284216887 5.389104389688516
Ag 8.463317198311522 14.104819284048578 7.784435573994155
Ag 11.10512992157318 3.532944508439746 5.117657362853623
Ag 2.986058515282168 8.140483035084557 5.808801040583996
Ag 7.28253292429047 5.878455261480643 5.289284959000304
Ag 3.8973595653152326 11.520727676012934 2.538750889253441
Ag 3.361408135291873 8.79548947467608 3.129240994746673
Ag 5.10893399508558 5.64431874592376 10.031984993281936
Ag 5.350077449666676 4.024014786714281 4.198092069979117
Ag 4.540345459677701 4.742583673743563 1.6918666099709874
Ag 5.940949600053518 8.316081897456156 5.40371943613317
Ag 8.074350344920703 12.678970940031473 8.169560345324024
Ag 9.485793714274116 6.442900494585917 8.650164684460545
Ag 8.936080926252549 7.998107423983445 6.216073464139688
Ag 5.5254910567514095 12.308607307744571 7.091481480351858
Ag 5.505068278380328 7.034793191236862 2.8520836921634465
Ag 4.570176888082262 14.104819284048578 2.158087493368593
Ag 5.515183351201961 12.939486865413587 4.411219090146596
Ag 9.784798293265272 5.813856086398659 4.0727642743926635
Ag 3.1065314610252646 4.389509947037789 8.647976752364118
Ag 3.390810559664004 7.206531604889504 8.466641861674525
Ag 2.8931320853051803 1.6879423029803624 8.43847625860529
