53
Energy = -115.86767219 eV
Ag 9.325942559567482 9.23897166279301 10.752964576107903
Ag 6.953652978943277 7.634928934742853 10.573269878423547
Ag 9.404814800019741 6.468685098565377 11.267473402890293
Ag 9.331937458494947 3.7356071652422607 11.938694701822802
Ag 4.409538271293502 6.215984589440263 10.803660366915036
Ag 7.191117513676554 9.939010495319064 9.064395487419743
Ag 6.931805390136898 4.969478999235772 11.307589647924761
Ag 4.797935347194229 8.560780415010855 9.059448328175451
Ag 9.68521358922917 10.795983610029483 8.42017394500155
Ag 9.037787748576163 7.532002388975344 8.579848420175315
Ag 9.115382850261517 4.501426081729734 9.272009683584354
Ag 7.154044177224776 11.928615527155346 7.156481569718446
Ag 7.458977232507101 2.3267028804980927 10.442039143275327
Ag 6.003079473751379 5.823852114183054 8.549641128227382
Ag 2.261084476358464 7.505009332183466 9.377441551566196
Ag 4.8140220983565145 11.397285871425856 8.697056688896687
Ag 3.1481825371210355 5.025584067705161 8.548496486597255
Ag 2.6884235630178432 9.756900138540304 7.653349515806765
Ag 6.731214471805391 8.060325239454059 6.931034061992051
Ag 9.564272671096951 9.07290670713716 6.176256655392053
Ag 10.730191771728457 6.540912143908914 6.423355220177847
Ag 4.907999250534238 3.4631409792069707 10.131502881260438
Ag 9.58536060681902 11.902908085694392 5.888973943287917
Ag 3.660667093232998 7.18161290163676 6.823538684572876
Ag 10.343375868605706 3.718727431662719 6.713950014785056
Ag 5.6440024375689575 1.0260429575756986 8.719878129111827
Ag 2.745715263368621 9.342231967219794 4.872225821991061
Ag 10.026100234334086 10.402476287274183 3.6525602323546087
Ag 8.208813122451245 5.451685948909227 6.838321163067059
Ag 8.180377238651843 2.279665744016634 7.783668253063347
Ag 7.403797460809157 10.346239986142846 4.786081891429155
Ag 10.745089934477189 7.734089183782865 3.862374828909878
Ag 5.509064105902027 3.342813954808798 7.238156962501551
Ag 4.982582675731528 10.44159679728107 6.127979329869482
Ag 5.2135735745846885 8.087190112560425 4.576313312383532
Ag 7.950591332787426 7.32411252978586 4.504778227433227
Ag 2.091364372116334 6.613887636253304 4.582114297332964
Ag 9.746360822630106 5.111733400770141 4.204594898122615
Ag 3.0406114942999043 2.2874898310090717 8.438872914427574
Ag 10.511481336726957 8.999132206438677 1.3219640647866797
Ag 5.773534612522342 5.5886472176233974 5.621736613662505
Ag 3.198655370409602 4.302324991723614 5.808347785214879
Ag 6.529120304648574 0.949958328053081 5.971785114143051
Ag 7.992385919741657 3.1603984173873068 5.132066499382139
Ag 3.3655405955515567 8.08535328337724 2.443242225314574
Ag 7.875009522436112 9.415532475378596 2.1528554100848734
Ag 5.236990145719198 10.233373685679805 2.945167825346683
Ag 8.911244816415907 6.7391110477424885 1.905192450619552
Ag 3.7797022567391716 1.4449537658332117 5.964444986890469
Ag 4.277397148491383 5.471458694088921 3.256660562117677
Ag 7.109559831832794 4.901416645798867 3.0727363176988804
Ag 6.09057839438688 7.3209301449023725 2.022005052015069
Ag 5.3330325783133805 3.0460306162871253 4.259646303930356
