54
Energy = -118.47395834 eV
Ag 2.833201455274651 9.541329014059004 7.828873353598471
Ag 2.5134369410797883 6.824438840326226 9.470147463329566
Ag 1.1217105625789776 8.359433753445728 6.006501387695667
Ag 5.4965718805758135 10.377992517453755 6.981705917250194
Ag 4.92276545044337 5.418961540440228 4.682109365006368
Ag 2.7243672580714295 9.367460719232772 10.608001180478567
Ag 0.8580444934222853 5.963145879167067 7.404333025921558
Ag 5.032520148222406 7.902898097977206 3.046931095052171
Ag 5.779155272161622 1.4830136401780942 3.976926333359318
Ag 4.607715174479643 2.943131513394337 6.131074908531826
Ag 6.875643909233364 1.3360993221983355 6.562032778210909
Ag 7.154392538481089 10.359339372766325 9.25625914294508
Ag 8.243460560797379 9.801470520327868 6.730992477033993
Ag 6.000911896006936 3.884176107457864 2.31554156848678
Ag 4.949485859937713 5.246481177405938 10.121675610998246
Ag 5.896965000569361 2.9737821181933657 8.65395780645598
Ag 4.026689903789457 7.218047622641148 11.805667264507722
Ag 6.25327165910955 6.419741797916517 0.9448961515487821
Ag 6.186857170324221 7.761435597586509 5.9575451232723395
Ag 7.317837881042411 3.6405584448020236 5.006036164816853
Ag 5.485907825393142 9.584328662901218 11.475332719472615
Ag 8.52527580405764 3.3711630542073174 7.55449140455149
Ag 3.2094167558556963 4.377181264639691 8.149205071438033
Ag 10.737471715095012 4.1282103405080335 6.066374034738828
Ag 8.31278658546326 9.36807361441929 11.59931726294855
Ag 6.779250146293359 7.102972588417954 11.183332856557097
Ag 7.771554863379595 4.945675976415276 9.707673779826525
Ag 5.0888854827937005 8.080060567525324 8.91365563914603
Ag 5.913621000168721 5.4883248450062005 7.470276611858855
Ag 12.569083445340695 6.110928509143693 6.927848593008957
Ag 7.367220039387026 6.161693426271519 3.5103420171598523
Ag 11.95989231865746 7.645038099855734 9.229648132544597
Ag 8.178292979674078 2.179971911624007 2.6779680272620556
Ag 10.238754711263844 5.488901377508888 8.450573362312381
Ag 9.573047890780229 7.028426634268952 10.660782410981824
Ag 3.4747542133305758 6.927366962869579 6.765573570594981
Ag 9.660006909995017 4.370545349845279 3.5451853268648397
Ag 3.5231518365240304 3.135521675523798 3.482268663114062
Ag 2.308608042393966 4.539181837910082 5.505779499230314
Ag 8.542641388618826 5.955936456041361 6.0752495691513015
Ag 9.81671659102572 9.495232396754643 9.200171423853519
Ag 4.621860381239682 1.6714092211047027 1.4419304538363165
Ag 7.859785767619918 7.5133911544366185 8.403380486042174
Ag 11.065050055924797 6.537261950162323 4.587859603084395
Ag 4.486840632254449 11.177546392172701 9.409986608363948
Ag 10.446373643333215 8.030394816907169 6.877248278990695
Ag 2.5447119255203408 6.9703965407014685 4.037712183143998
Ag 3.776504826918259 5.534533337158245 1.9983084372152553
Ag 8.402046558584178 4.599596348218909 1.08994690547337
Ag 8.992550395752485 8.43584020852948 4.435621064873533
Ag 9.699988174046652 6.8900971759996175 2.136171752541136
Ag 3.7373343679808086 9.282754815157046 5.140968869811791
Ag 7.542178240260325 8.71592066968425 2.0245479942124884
Ag 6.558933352688059 9.966214973819858 4.335330404788887
