5
Energy = -7.09663231 eV
Ag 6.307494521348344 4.887686655559386 4.953158834297395
Ag 7.915057247073031 5.908301687019738 6.818059411287561
Ag 4.545401769616614 6.843031063439054 5.44416994077263
Ag 8.433777845097723 7.73100745368446 8.717409868115935
Ag 6.1312061183573485 7.881950634841836 7.332227681760023
