55
Energy = -121.69933076 eV
Ag 7.074233308601006 7.410749246048372 4.353709865329636
Ag 9.450156008455126 8.797242586028222 4.989402255992728
Ag 10.07750616634583 11.234867492199454 3.825083004272906
Ag 5.7061437091995355 12.066482153303767 5.901631896038645
Ag 11.305867778515037 13.229439129079779 5.311028711333866
Ag 7.329486445325914 10.384711011988589 4.1369543204978365
Ag 9.45295108585652 6.129077363792412 5.650509089528734
Ag 11.914299271047238 7.882326132960973 5.987098234813473
Ag 10.484973531360378 10.915761594328371 6.647092966158915
Ag 11.585538103642332 5.397610258523652 7.383122760171085
Ag 9.428005064441475 3.5762312041550466 7.107229969720842
Ag 7.114296836515466 13.006941652891609 8.166865289104996
Ag 5.216002282897211 9.296500768777397 5.788967110724101
Ag 7.667088598409609 10.358876711381255 6.92831351995576
Ag 12.739163709296971 10.644202915630386 5.223859378680708
Ag 8.451331677025529 12.774912763798257 5.599554943545817
Ag 7.088297965224803 7.570259298885805 7.1130965332711895
Ag 9.880922331149474 8.493410468315322 7.827263941963367
Ag 13.766465223462713 7.0601270415402535 8.015772927187948
Ag 8.973263522143732 5.96013857125442 8.42107919401078
Ag 4.7970621113209715 6.487411168221862 5.794124882818404
Ag 4.434292465274984 7.957150652160441 8.155103442661321
Ag 10.029039712906828 13.748476055473766 7.807057851647212
Ag 7.011086021421275 4.846546124928164 6.359339268783522
Ag 12.930916635789085 9.698527497035514 7.884381685540833
Ag 5.286684517324448 10.672174475487736 8.477187240743268
Ag 12.660463531957914 12.500353317931415 7.6640403885415935
Ag 6.601976340268714 6.6024522093254925 9.82983567111365
Ag 10.25231804525103 4.021095330315024 9.820642097304397
Ag 4.854361127660893 5.102362908294758 8.272670592520896
Ag 11.785974670830088 6.51138178012214 9.927481793326889
Ag 3.8579079516384582 6.789473487789483 10.63645604675716
Ag 2.906896806206094 9.547869470651325 9.739136481935585
Ag 7.318732143455395 3.7819278169493975 9.07198928564013
Ag 5.314189281873423 9.131525455292076 10.960690810229178
Ag 8.709822063749147 13.819922984485025 10.349599156424823
Ag 9.218115423923269 11.392234904790877 9.077724384879907
Ag 6.892561129183331 11.568447707957871 10.774148812835154
Ag 8.10146942917321 4.752093539264022 11.698121101062883
Ag 9.254255853637549 7.217296668431164 10.893103698357562
Ag 5.356342931009584 4.435306166174028 11.034868888062489
Ag 7.7119820681034925 9.107780351366765 9.466606422470763
Ag 13.784354318294872 11.349817338613079 9.953932504439791
Ag 10.819651578658606 9.498167553920727 10.255436077846339
Ag 13.501527167042273 8.63955008354516 10.478022633264509
Ag 11.424755864410354 12.78911611898253 10.200205082791472
Ag 7.705387119323947 9.197180739967672 12.334985173049036
Ag 6.207384937254981 6.803252178437603 12.554483048118382
Ag 7.401381306320689 11.588305861917517 13.60165747818365
Ag 12.214873053667016 10.727595717592997 12.265289138733731
Ag 9.570585161605413 11.662289053554538 11.945768734753166
Ag 10.81163612546233 5.210725288513354 12.296749583346843
Ag 8.947997457356404 6.963199891037547 13.62146366252302
Ag 11.583535292213677 7.903931481258146 12.486419151764162
Ag 9.955819094142303 9.706521611953994 13.85497317185107
