52
Energy = -113.45725254 eV
Ag 8.607437106087929 11.124569887273628 9.598336524494686
Ag 6.535733384050027 9.835991555179474 11.107843439656206
Ag 5.991705016515037 11.317331992291162 8.758578325802716
Ag 8.532636679434683 11.945632677039708 6.967858656968554
Ag 3.873259045302404 9.829874429982889 9.997983313207232
Ag 10.219831456166967 9.811517002226545 7.609505524526763
Ag 8.596988154984603 8.375626552335834 9.82484305446745
Ag 3.7795359644563793 7.219295742576854 11.078225580682272
Ag 6.665266804578925 7.037676523994426 11.578210566652851
Ag 5.993958571146871 11.704619875063692 5.988404791212115
Ag 7.432769044203134 9.330108722792092 7.162399024090037
Ag 5.747458491853988 7.920645413961265 9.104452221943516
Ag 4.3790222228651094 9.659977062486151 7.244177314574237
Ag 8.40059495838333 10.327462413294436 4.571691903875052
Ag 10.145387750319884 4.630007333108012 8.373815658696401
Ag 11.403003600991449 5.684824248638452 6.139563185552389
Ag 9.365781445533983 7.194153215502753 7.430510406470387
Ag 2.927952298948534 7.534272056522619 8.444694564187476
Ag 5.207433110962325 5.0676339509154 10.110951010606913
Ag 7.08084159765599 2.9669815711633456 10.150820116606075
Ag 7.774269841666037 5.750052749903948 9.256364497344048
Ag 10.75121833372904 8.341039276313666 5.260389799768325
Ag 5.700787773994437 9.227189253237395 4.877812884216938
Ag 6.279410564914588 6.704906793421505 6.66453756875278
Ag 8.926230085014625 2.274278123640804 7.847696579958163
Ag 10.300572692171096 3.0910787591629307 5.405093317985743
Ag 4.279905412053131 2.6883184999399865 8.99347842026558
Ag 8.472347084104943 4.94317839510014 6.004248689920439
Ag 2.437963984981124 4.946696302232306 9.567242548511055
Ag 8.074945490208764 7.521608666327596 4.712896259979858
Ag 10.119395218163728 5.773818043924024 3.7423144072309613
Ag 9.704451967389758 8.429079619702799 2.6594836442407663
Ag 3.4796665612211326 7.4778328971982795 5.6144211362428385
Ag 6.502178048569033 3.8402308306869535 7.658825921301769
Ag 5.441614856510038 6.739071843859682 3.7383887919181578
Ag 6.9077656218241135 8.873362018440462 2.3595203937651794
Ag 4.065111994477095 5.137831735330157 7.299440257235366
Ag 4.012827980231363 8.83370230489648 2.6554007129212507
Ag 6.364705945013651 1.057909192568332 8.011490871402476
Ag 7.457825150709116 2.0215308293430994 5.5244074205847955
Ag 2.1065786605691805 3.096288838211661 7.258547966986953
Ag 7.889484393683971 6.219634627786466 2.121254277795485
Ag 1.4194605232987874 5.80560905075461 6.800021370804458
Ag 8.263886476513996 3.6606836449310256 3.385287795598545
Ag 5.843883834187038 4.366858799926737 4.964273022508501
Ag 2.6084722953518322 6.505682497348669 3.102699365675517
Ag 4.534098809979992 2.152765378500957 6.085062352672165
Ag 5.360354179761105 6.7279823737050375 1.0086789157157547
Ag 2.9199498574852956 4.266039690960288 4.833536183948806
Ag 6.609295282868273 3.9587061927622087 1.12731241103858
Ag 5.728949837679927 2.1637733852520937 3.2722205052918385
Ag 4.29783038200608 4.43478870350317 2.452221688315883
