51
Energy = -110.69589272 eV
Ag 3.696701520219882 9.39261238589053 9.895365085062425
Ag 6.458573345870264 8.244317014434108 10.115464201433932
Ag 5.7518551939132765 10.717848440106474 8.69969072610009
Ag 3.9434679653626232 6.668790134996898 10.27738351911188
Ag 2.0964489306447023 7.523161135379014 8.431253107354086
Ag 9.503573493581797 8.458030279276873 9.971329955400204
Ag 8.44093748708895 10.420475500540581 8.334747763102158
Ag 6.16337854228673 5.8279561554384935 11.71217795455594
Ag 6.943083264808995 12.08581905308372 6.618466012384309
Ag 4.508158453531915 10.64063258766131 6.20714391506359
Ag 4.927430864760011 8.110803224712324 7.696429514155708
Ag 4.144616769404356 3.957245673296221 11.117188171311128
Ag 2.1755467316602077 4.709915485439183 9.233433992005853
Ag 2.8689099695257836 8.201030406354185 5.806919847841259
Ag 9.467247611829478 10.988382395772188 5.7990857497026775
Ag 7.985643814799169 7.578637747252833 7.828772655947573
Ag 10.493352342432704 8.808721938550379 7.232423093784899
Ag 6.809387407317796 9.069163165153784 5.727770980285951
Ag 8.463964849981037 5.777711724660446 10.176587711441758
Ag 4.4634927878814095 3.1735794670593434 8.495134316831429
Ag 6.02167545248133 5.656401737656461 8.647638484656909
Ag 8.347667182729266 13.096340184052302 4.422378571501973
Ag 3.5595381723152335 5.622539056692177 6.98453831958891
Ag 6.772152536456783 3.458220473729443 10.243047183826405
Ag 6.257656920883582 11.275043176773748 4.007030301636246
Ag 8.802578219381715 10.675523196365896 3.035522184099637
Ag 2.2168487380453707 3.050429950907741 6.915853025040818
Ag 3.5412035683533314 4.112206064434348 4.615984386369609
Ag 9.44980657419374 3.030666235055026 9.433883951300837
Ag 10.679372374199716 6.27780889570469 8.597439003478202
Ag 5.976297859244993 4.238279516383545 6.1638735649599194
Ag 2.8016945460818565 6.647517014891951 3.4148756239799343
Ag 6.941843843480617 2.0127525988256902 7.88485726420776
Ag 8.46572226619485 4.642150581649119 7.504803872428814
Ag 5.126055946126544 6.679068915088811 4.837885164974751
Ag 4.44087327028531 9.244964972951573 3.75477958776387
Ag 7.777210109344619 6.37294387572449 5.341302749435189
Ag 10.557348106481081 6.241449097997847 5.787474110054184
Ag 7.209435988538817 8.307692504126129 2.975998974784459
Ag 4.601652548797158 1.7351940171245794 6.034707776142189
Ag 9.596715317675457 8.51635110660822 4.538251264022931
Ag 5.147699040981597 2.2433562683432795 3.2919018513207927
Ag 4.586939353230593 4.774346569114046 2.1248003215820894
Ag 11.190335368915916 3.8920050452479353 7.243565798900999
Ag 9.443161948807253 1.7518814311436361 6.83573568641237
Ag 4.821830853087529 7.523212830435742 1.683641137490689
Ag 7.260159944750156 1.8767990197475009 5.097721835968138
Ag 6.987835301191294 4.341444226325178 3.4976388731244774
Ag 7.043460368369591 5.99276479567177 1.2780832761377783
Ag 9.351393540800931 3.856801058319184 4.91919557075851
Ag 9.268291318880241 6.115626874477742 3.0612386400416276
