52
Energy = -113.56134767 eV
Ag 5.385950948860581 11.797869245680024 6.057296516278514
Ag 4.124084318232218 9.691705796396993 4.477461841215696
Ag 6.901237377781242 9.955484550594388 4.472905342580873
Ag 5.8733670452708155 8.115420125254081 2.553018144267619
Ag 1.6049188828125234 8.705704301843918 5.370253023593522
Ag 0.3396873150593602 10.129507685796153 7.475145592297858
Ag 2.856027531838133 10.901028070191256 6.6659725901779785
Ag 4.751324904681763 11.000975755575878 8.811570272958125
Ag 3.3322150138205684 7.168605806814576 3.779089415240443
Ag 7.987971290192172 10.927567578010946 6.856851631829134
Ag 8.724500670411807 8.276019169597275 3.1891482407710297
Ag 5.6607819511689055 9.16127653798251 6.959907431807761
Ag 0.8522015550419108 7.350482423724747 7.775113993971116
Ag 7.934771061483924 5.810675690789573 2.2849673145973584
Ag 6.251009436765838 7.1249348231012934 5.054187564596244
Ag 3.5744204621151665 7.274618658851069 6.973577200751134
Ag 9.631106437822732 10.54867699574567 4.537585835360878
Ag 1.593678340824666 5.781195005248949 5.578147354321598
Ag 5.320468800602563 5.354289769617034 2.8598070365635913
Ag 7.263801026021326 9.807399013510826 9.353854139707027
Ag 2.5394832921978177 9.252829355792759 8.940175199118976
Ag 5.015181712584775 8.156877109632443 9.533622472107414
Ag 2.668926170731026 4.466299218341256 3.2777609922430564
Ag 8.277057291276066 8.031997132255798 7.101215517399315
Ag 4.377537971036401 4.99056701443886 5.475573384656674
Ag 11.008322790763795 8.02743770612674 4.901212990552387
Ag 8.909498050891928 6.1015034649258295 5.127824105160916
Ag 2.4501897011440317 3.0430492906032347 5.740690636759409
Ag 6.0909941296147645 6.127928951437044 7.598210413995716
Ag 2.7977473851634045 6.490013106937142 9.661880890219233
Ag 10.67179485311888 6.162846959585482 2.863510967632729
Ag 4.991402316732043 2.7494076181481173 3.845977440133072
Ag 9.80799102006934 8.711013468694338 9.482869115140495
Ag 7.0453182375413395 4.079117622542875 5.613124051053459
Ag 3.7539237758009882 4.357561695695692 8.112264338975892
Ag 9.438235325136993 3.7738387190360188 3.5415201081260737
Ag 7.645290284600906 7.040628295305046 9.955408712132318
Ag 10.565358691853636 9.768769421921462 7.0249861781860234
Ag 11.010184111538184 6.973225733441887 7.495958444797053
Ag 5.362617940976175 5.369104742624999 10.25701879934686
Ag 8.753151356789122 5.1395521895939975 7.812495633672354
Ag 4.992178349752257 2.2769523049251648 6.586310110297636
Ag 11.469358390930454 5.10038814115405 5.412487546226035
Ag 7.67704924617861 1.756088226979017 4.264404468302543
Ag 10.377487908222328 6.074005112535799 10.092926907282115
Ag 6.527912191011482 3.4042111393635093 8.624812704001428
Ag 9.741430875493268 2.9299718354567563 6.146569427891784
Ag 8.137105915361532 4.387257613217238 10.69391469387206
Ag 11.419995551832269 4.2136699983787835 8.157500390793217
Ag 7.596255179685301 1.373298970416005 6.998341222929783
Ag 9.274242930033884 2.4824830643690383 8.900740098536309
Ag 10.862238223926848 3.5118359152713423 10.905128452207574
