54
Energy = -117.85847239 eV
Ag 3.5083953016537968 5.311460507510576 9.315747822707461
Ag 4.35352062444807 2.3929898421452647 4.59919766476493
Ag 3.6039273171737567 6.988870397152324 11.551593173221617
Ag 3.955604790312427 3.7884390688396246 7.056946303165121
Ag 5.560747794634577 2.9825341665101055 9.257785256644734
Ag 6.105918178122465 1.78940241856567 6.714793427990233
Ag 3.9283813866217328 6.8159389833578015 6.721426141081497
Ag 5.76871886119305 5.175148443281537 11.053591967720132
Ag 3.4964214128528646 5.034381851551271 4.581272890008843
Ag 6.163769944737424 7.411748899554554 12.684299764227399
Ag 2.735988384558503 8.013203089247542 9.01691282433029
Ag 5.159568806019776 1.6716779457443607 2.0167605658629513
Ag 8.114067505376408 1.6072630925677354 8.597333258933382
Ag 8.095434316504814 4.060177961772776 9.78942188043154
Ag 6.042988937708313 5.588375389322873 8.24267206819997
Ag 2.712209895128584 7.620508960540011 3.9955790548990158
Ag 3.1716323766455448 3.5715760692787653 2.262987877595431
Ag 8.401782010141261 6.025030946305343 11.697586204748374
Ag 5.936768801484321 4.333400603887388 2.6777574490241145
Ag 2.7317612078901106 10.335172220418276 3.5490592160787697
Ag 5.5357636336089655 8.055374778784671 9.886851485335894
Ag 8.807608227646826 7.9878183535337834 13.54969531939223
Ag 4.015371355845944 6.230362123367133 1.9534676231502706
Ag 6.32819791545954 4.4323430296603785 5.648733811365875
Ag 2.2429537816004723 9.156452052707849 6.423120411081695
Ag 7.0880619577403365 2.0885197012368306 3.9681528670682225
Ag 5.774413603205164 6.754545182130667 4.229993727966081
Ag 8.713104174799879 2.8015722011533746 6.06436208033664
Ag 4.755188177354439 9.16468607301733 5.133807149549593
Ag 8.559383528853424 5.424799221513757 7.1612966417820685
Ag 4.994917210116117 8.800224513823109 2.3274812749037608
Ag 4.560793040653865 9.776113034995436 7.8926343473351945
Ag 8.22989508878521 7.390018982625849 9.127998465721094
Ag 8.49353989554944 4.5600078997136455 3.816699791254132
Ag 3.7770112479717435 11.630574776366545 5.873994393684786
Ag 10.363756758377713 3.403942825263086 8.133447412838347
Ag 7.856732210167761 9.214389020918462 11.238616702062751
Ag 7.699836007116804 6.864569127117581 2.2374414111183425
Ag 10.424128782370031 5.649719262300768 9.696736870026248
Ag 6.746776622298656 7.853771680885358 6.7084396441049465
Ag 8.833191811816821 7.145661977736142 4.915566936278895
Ag 10.385613622393599 8.008778285413822 11.161312169078554
Ag 5.394984891735614 11.378166875965219 3.4913307429336626
Ag 7.210997499141899 10.041143720558056 8.667567537030667
Ag 7.289188428103449 9.297624020848346 3.916358922639457
Ag 10.753084147139612 5.065882289013298 5.550075664275767
Ag 6.646589886782224 11.025528484461498 6.142601143985181
Ag 10.574559796393787 7.418109612389136 7.487766828347387
Ag 9.955939215438883 9.743753780899144 9.037626318425092
Ag 10.490735346438061 6.233202442692715 2.8390531767717375
Ag 9.85362029691196 8.98118261733432 3.036035202749139
Ag 9.201955974042258 9.58646151874114 6.165237797722753
Ag 8.93987459473172 11.939937976185613 7.628247026214797
Ag 11.535052142939191 7.893008496186007 4.957907641590441
