55
Energy = -122.93327947 eV
Ag 2.5786423480421536 5.434410193821239 8.901561351222828
Ag 5.33287928231834 4.9077986722702995 8.276514106835915
Ag 9.886101461811679 3.2738324508867103 5.462627946878708
Ag 7.257545335627584 4.007472074675842 6.301997047647792
Ag 3.3196948815441734 3.2182466741070335 7.104556698212824
Ag 11.842783368767249 5.577974168948807 5.478565206059602
Ag 9.855769781161895 4.643894868169001 10.518610160561607
Ag 10.97528507156857 4.077038957325938 7.855527021228261
Ag 9.31206978024171 6.105783278133834 6.054034503316524
Ag 3.090045749922904 6.195552420599641 3.381201704321232
Ag 11.232987782832087 8.377023106930935 6.4462068046810606
Ag 8.001385435561085 8.482503450519486 4.984016396008091
Ag 8.306609398192727 7.638257193175641 2.180912025201899
Ag 6.301998373279798 9.516359247532776 2.980652301683177
Ag 3.5970921993952345 8.855795975204511 2.674819344832776
Ag 2.356355353798828 8.373119847076001 5.1369818734410675
Ag 7.091339239570849 11.262184799219298 5.1126700995749665
Ag 8.205848742998233 5.572175246668169 8.644652648679816
Ag 2.782505532942127 3.46449285040206 4.2956447052713465
Ag 6.843755691032965 3.7014562824165114 10.345587523621324
Ag 9.781870628455335 5.089550429789494 3.3119179582243934
Ag 4.667462757281761 5.728705034621712 10.93761103794898
Ag 7.79056232291877 9.491164307862022 10.427626280613786
Ag 4.324175374776173 10.42896849935517 4.855463499810892
Ag 9.615776512747871 10.574109864608872 6.145988931802088
Ag 7.749874180529425 11.155360744132752 8.164883125666607
Ag 4.6990784979747175 5.102305746592057 5.419997057404012
Ag 7.67617496612383 3.039921192095068 3.6270409335748366
Ag 5.439870564376741 8.40436520207567 11.71467808955906
Ag 7.806580139183886 1.3371153989634206 5.976831084390493
Ag 10.552178170292423 7.734237603797951 3.866134053047739
Ag 5.497026736222874 6.924536231597532 2.0234504176209045
Ag 5.21055775781262 10.307468303337005 9.501659664820458
Ag 10.408248118203366 9.87118959232475 8.9352782527115
Ag 1.3335103537312591 7.768113371840166 7.780121631116217
Ag 7.1347627185320475 5.852738792219185 4.040653508111029
Ag 6.066440657096737 7.566747941358328 9.19034384564791
Ag 11.007741098489623 6.672095753671937 8.51569675801304
Ag 3.9732127977161653 7.25963018180994 7.161886607904256
Ag 1.9488486178878022 5.608451570563427 6.0042125651149965
Ag 4.029249794368157 3.1299944382863427 9.915275987628393
Ag 5.258034057560483 2.2883342642737428 5.08416186655076
Ag 5.122168995760712 4.1595327616515005 2.7943224935315456
Ag 6.623031407473509 6.7161740284156375 6.589218668372276
Ag 3.295287771212657 8.141802292532644 9.822951035429126
Ag 5.192795342036515 11.984074584516726 7.160899593774439
Ag 5.889235565861709 2.1052395061744664 7.991663205344037
Ag 9.146054884658161 10.22663127082501 3.2808536054438453
Ag 8.562180810080264 8.319510279549082 7.841896725097381
Ag 8.66033602116276 2.690740015885298 8.404717786941436
Ag 3.166877381870554 9.947820638592479 7.468123257201697
Ag 9.758265779203413 7.597809367300699 10.692608376575059
Ag 5.952513409922371 9.356378678008175 6.880741339254837
Ag 7.4256834033778185 6.295542886120922 11.35924215528419
Ag 7.571059491132767 4.945689363812566 1.481931027831656
