55
Energy = -124.31096287 eV
Ag 6.000590128954702 6.000590019863663 6.000590056227453
Ag 6.004047825969317 6.000590019863663 8.786882914856816
Ag 6.001068079886171 6.000590019863663 11.51416792727275
Ag 8.034362356905342 4.4901003341433 10.102730251669849
Ag 8.012576609248788 4.519868570357746 7.242565462231481
Ag 8.012576609248788 7.481311469369911 7.242565462231481
Ag 5.23346579559108 8.374262398992723 7.247527804776622
Ag 3.502597245909936 6.000590019863663 7.235200227817954
Ag 5.23346579559108 3.6269186407347846 7.247527804776622
Ag 6.76771446231833 3.6269186407347846 4.753651307678271
Ag 8.498584011999489 6.000590019863663 4.765979884636954
Ag 6.76771446231833 8.374262398992723 4.753651307678271
Ag 3.988603648660617 7.481311469369911 4.758615650223603
Ag 3.988603648660617 4.519868570357746 4.758615650223603
Ag 5.997132431940084 6.000590019863663 3.2142971975980874
Ag 9.984200437927674 3.080422074683743 8.47525915520893
Ag 9.984200437927674 8.920757965043748 8.47525915520893
Ag 4.479941194457287 10.694691706925022 8.484650827970853
Ag 1.0665953549170961 6.000590019863663 8.467558592920794
Ag 4.479941194457287 1.3064883328023047 8.484650827970853
Ag 7.521240063452307 1.3064883328023047 3.516530284484235
Ag 10.934584902992311 6.000590019863663 3.5336215195339475
Ag 7.521240063452307 10.694691706925022 3.516530284484235
Ag 2.016979819981735 8.920757965043748 3.5259219572459948
Ag 2.016979819981735 3.080422074683743 3.5259219572459948
Ag 6.000112178023241 6.000590019863663 0.4870121851821547
Ag 8.034362356905342 7.511078705584341 10.102730251669849
Ag 5.237186535517684 8.415686597992357 10.105650225547103
Ag 3.471007293724178 6.000590019863663 10.090701056768665
Ag 5.237186535517684 3.5854944417351597 10.105650225547103
Ag 10.074314842613393 6.000590019863663 8.524622754430172
Ag 7.275654201389873 2.0701874314875415 8.509935570808373
Ag 8.804498612602837 2.0735403455659536 6.017566222730466
Ag 10.579403264116241 4.487880715499394 5.992310735529268
Ag 7.275654201389873 9.930992608240114 8.509935570808373
Ag 10.579403264116241 7.513300324228283 5.992310735529268
Ag 8.804498612602837 9.927639694161694 6.017566222730466
Ag 2.6814846677626747 8.412345497823265 8.518835740144137
Ag 6.000590128954702 10.829995914597674 6.000590056227453
Ag 3.19668164530657 9.927639694161694 5.983613889724433
Ag 2.6814846677626747 3.5888355419044076 8.518835740144137
Ag 1.4217769937931644 7.513300324228283 6.00886937692547
Ag 1.4217769937931644 4.487880715499394 6.00886937692547
Ag 3.19668164530657 2.0735403455659536 5.983613889724433
Ag 6.000590128954702 1.1711841251299833 6.000590056227453
Ag 9.319695590146727 3.5888355419044076 3.482344372310605
Ag 4.725526056519531 2.0701874314875415 3.491244541646531
Ag 6.763993722391716 3.5854944417351597 1.8955298869076356
Ag 9.319695590146727 8.412345497823265 3.482344372310605
Ag 8.530171964185207 6.000590019863663 1.9104790556862477
Ag 4.725526056519531 9.930992608240114 3.491244541646531
Ag 6.763993722391716 8.415686597992357 1.8955298869076356
Ag 1.9268654152960125 6.000590019863663 3.476557358024891
Ag 3.9668169010042025 7.511078705584341 1.8984498607850568
Ag 3.9668169010042025 4.4901003341433 1.8984498607850568
