5
Energy = -7.32321918 eV
Ag 8.630156039608032 7.410983882722752 6.044556268569856
Ag 8.70700073874018 4.756147609397005 6.542476581743263
Ag 6.389612844598052 8.830151829996833 6.758986159123426
Ag 6.548101289588901 6.139083331046434 7.310052338271642
Ag 4.348799145058431 7.535919970540576 7.960730846340494
