54
Energy = -115.90027638 eV
Ag 8.27031844569635 3.458702105670264 12.06457607009136
Ag 9.46398534263064 13.110958988291138 8.394377114959783
Ag 10.491706912275815 3.9356285989549438 6.851778365217015
Ag 11.67767693700363 11.329095447525194 8.673927956812895
Ag 8.202410869731233 5.847850743696079 10.642536152828468
Ag 10.076830817315017 8.528847407764017 5.162332811913491
Ag 14.710814023572821 9.937278095162283 5.082798888486898
Ag 8.94623841638774 5.850811174537396 5.2954515904555794
Ag 9.390055315208425 3.531053490639652 9.440350640925766
Ag 4.666669722649636 11.375758426190528 8.922636919360245
Ag 4.909230561678054 4.064536095079982 7.5083293896168595
Ag 12.69991213489126 8.247593390223193 4.2227596277797375
Ag 9.475042812005182 6.191379422583968 8.056791975315763
Ag 12.349850145861318 9.847873043900314 6.392030473519257
Ag 6.720966800894018 8.16922128566951 12.921992796495523
Ag 6.522239307872837 3.647473460980333 9.748100261536909
Ag 6.244908686712815 5.4072754459812975 12.599602975009814
Ag 5.520911675730181 9.996818997165962 3.3003227656264333
Ag 13.955210731854045 8.586818308377449 12.013710115549086
Ag 7.517825078790857 10.714117123295653 7.904008408276837
Ag 5.0968605422831255 8.377291749053446 5.4624769334787455
Ag 11.632974302330647 9.837341846825781 11.104861714503809
Ag 5.58999819017028 2.76839283649276 12.172182757857794
Ag 2.824290515107217 12.39066032452621 7.06276525475463
Ag 5.53865970111395 7.3709769707041985 10.620109257330608
Ag 5.1354290232433755 11.14117356786417 6.087958572251647
Ag 7.797726566438827 8.124918754276313 6.682154705848087
Ag 7.5198320997514045 15.100029779034875 8.056979104140977
Ag 10.358233002547514 8.906333168482066 8.050672037161855
Ag 11.466219582171721 7.52039512205179 12.967303687951368
Ag 6.088690768365037 5.765056640469869 5.514434625353521
Ag 5.479463913971532 8.837079767618109 8.270096654182517
Ag 6.528194447571954 10.241162128901914 10.83352139514305
Ag 10.708356660733832 4.818293753108207 11.749992406297034
Ag 8.90018410122062 6.340615759136734 13.306384171535674
Ag 9.167767098888664 8.9644802826209 12.084289529830896
Ag 7.660410229690892 10.423433286274129 4.993075543138195
Ag 3.891476293138554 6.697939612907157 7.321046022269727
Ag 7.704509274876663 13.010183581476825 6.1937277809672855
Ag 3.0643632094477447 9.546775341359451 7.126334311148161
Ag 10.760881816515617 7.287920270018905 10.293034940371983
Ag 8.057185756204655 8.328957805581682 9.499381769047979
Ag 6.091601317747672 12.626403790267414 3.9759382052219805
Ag 13.896222718632995 9.857859952569317 9.557944519395633
Ag 9.919243027205969 11.188824501938324 6.399315767512193
Ag 13.164920072671304 6.0662876377982515 11.249606213345732
Ag 6.942903521330312 12.835615555932904 9.633837185843381
Ag 11.820798819904422 4.87022370098334 9.129302404334638
Ag 6.466754324072093 6.156679896334369 8.347249174831862
Ag 9.252430040271161 11.057138940076713 10.230166407248094
Ag 7.413601421096935 7.797388987144646 3.9474874005143508
Ag 7.7044341694827 3.948703393239107 7.116059502055949
Ag 14.354485224055287 11.445351836651225 7.396900658421245
Ag 5.231303417371157 13.70002498137179 7.400487397623608
