53
Energy = -118.14004728 eV
Ag 4.497122628876527 6.233090113964944 0.06538776272753268
Ag 6.458105847208489 4.294838439659087 0.9035705839754677
Ag 8.375575429973543 2.3928385532179774 1.9921157292430223
Ag 3.5743825200871466 3.7891788543780547 1.289620684651565
Ag 6.966368735546424 7.140322768424715 1.2330569454863718
Ag 1.638831444047692 8.911622961440658 1.2501266714586714
Ag 5.557300689923339 1.851492638477061 2.272928696799013
Ag 8.945513549634612 5.224062493801677 2.2623493730290436
Ag 2.217939685004302 6.290680776729421 1.8510998233229898
Ag 4.331286535448717 8.496215113552006 1.8573114620566806
Ag 2.7105104003471503 1.442927282469922 2.7401873307667555
Ag 9.32433941232858 8.055587567187468 2.6399598565415494
Ag 4.933368499396565 5.861215445955968 2.7556298619201147
Ag 6.896967770936942 3.932203396759277 3.718500886042628
Ag 1.3608429165250189 3.925491282089213 3.2782477792551643
Ag 6.7714674419848775 9.399198711564924 3.0912766856968754
Ag 10.099674569121067 6.110864943107698 4.759600531868939
Ag 9.591318600381479 3.2721114292205837 4.438357433341723
Ag 4.0345802311773244 3.442718684554986 4.086679987791061
Ag 7.3751322774349015 6.81362974177257 4.080308988846737
Ag 7.499902128038896 1.224951052598081 4.474047369674658
Ag 2.0580103364670483 8.650195216396247 3.9135207169439745
Ag 0.18726309066252766 6.496435640028093 3.8828100806926575
Ag 4.15339848211044 10.568784884600893 3.7639902772971863
Ag 2.7769319135314556 5.988223248680916 4.698673005579831
Ag 4.884472837904331 8.151028242221646 4.771018416132483
Ag 5.388813059218947 5.499419883532271 5.481307278498721
Ag 4.594269758154281 0.7436699624429649 4.849511113182626
Ag 2.9994081853354864 9.605606479698631 6.344083507683713
Ag 1.9483654053730513 2.0694776157291193 5.456670030241599
Ag 0.664639751066525 4.638243085563672 6.075865539687871
Ag 1.1332644428853504 7.444950515102497 6.478201871208523
Ag 8.010901369821843 4.86228379488093 6.225866401142191
Ag 6.807875285907013 7.539154706897622 6.910875775310567
Ag 5.936969280473673 2.8446559806147733 6.24728410932187
Ag 3.388633106640507 4.11661006195806 6.8421895488505475
Ag 3.948336478589764 7.089249130236902 7.26300084583464
Ag 10.587310611037765 4.242335205627686 6.960617407584704
Ag 9.432585046540577 6.859599413268397 7.626768652078593
Ag 8.639731714522954 2.133549968433764 6.995715728872564
Ag 6.4617527057998485 0.254184253584549 6.985036073219585
Ag 8.971689148219683 8.646549348105351 5.455967431332634
Ag 3.88708262905943 1.4180150726329912 7.642984848371944
Ag 5.819414529151189 5.028111553252497 8.18135292133773
Ag 2.262132916103377 8.403310752008858 8.934047374093145
Ag 1.413970302122595 2.7993691018265996 8.199716835563754
Ag 1.8192075911258079 5.6168704874981605 8.621148952572
Ag 8.51928656524155 4.3195218443946075 8.97666627821196
Ag 7.3646499392741225 6.8492402034651745 9.60702325160951
Ag 6.402763902288218 2.3160394372537256 8.993225652800508
Ag 4.255081546446115 6.474174918055591 10.010305461415015
Ag 3.7755396969591626 3.6076583359825762 9.631802040671074
Ag 6.243366507601016 4.5158888541587325 10.830037577221631
