55
Energy = -121.56097503 eV
Ag 7.601578885338319 7.412063423219406 8.501071720047268
Ag 6.349286402840955 9.207215918850135 6.72610078314115
Ag 4.524112072780973 6.509048846022377 11.167068390383063
Ag 4.367320934108181 4.06032712112852 9.564919324017287
Ag 6.857376039874467 5.209496191934587 10.26578520230699
Ag 2.9523311053593346 9.543724364965383 6.180862745698991
Ag 9.37946467633445 9.062358323371956 10.052637623665658
Ag 6.491455620250964 12.12378422261212 7.487787608356412
Ag 9.058087920829468 3.4578888840868522 10.412626660337963
Ag 11.929678024522554 5.578610931067887 6.401921819879566
Ag 4.322076030343791 7.150532425210562 5.78996053862785
Ag 4.3504226206561025 10.625319142314646 8.314772425881635
Ag 1.8440654094316744 5.089257796606176 4.8259603109840254
Ag 6.825460329477638 10.223679060407237 9.614837360927064
Ag 5.829365321761517 5.336194088064904 7.54448571623235
Ag 6.225269799205351 6.900259187247297 2.5202518193595145
Ag 10.128103409776266 3.8558903316813002 4.9753574964929665
Ag 9.385937194597107 6.276991076595403 10.497203745659947
Ag 4.724654656345889 7.693096152735945 8.586769409634098
Ag 5.167441468611303 11.077051684767891 5.170293473394487
Ag 10.850463205479937 11.051881830607401 6.015253937514555
Ag 9.15994482477185 8.654813520043643 6.482334117967465
Ag 11.535658107890615 9.982379154396252 8.477734997579288
Ag 11.043820156110742 7.308572854118315 8.484215166274332
Ag 1.8600695597545995 7.833953049623172 4.284316741635703
Ag 1.6564435320761237 7.002888563682084 6.952464121705774
Ag 3.2421257211873105 3.380154471288155 2.8951640462191777
Ag 2.656852580624476 2.375872729676953 5.416863672614488
Ag 6.902493519967511 2.838263853454199 8.803670194589852
Ag 5.900984725654576 4.065286586444529 2.5273122168254947
Ag 3.6487276243499136 6.1612478097049586 2.9033287659784497
Ag 7.2776084020247 1.2257168177671995 6.373958876014829
Ag 11.912796521634865 8.42318974679759 5.989157111833224
Ag 4.794814565787127 2.496826102980742 7.147969578561431
Ag 9.996736828715862 9.509374595187875 3.9054987256204297
Ag 7.357365596149889 3.88542420478554 5.739978224338769
Ag 9.189727875755164 5.635839086606472 7.049739287298648
Ag 9.378103832464074 2.80560405549821 7.561556437033567
Ag 7.145653055887051 6.745178814461141 5.431020440448911
Ag 5.33848180858317 1.90237231929692 4.3745567876369
Ag 8.12507506762615 11.211666019651167 5.436653670696057
Ag 8.83563799720566 7.702566062186106 2.1949126147232256
Ag 4.357663191683187 8.868823657599586 3.563412430656059
Ag 2.247614797423064 8.890676468740462 8.96837746957645
Ag 8.341723288874395 5.124883345904705 3.189632181154677
Ag 8.033727138586984 2.3326267646249836 3.599365928802492
Ag 6.995581772656431 7.908338588215356 11.182158078110684
Ag 10.253986350216204 6.7351152034735 4.458375621182743
Ag 11.089540254153613 4.566137597963671 8.912268075741379
Ag 2.3712626174804226 6.104924882367262 9.50652568294535
Ag 4.6639743063292345 4.535978571798821 5.051149896832786
Ag 4.464261903907772 9.31457324228782 10.854527132955123
Ag 2.6441968846592143 4.361867849948911 7.394335337206918
Ag 7.120739097444327 9.235123628028711 3.83417241425916
Ag 9.01104011335166 11.147453526811987 8.15575059135071
