55
Energy = -122.21660423 eV
Ag 12.020972688168419 5.589966933750452 9.025896314881397
Ag 11.248834713267184 6.1980936842327825 5.811273170479722
Ag 11.319759719710135 8.035544505023745 8.029793038171281
Ag 10.711838914144167 10.376602578915655 6.758585824624141
Ag 10.519897682170638 7.287384143003595 10.632526811654023
Ag 10.989076154295933 8.701429079650897 4.446002818622274
Ag 10.14787439927844 3.45367313985516 5.806740414406007
Ag 10.25278987581973 6.287298700063783 3.157891267792426
Ag 9.623517653488067 4.503872501552568 10.483032551128531
Ag 9.992042414320876 10.096454695670792 9.477143328071168
Ag 9.058857258046936 3.6058334435204498 3.1262531186099634
Ag 9.445449390709939 5.551135422659828 7.845997546863528
Ag 8.748840495184613 9.113284399844165 11.780458924250047
Ag 9.060856014878645 8.008614826260771 6.275264465466315
Ag 8.348640121294244 5.456744493957928 5.052313336073867
Ag 8.708167498016767 10.483551006537853 4.8197020898043315
Ag 7.472574209724516 2.696552850920199 5.357074830974075
Ag 8.635595153109943 8.573128229615174 2.7710442924191936
Ag 7.993392153661338 6.4522503262617485 11.77472363945992
Ag 8.318612341993193 2.925100494184761 8.031563632356038
Ag 8.22886335778909 11.31235116197999 7.667703010673119
Ag 8.199547770869556 7.89658217355658 9.138313680288851
Ag 11.019900159478388 3.1240655477478287 8.435020667396579
Ag 7.617547662191126 5.872201895825973 2.1992494835630447
Ag 7.1240792586450885 3.824856423136144 11.834717384482001
Ag 7.039056313243144 5.069265389015317 9.397882589298398
Ag 7.093109821379022 10.523192781830764 10.066753094529995
Ag 6.77824990562024 6.525135457445116 7.07347100642663
Ag 6.200460039216406 3.493623764375275 2.925786856453644
Ag 5.991670246377123 8.461352886463471 11.67595812824616
Ag 6.606320648793524 9.336995340990615 6.466405139117913
Ag 6.504573284944638 7.4819429229609105 4.31131496935274
Ag 5.617324574821625 3.3274367072616418 7.472570321178314
Ag 5.145470905454745 5.889607755533256 11.308212736953008
Ag 4.897855002418501 3.316775843464365 10.142674502875947
Ag 6.4212846950009235 12.053238311038807 5.63375734995493
Ag 5.42492634021377 8.232374561303361 8.895092480968108
Ag 6.22932255041947 10.218246899589863 3.506153842829304
Ag 5.348783359745037 4.989330683774807 5.158045663004103
Ag 6.109078674489436 8.204844653029017 1.5829549181094114
Ag 4.306671474210188 5.576177392139609 8.503562817139802
Ag 5.252009864262201 11.165300215504118 8.053380704793309
Ag 4.726889967297738 5.9582674178620225 2.484328621842313
Ag 4.1754944349274545 10.192191965352867 10.457797582906704
Ag 4.3236586717876335 7.568113136045659 6.2171562742863395
Ag 4.769239166262741 2.1401277080174843 5.151507085912327
Ag 3.0610905703461437 7.524844595042214 10.168759567883104
Ag 3.0004231792191227 4.116858449186439 6.430978439758008
Ag 4.111390189508067 10.43060709528498 5.497866775879708
Ag 3.9017883260328956 8.515749142994714 3.404350283755663
Ag 2.5676440413803836 6.19907314501378 4.506925539469073
Ag 2.960679726624022 9.417047314978037 7.966904246413268
Ag 1.9845063520206963 6.696834492355197 7.458925805004684
Ag 1.8614665545228006 8.745312460795393 5.421460967257672
Ag 3.3448068443599204 3.7663316387781336 3.483548831043631
