54
Energy = -118.388452 eV
Ag 9.941163705509076 4.620426246388649 6.918346328492835
Ag 8.198971688995448 6.67384314580118 5.511690544807151
Ag 7.940404412069054 6.319266572469501 11.317311695218583
Ag 1.925760700056327 7.358899464032007 4.871117924075608
Ag 9.286126047852747 8.517135150448727 10.172425788060407
Ag 9.6539353380239 4.469251119829146 9.766446700459959
Ag 6.579395794566719 8.518308985898337 7.0652031184557655
Ag 6.818334094477237 4.224461501658006 9.678730793729892
Ag 5.0541733506312 10.488157246347273 8.812357829744005
Ag 11.142161003169363 6.895113426322399 5.7976029338967745
Ag 2.896224156378059 5.318895015791086 9.380094709872878
Ag 4.368814636431304 3.3555928797476566 7.890717907439157
Ag 3.7929640415695167 8.469210272820472 6.847039750364702
Ag 6.850180294076691 7.591795968241259 3.070469932999117
Ag 10.89245648723231 9.596354664148567 5.006991015517872
Ag 3.013159819514111 5.192687545693406 3.5630340844989767
Ag 7.023188580637448 4.622241403110071 3.8054031982621037
Ag 3.9148188719545756 7.802984084081331 2.8409227474346395
Ag 8.054315605305126 6.458966918550034 8.428880884823355
Ag 9.7734105617129 7.620203262294377 3.3265113630843386
Ag 5.237031266518141 5.659679442592485 1.7689739741614188
Ag 5.2183358281725525 6.475190626173155 5.173890020884803
Ag 3.7218713222652617 8.09420337408611 9.777097466142141
Ag 1.5353444734969446 7.3282150665155905 7.898868801205723
Ag 8.716477856396622 2.659219013957253 5.2888446065129715
Ag 9.403404392358253 8.708537371489712 7.315329469755349
Ag 10.996492634752626 6.68822152365699 8.64318094525978
Ag 7.858086202886189 10.539509974874568 8.897676759169752
Ag 2.8393514540263283 5.2544908514677395 6.464412275746389
Ag 9.288153398675723 11.389077439537934 6.578175132383166
Ag 2.2808033845618754 10.208872327020693 8.765429834281525
Ag 8.118891950093776 9.561134798783263 4.753995467372323
Ag 12.11362813031383 8.982867975214665 7.476744058176382
Ag 6.4517942980492204 8.503871349916887 10.290262539966264
Ag 2.649639430287697 9.977109800795397 4.004957110730362
Ag 8.576515536914428 5.644025775136588 1.7588521794770249
Ag 5.179103489077111 6.091412661884764 11.024851304135101
Ag 6.507731328265307 11.319835610200839 6.512717654865711
Ag 8.493988650550394 2.5143781735316115 8.109771790465144
Ag 4.549188351857982 3.409025311353947 5.094347881930644
Ag 10.135564678101172 4.916215274813476 4.088204031214054
Ag 5.3307656200869875 9.482318043976166 4.600599826611701
Ag 3.709136340575191 11.225595562489486 6.405865809347757
Ag 5.182710177966858 6.254883105089126 8.086288948071916
Ag 6.841894926876966 4.430998524590956 6.658569488361351
Ag 9.080216496297783 2.8740971410249845 2.5308988052204975
Ag 4.38284585149481 3.35588726711002 10.716242062742996
Ag 4.319089132977831 3.0620293141586927 2.3605669230241295
Ag 6.544097960572253 1.8627428642997907 3.617723564167773
Ag 6.013021617994859 1.564229565867317 9.204326029996444
Ag 6.317609889589805 1.644152351964152 6.433308667135409
Ag 6.789640649623578 3.4742131204810587 1.1423342442288804
Ag 1.2280466261301468 9.640646790314952 6.307212618509369
Ag 10.722606699921448 6.468586380908597 11.420202333921647
