54
Energy = -119.37015599 eV
Ag 3.462848348207401 4.498851466229865 10.31854986916331
Ag 4.5768933424609894 4.45139852498602 7.792308921589774
Ag 6.089124292941795 3.211255217354247 9.874702434696488
Ag 1.8375705960073256 4.152360442862055 7.561554233937298
Ag 3.6621400175934125 6.041470515954208 5.4304543324430945
Ag 5.688034276797297 4.879685302346995 12.180321776206839
Ag 5.8580923905256705 4.2717301863599575 5.293771903127893
Ag 3.905880167061119 7.031420611428465 11.566628980219727
Ag 6.536205796044415 3.770000045599924 2.1612516372777315
Ag 5.814506846782484 6.161154070670539 9.743477871583684
Ag 1.1047898387976756 6.633274626813966 6.046267698875322
Ag 7.390333155657992 4.827661193597589 7.7563284369048695
Ag 7.144441795419222 8.862515545110645 9.25402765611013
Ag 8.167879111339236 4.78171334822473 10.835217336198207
Ag 9.3645009340165 6.733451475143804 7.458935258753541
Ag 4.350683019767424 8.655380011131298 9.349915482736808
Ag 2.3711170885263604 5.860992057084794 2.857223242482524
Ag 8.389232101400765 6.0549837726672004 2.5324506445373047
Ag 6.801609936171199 7.603252705329931 11.802466030533218
Ag 12.045779558902625 5.7287466475872355 6.890297798245443
Ag 5.429547926037258 6.096227611573384 3.181308266461247
Ag 1.6055627828079237 4.064425918548028 4.817594245376173
Ag 10.439408454339803 4.862851547117873 9.2393470122551
Ag 2.617335832748121 8.391418557682625 3.921451715476624
Ag 3.7080577473304674 2.5215184295890856 5.920022180780103
Ag 5.405830644097755 10.09708504656546 7.18018599550666
Ag 2.7240929658377064 6.567278148058075 8.54574711600307
Ag 8.664403269658731 2.5839623661729183 8.776276365837882
Ag 3.728658103747151 10.764702215085114 5.0715765374992055
Ag 5.679344594794046 7.119079303418647 7.196309223935853
Ag 6.237205902994976 2.17473638953882 7.228635405329947
Ag 5.34588667487792 8.436769809759728 4.763149273510156
Ag 4.136365958423112 4.885486555063464 0.9272386103645882
Ag 3.931249707047796 3.4196547589888175 3.2969092091453533
Ag 3.0147376697137522 8.618352583874872 6.737466952856348
Ag 4.7373535650131045 10.138241814640352 2.5918288154462985
Ag 7.846461195012518 11.316443614958699 7.812257134976664
Ag 7.567623185892197 6.41186714111302 5.2096540568159515
Ag 9.960250544196212 3.8999587738224912 6.619137559007226
Ag 11.665866030104224 7.474559486031728 8.9898323583642
Ag 7.831655420814195 8.8893772573621 6.467124683616829
Ag 4.027914081251744 7.71885621107899 1.4237665846611247
Ag 7.075234259767463 10.591449338062477 4.3094186720309615
Ag 9.207448738216781 7.320921320060397 10.327478153603721
Ag 6.227423111601386 1.7973459456088823 4.284285085975296
Ag 9.83001193673643 9.487945192445356 8.473146350742816
Ag 8.630847358842356 1.594432882932505 5.9583658756397195
Ag 6.4797836597997005 6.310214163422914 0.535215124771932
Ag 8.469835055560345 3.7513428240567626 4.212776041104932
Ag 6.916187635792645 8.494218940586512 2.250144750995784
Ag 9.159056145299319 8.509864066396567 3.9841131056432872
Ag 10.29590618148375 5.972117402282565 4.7149629403295
Ag 9.710915446980533 10.747044230519203 5.71898280761311
Ag 11.175798786168682 8.392425436966327 6.169663732462597
