53
Energy = -117.54620516 eV
Ag 6.952664099657681 4.272113701562182 2.073804484335594
Ag 4.823375486208031 3.7739946119842895 0.22559250000819592
Ag 6.287285485727997 6.270571055027409 0.18387352331348586
Ag 3.3412286590443037 6.133785867067276 0.9254193714065669
Ag 2.0451767615027863 3.548388184419688 1.0352856689930268
Ag 4.766509025647001 8.700184876249196 0.9169360709253029
Ag 6.01428284921691 2.1323679566806946 3.7920242771616914
Ag 8.961422737327686 6.109318545035023 1.2380342599751115
Ag 7.475407162640743 8.504035687187795 1.8944329813400655
Ag 1.3965557658887449 5.308153866629224 3.2074108369741556
Ag 2.8028213426745596 8.102190126364787 2.9659145350640466
Ag 5.977444594523366 4.821608230335853 4.681119966316411
Ag 4.036794943092906 4.149587532292189 2.843711651032692
Ag 5.3779333363385975 6.7849219855944085 2.7832041910418717
Ag 8.492246921838642 3.52348868190155 4.426692657217227
Ag 1.76744401889105 2.4546436028559726 3.687574790621065
Ag 5.379504117767448 9.545754830708354 3.594478575120986
Ag 3.8578881709252224 1.5180610380946247 1.9995599925404737
Ag 10.107201114139754 8.079466433600903 3.0387372441666263
Ag 3.8845826848489686 3.2049217955098537 5.576090701422399
Ag 8.057266363603704 6.428271714566486 3.8436180774351856
Ag 1.031416131513277 7.426446062228958 5.134036600963837
Ag 6.486234533735913 0.2778356422923246 5.90403137266432
Ag 10.582913732952978 5.302759546460699 3.719661293953393
Ag 3.5275928385332134 6.195700347111573 4.869877250927986
Ag 8.086759595300862 9.189848985928833 4.696441827617433
Ag 10.748053343228046 3.719150576943712 4.956295448279723
Ag 9.974333941527105 7.26196014551834 5.822786197026963
Ag 3.8184053126120188 0.5607701643888869 4.723146938763463
Ag 2.3401281465860904 7.2454463948332775 7.638471041675623
Ag 10.306362023107917 4.40346079145669 6.432810843403168
Ag 5.964047090465923 7.532884948091107 5.5435477974568625
Ag 9.05575057643335 1.8030211656182291 6.630459867210571
Ag 1.7214419451152667 4.74675209612197 6.322138408705289
Ag 10.582913732952978 6.032414619742754 7.003587437838511
Ag 7.754809659336408 5.601076468919745 6.643958018951849
Ag 3.454969620815629 8.976459407504954 5.702881922733674
Ag 5.952453476379836 10.167448637337259 6.363788826045574
Ag 6.547420035291817 2.9548014890503635 6.629619487557335
Ag 11.030798444622688 3.2872434128772037 7.7990805780121875
Ag 7.82744820779877 8.340038486001387 7.533143940826203
Ag 1.7137474010019516 1.6867885509316136 6.414519679502931
Ag 4.805493402956901 5.336048472678293 7.235645607771216
Ag 9.61501237322842 6.338916741263806 8.521950540172801
Ag 4.370998586040566 1.1890362684043592 7.545768749166536
Ag 8.4115671875509 3.7291093999181038 8.670564116429555
Ag 1.088117375753274 5.378973197869359 9.243543031017516
Ag 7.063208556808854 1.1442225375252912 8.634355077533376
Ag 4.960730468875904 8.14796244409263 8.168327658676132
Ag 2.8310512739306963 3.3230018523219482 8.53714845263497
Ag 6.744240015381757 6.169514731263271 9.216064280427581
Ag 5.559519329846768 3.4848839718187663 9.263993895085909
Ag 3.8378132984754085 5.860281971443517 9.724927306183861
