51
Energy = -111.45363758 eV
Ag 10.257246908739402 3.3756791993845927 5.3969745145520305
Ag 4.166625980301655 7.800778419593322 2.1130096928138373
Ag 9.218226304227068 9.405511490691723 4.334713221892912
Ag 9.053951541635415 8.600752098507327 7.21881135036201
Ag 11.519548098720524 6.964068199561669 8.2201121903937
Ag 8.953510437412515 6.077052255003448 9.103569656544968
Ag 3.3274193802066767 5.314023939872253 3.18375186517719
Ag 5.22160116440961 6.814145362407772 4.535733172663728
Ag 6.884047933847775 4.241362787075935 8.462220023643656
Ag 5.468205167494666 11.912687477078144 5.624312511646199
Ag 8.697393444807856 2.2381171539831324 7.62550924626514
Ag 11.293517607558607 7.934086041459582 5.44736560886397
Ag 4.5749068031804745 10.109268167192504 3.653715710242119
Ag 2.6574867505216595 8.210632957292864 4.4967521814247915
Ag 5.965732568412623 3.7168514794351553 11.050128155335724
Ag 1.6533866264012222 8.17165723364494 7.244155515835147
Ag 5.665442193760125 2.2613148155311547 6.604299842849124
Ag 10.00276372993638 8.485495022746024 9.996595108409403
Ag 6.16769603617038 5.8038954326687 2.1074879647923668
Ag 3.796451577137796 8.777570651395791 9.448933012719824
Ag 4.35209520980128 7.714606464025259 7.021028797014723
Ag 4.728709408971198 4.918143421635736 6.677637477979058
Ag 10.671395337356575 5.765225594393101 3.7506001748266486
Ag 5.323373562872902 7.822286259321556 11.732079689034997
Ag 9.649549291212315 5.9001372981723526 6.430119974452765
Ag 3.3488874831361715 10.238068422311171 6.337732984142706
Ag 5.797104307992305 10.407601496089319 10.732401293727113
Ag 12.31950490026767 5.297051431447317 6.0671332617234
Ag 7.241927166134939 11.214301034387722 3.604603629329674
Ag 4.142661401538747 3.378953685318325 8.945673487905445
Ag 6.537094222466508 9.119402344305547 5.5029916703746276
Ag 7.97464670473443 8.870044738581374 11.80119408018081
Ag 7.566190011824995 4.159801964790652 5.755637680112153
Ag 8.246187647967993 10.58538807601413 9.242096976032316
Ag 8.090498978007934 11.201600024468206 6.467970823684853
Ag 10.770513111988329 4.02214211351185 8.191524813248876
Ag 5.064099621022829 6.071800562476225 9.508121519148357
Ag 8.360212966723143 4.271066930980073 3.118844689786022
Ag 2.185593946581592 5.804275836306914 5.721024318026871
Ag 3.157488121514477 3.1473147975236553 5.304089539963971
Ag 6.50132518361931 1.6055558154448513 9.256746147598998
Ag 5.7055070048091086 10.354232214442863 7.933994048788831
Ag 8.847577038449689 6.730855907762598 1.7413275982679504
Ag 2.5404286311061997 5.787043044764763 8.45847638510804
Ag 6.918598428694643 8.14845429198726 9.348525706925596
Ag 6.8258349148393815 8.648302737939028 2.5758549368939767
Ag 8.751644487136078 3.4465270011517695 10.302435031968749
Ag 6.93500094846238 6.679247274773554 6.985518078104294
Ag 8.073839160415272 6.837353626684915 4.372344292760531
Ag 5.523917044046582 3.770496554524039 3.98110775524229
Ag 7.45692357956451 6.032818663213167 11.408780974648641
