51
Energy = -111.72794668 eV
Ag 8.869032096513706 2.7934688742617317 5.689738929402201
Ag 10.52949461340498 5.174424764519712 4.785620164845164
Ag 9.118490475734337 2.137584620032304 8.462298412385561
Ag 10.55547370731869 4.238030831988155 7.410930799715707
Ag 7.894568068004222 4.531112950394047 3.726460861457975
Ag 6.3753754707218695 2.1809909743195335 4.213598488962172
Ag 6.730320671512421 1.7589036800049735 7.0890170410011715
Ag 7.194443747250519 6.401256883904169 1.7911861554972224
Ag 10.545472865537775 7.001329314863891 6.939814219514426
Ag 6.724036326316927 1.8038568905077415 9.890700930758857
Ag 11.218517951675615 3.397622361123901 9.93529687735638
Ag 8.127781931526743 5.550142656636434 6.316471461900868
Ag 8.666165461806509 3.4847230765653507 10.98461828673156
Ag 8.909529778207089 7.318486422426954 4.054477155682547
Ag 5.205065908536826 4.756369223048925 2.9758963585028697
Ag 7.2915019029674335 4.681579755044722 8.82292745073601
Ag 9.897039518056452 5.869261922861376 9.649767453544039
Ag 5.611187781618689 4.242215050917589 5.811385616567113
Ag 4.104004942123983 1.9121978129164077 6.24225641177303
Ag 3.0940012817990343 3.689471933739086 4.382512032640044
Ag 4.686858862664933 7.528770587254355 2.286694856492712
Ag 11.445185132157375 8.19463841533789 4.547540131586094
Ag 7.041060730835666 9.023927679164506 2.7363706716258784
Ag 6.23869676465182 6.876439036308144 4.612254162916815
Ag 5.792231217606526 4.214037085244564 11.121245407606898
Ag 4.815165115862258 3.2922476057020327 8.599646177030191
Ag 3.4632167542928247 6.47980109815985 4.853866996290692
Ag 8.029722850237334 6.026252309888568 11.775336833984236
Ag 10.403227445714995 8.683505368591034 9.189572627306699
Ag 9.281605125242956 10.146457298606954 3.927243124243989
Ag 7.42415770597743 9.11134512729104 5.9066247078006064
Ag 4.701436078844573 10.419855425033463 2.3041571493887947
Ag 4.584324752217923 8.851765090424395 5.9605023592991575
Ag 2.7694200745320434 8.952975042608887 3.5963336644963997
Ag 8.016291536982468 8.70287218337953 10.758611530768958
Ag 3.028321611288162 4.714084546219156 6.994570665858408
Ag 8.015629031203726 7.506866254347966 8.281734045881176
Ag 10.267247633961217 9.75246684042626 6.559635946432654
Ag 5.878502433022934 6.936888355971899 10.374114029344339
Ag 6.5642914319708545 11.361703577630472 4.152860557129141
Ag 5.476049198600703 6.4879862325604645 7.422781659807651
Ag 3.609237090108588 5.59481692054322 9.648490525999609
Ag 1.7935675372559268 9.556403643380825 6.034762614371452
Ag 8.254712086521446 10.393715083038277 8.414553940535532
Ag 5.840165295156779 11.334062746816812 6.901017316448526
Ag 3.811003615329897 11.309399239103563 4.9145154326723235
Ag 8.495032123354209 11.898141819863907 6.04731837565278
Ag 5.771424839546249 9.171541463520652 8.733430528378042
Ag 2.7737339583029526 7.456924219363578 7.653220694215922
Ag 3.4735003193955594 8.423720765132005 10.16890477615151
Ag 3.4064359271635025 10.420234313582153 8.094281993433999
