53
Energy = -116.61307542 eV
Ag 12.37194126692188 8.937966948962503 7.765879005381063
Ag 12.15362575125329 8.98843743052008 4.926090618198128
Ag 12.685620469932044 6.092390485453574 7.5606127056342975
Ag 10.79247973673084 7.111446762142534 9.393287434344096
Ag 10.76396964270737 10.972930407798438 6.364443746661525
Ag 12.11538460088454 6.081212583116739 4.768492063224446
Ag 11.217596818208474 4.361870488590908 9.289411348156898
Ag 10.371621618895713 7.43647713304097 6.514638782437512
Ag 9.790707886226809 9.594538382916689 8.5615781320742
Ag 10.148610320248501 7.661585621094695 3.528329221820664
Ag 8.883353734152351 5.179588462692104 10.679352452666915
Ag 10.519444574340667 4.505139071815592 6.6086498759643595
Ag 8.049089770705672 10.73574865739555 10.40971873112997
Ag 8.178646286649487 11.771009950903494 7.35022795773209
Ag 9.66168943133693 4.81447368736863 3.959541620406438
Ag 8.15988392063086 6.358445931928724 2.082661076893561
Ag 8.422045170975384 5.9563867730517845 7.953078976623018
Ag 9.99310822951732 10.46640482474062 3.7009986971602546
Ag 6.796618938824725 3.3693727164771072 10.960160741659289
Ag 8.223842181756055 7.846911888869494 10.19323120128733
Ag 7.941809659222973 6.63355098649172 5.151739875425626
Ag 8.453042234515245 9.35046449331255 5.836503343334853
Ag 8.743316255450114 3.1189810354744454 8.694638779616335
Ag 5.754585572937408 11.747882268442597 9.142255508944523
Ag 6.969690414478865 9.429642682076402 8.209095219221245
Ag 7.641217051010685 8.96325356341765 3.133495564410217
Ag 7.4282171750046 11.484706433231885 4.41818953706611
Ag 7.830584241555235 3.7885241878945535 6.057889634554047
Ag 6.608045299068119 1.6268631827088254 7.4421050487833185
Ag 5.87223804137577 6.9161762128370965 8.49954089254024
Ag 6.092616255846941 4.148934154605148 8.361372720078807
Ag 6.114903545479852 6.099559439138138 11.117332407873239
Ag 5.718947473800977 8.251342413017877 5.965375943518012
Ag 3.9911969096259443 4.448368228747912 10.27304709623452
Ag 4.071007082577865 9.55167388081966 8.504654734238976
Ag 4.879810130940732 1.8360574099612874 9.649627995936573
Ag 5.6938051372722445 6.968534599989099 3.2134413975780096
Ag 5.386897560236882 5.485430818689432 5.918622330257963
Ag 5.437814568492825 11.03857358279973 6.386805478240046
Ag 5.7031549962927786 8.978478528730715 10.714104129973153
Ag 6.811984678710816 4.356643638785076 3.553273268474162
Ag 5.021348566075668 2.841624131318338 5.42946517963641
Ag 3.446537835075018 7.054120537202928 7.21611879085791
Ag 4.9618335688257265 9.731478964064793 3.8204815041273625
Ag 3.5358981752929646 7.183396054003131 10.154746666209942
Ag 3.4545113594876122 3.216440236873001 7.736331148851265
Ag 2.90629118487009 9.54192327776893 5.935236073704958
Ag 3.214968216449655 7.257199685999141 4.3508899986556395
Ag 1.498822428525504 8.424572000920529 8.579843900451008
Ag 4.043285083726387 4.691986263245578 3.447743955803891
Ag 2.471826512686417 4.816062088465145 5.749684833750805
Ag 1.8022944058675185 5.387306472356168 8.607485794924079
Ag 0.9628940062131808 7.2274434786247905 6.080506899108746
