51
Energy = -113.21330439 eV
Ag 12.152322365653715 16.099795877993625 10.874588415702604
Ag 9.372188250956192 15.339864174628445 10.8745884157026
Ag 8.729945309517857 12.54133045699539 10.602947000288745
Ag 10.949169671588486 15.095602811968963 8.498430661148323
Ag 8.301414142703532 14.24270204153192 8.401316651947045
Ag 7.771637432815783 11.872117680009177 7.021685751069522
Ag 6.638472526909751 14.333559622054425 10.818625167822344
Ag 10.432569059778306 12.329679149783288 8.111391684096912
Ag 8.63105619654336 10.161150532029199 8.991389301040565
Ag 8.877096230064488 8.471252798641688 6.828850241819913
Ag 6.288801530508872 9.538124395955338 7.717339065414867
Ag 6.230325427534652 11.878868319395412 9.353368136186866
Ag 11.523244636103438 13.445746207761443 10.68395876628475
Ag 11.000939795526445 14.748499627103458 13.138762637761424
Ag 10.407789322544605 12.00094499403451 12.875735209797375
Ag 9.921052294849769 13.225981145174783 15.293256176596536
Ag 8.608582526236283 9.995715698139012 11.874920150511034
Ag 8.274416811464825 13.876372142131292 13.06107299712063
Ag 6.235009111461947 9.324185595172985 10.566897577103981
Ag 7.881820220380258 7.262499512247876 11.862554534877441
Ag 6.41649195906374 9.218075394887764 13.392729428931522
Ag 6.384086991424098 11.765410295555084 12.112271460563436
Ag 8.08878932788832 11.235145257027419 14.39944793520275
Ag 7.72929425127669 7.383792227693341 9.104827052818198
Ag 10.78717055940879 6.738046134732907 7.991801346446947
Ag 10.166904326293121 8.034254636750683 10.356777887939941
Ag 10.877080918831911 10.809027348509726 10.462986525189933
Ag 11.247557195569856 9.285319270558198 12.712930480198521
Ag 9.030370329648479 8.389052682314071 14.252310771024487
Ag 10.643286815745975 6.536689958335112 12.627502157251094
Ag 13.550600158562492 9.887444978724563 14.35886970170348
Ag 10.845123726446449 10.536867402189085 15.286876852882962
Ag 15.51059534231547 9.891602391845526 9.314454570082948
Ag 12.61269899157009 12.705725598663575 14.525338701942388
Ag 11.681011084365855 7.7947089096307 14.985933864082746
Ag 13.407567902595696 7.467699861326546 12.715005060399566
Ag 12.351525561186147 6.283249399370623 10.365752265792452
Ag 13.078904248781697 11.406111123912485 12.005858656493329
Ag 15.296207584730206 9.654172550860737 12.066255988003517
Ag 15.238096331122106 12.059056497480752 13.629440196570037
Ag 12.986214368575833 9.051733650216859 10.417574665473847
Ag 13.443206258813987 7.583744952132625 8.05732160555156
Ag 15.103757466328267 7.2830261215187875 10.43838205835528
Ag 14.003809429131147 10.114011566741336 6.978288439149331
Ag 12.886429269014362 13.506078546277807 7.157261428177342
Ag 13.111960785995967 11.582856051594863 9.118890169956044
Ag 13.80966332258687 14.174672115304022 12.314521337213302
Ag 15.470489989829083 12.291928018010571 10.823395315679928
Ag 15.45664463835825 12.405121863581794 7.9682900028065005
Ag 11.317988167057402 9.521724139503707 7.980827343796349
Ag 14.008330210668461 14.389371648325469 9.557774822328877
