51
Energy = -111.44832453 eV
Ag 8.548574771781514 4.529634774395194 11.35002798873605
Ag 6.989631743084025 3.305211917509907 9.423771789129502
Ag 9.904980849553915 3.054907962313475 9.420815373901798
Ag 5.972646936985324 5.7468673771369145 11.168378497316535
Ag 10.937099431104018 5.643562298818347 10.220155417190663
Ag 4.352757144580345 4.305094845394815 8.879066795934227
Ag 5.163946908444698 1.9969340922027596 7.457577223261025
Ag 8.508521391912359 7.180507310226378 10.720982393945661
Ag 8.491053914919654 2.0253790741707998 7.21963790076086
Ag 2.399839041307166 3.203713159354308 7.238701188529547
Ag 9.096328983703758 5.464050099326885 8.177894909111497
Ag 10.87364844550266 3.694268167512076 6.862580419947473
Ag 6.420680591439427 6.181937419687732 8.543126609023373
Ag 6.079900518560808 8.559780092880885 10.138205791961429
Ag 10.63797910511152 8.28705563705683 9.172098259410166
Ag 4.0606125093487355 3.3105751433835287 5.0990204634896035
Ag 2.0119223780806434 5.898668240619291 7.719979211492362
Ag 6.580968066308131 2.0196351656889044 4.89009534288572
Ag 3.884186460658019 7.014987856245584 9.445564303362781
Ag 4.637250166460053 5.87537278628706 6.267170513236355
Ag 11.745530245201728 6.275572439830091 7.532044923411136
Ag 6.3164164702968675 4.813322355244547 4.120581751863666
Ag 8.911185705378905 3.6656084296702196 4.881074489676557
Ag 6.771286508516095 4.102166705842811 6.78178950685738
Ag 8.549001052529547 9.98244427443412 10.317147186518948
Ag 7.885106430519753 6.537627191426397 5.890883051604969
Ag 10.549748769374347 5.92055204210717 4.982438911424028
Ag 5.268815824847246 8.484763817144191 7.149856014659976
Ag 8.05552511777093 8.335610668336413 8.08941100832017
Ag 9.44284150953637 10.675941199982113 7.701359681677486
Ag 7.683446989067197 3.0636710079947127 2.368871005032372
Ag 1.927285522916052 5.169284571869306 5.035639014045359
Ag 2.4535968800564816 8.606586478623178 7.6377835101809115
Ag 8.654855137713305 5.695335560406894 2.7940860861718764
Ag 3.849215539906729 5.666231747529359 3.0402893198976275
Ag 0.6139652581906445 7.591651258044668 5.748732588344436
Ag 10.204373727748752 8.34998988148529 6.301347831387986
Ag 6.585476946217147 10.770882368843356 8.31153386049995
Ag 5.99242809429082 7.664212655041068 4.237398437116788
Ag 3.236550858114243 7.837984683750744 4.942020716766869
Ag 6.09685562920952 5.2805982959365405 1.3711788002241447
Ag 4.8619120983630095 3.01833181611115 2.458623516532773
Ag 3.9684136018185696 10.985926467758278 7.315249349196882
Ag 8.866077533081514 8.24718119076032 3.784076516610479
Ag 7.084104727748161 7.782543544999822 1.539372777997916
Ag 7.482326639329513 9.77465260824169 5.71733961041987
Ag 1.540025112485761 7.244398860332202 2.944150437903736
Ag 4.716670426028388 10.18316103616336 4.787438034578769
Ag 1.90312092917711 10.22152384462584 5.428101177984992
Ag 4.239325264654745 8.402669361434253 2.242573911995254
Ag 6.765276041812909 10.093185996832801 2.9448346100586327
