51
Energy = -111.95900377 eV
Ag 3.3452115254970485 5.659062500054704 2.3252613172835126
Ag 5.074085670174519 7.662795952669303 1.2487697083052551
Ag 6.196664035342289 5.175245534380177 2.139058036166175
Ag 2.966834986839994 8.474536057627782 3.029094253392001
Ag 2.543045118329855 6.146626597929274 4.978640176699412
Ag 4.732104212875606 4.315248940662205 4.437096303099371
Ag 5.7515602927146 9.776142287406197 2.9979037953968906
Ag 5.107858899246044 7.07785697464846 4.033497828575698
Ag 1.5017952561854992 8.688984142666245 5.379794513761756
Ag 7.6132676457228925 7.736494802740831 2.5074026975619232
Ag 3.848040831247683 10.441218814058216 4.915685729797264
Ag 7.537163397662288 3.121517939421908 3.823873510484343
Ag 6.239533753055006 3.131255038668669 6.362489906441793
Ag 8.95045425418743 2.096926327576824 6.093605896124761
Ag 5.900402994103368 6.007503659385232 6.703613006706554
Ag 9.01870448011105 5.22874066946778 2.3062515862057325
Ag 2.4231788403581005 10.3608226002764 7.365797592687285
Ag 3.593109025005689 4.601875740611108 7.151256253855523
Ag 6.595648355008881 8.776283884637138 5.606847521632934
Ag 6.5092192020946396 11.54799013649582 5.091878962717658
Ag 7.563010780001944 5.768057083010896 4.617626089475824
Ag 8.591596401944392 9.931585062081322 3.936207252048797
Ag 1.8334971958926802 6.8745467326564205 7.702978084574029
Ag 9.824894535830321 7.338520501911482 4.230408645801696
Ag 4.006477367708734 8.084484781978992 6.5708379867317905
Ag 10.012994433608721 4.443856104311652 4.813416490013024
Ag 5.243864202557258 10.602153829946321 7.429986575188648
Ag 8.514563640340288 7.242803808660325 6.893433999842497
Ag 3.6733208755502114 8.806139627021606 9.333124425146515
Ag 9.175097969508505 11.842099679372685 5.9052933983008575
Ag 10.31403598489726 9.320545201845972 6.167454564549939
Ag 3.74990715517857 6.039483767141741 9.589256516562072
Ag 8.552246802845827 4.492577478659609 7.385509233107032
Ag 5.877648942899702 4.314806847641117 8.936088923959474
Ag 6.292971248817743 8.09431795381326 8.460843308178193
Ag 11.136195797616418 6.459839677751297 6.600173683264121
Ag 7.536797114719304 2.016799480169071 8.577578156676125
Ag 5.9941558045087335 10.337890374898501 10.081907966731434
Ag 11.287070889612227 3.6028256574753907 7.133679719508473
Ag 8.126424184649029 10.136178404029868 7.890723922212903
Ag 10.357466768660723 8.233292275183464 8.776154848359099
Ag 5.6108413144366205 7.617334290446871 11.120107369162463
Ag 5.30992078267923 4.881621206766311 11.606926599441062
Ag 8.160126977017253 6.163524432944015 9.557997552332385
Ag 9.980871175485772 2.900804725107068 9.45370482095871
Ag 8.205347333461456 8.771371219422115 10.604319187895568
Ag 7.670863247375387 3.5758996302637795 10.953666264474498
Ag 11.081795517647874 5.51480857934085 9.235227035192255
Ag 10.374369430608072 7.238201769630713 11.363883238159579
Ag 7.824318956878108 6.182068727837616 12.268259582909982
Ag 10.144772328715979 4.5187673970276485 11.706918419601957
