51
Energy = -111.84991127 eV
Ag 10.801143510689096 5.198723877370398 5.382551616972877
Ag 11.910393232034739 7.87715246651184 5.868739321659632
Ag 11.145019605020869 6.183311206701655 7.994695104820226
Ag 10.118864038635857 8.802470285206102 8.11782215559542
Ag 9.435268682649435 9.65568333374221 3.460742680752107
Ag 9.076856080435704 6.918922584678131 9.777596546747333
Ag 10.674226020732362 7.134005562118745 3.323507965188747
Ag 10.495509361806898 10.385084157541423 5.933494662865887
Ag 8.502322441098377 4.179676469823682 9.883666451092145
Ag 10.439095758633954 3.4234542822243332 7.695128864476882
Ag 9.199428672620584 7.663922828036191 5.610228152723378
Ag 8.807082370873998 4.981859892270421 3.2286785510052587
Ag 6.852694675117306 9.246819528059502 5.241454303009923
Ag 6.661730475798738 10.249102091359651 2.7695444222643113
Ag 8.011941481055583 10.562568570591045 7.51357071859456
Ag 7.09406736397465 9.086106367887625 9.954471294502499
Ag 7.2544504411293484 7.726730853170292 7.676711481479198
Ag 8.313303298959898 11.736238511287725 4.8622857576278875
Ag 6.453099971083529 6.167825158991742 10.201213556454691
Ag 7.537190536769257 2.629045923939092 7.791314466340715
Ag 7.765891993931227 7.55487582619009 2.860069037000839
Ag 8.521342851164217 5.299045374388127 7.3219522222036515
Ag 8.797641048410043 3.1717790988233654 5.330946585217361
Ag 7.178557027073658 0.8514028318616491 5.592024922400227
Ag 7.0635730802811665 2.6104510213791783 3.0948585148498013
Ag 6.027745923723522 5.234606027537215 2.5417584714218284
Ag 6.942865449228627 6.042546209528682 5.156392150319152
Ag 5.591397794844239 5.123822589167488 7.576978323290932
Ag 5.212004568239034 9.8677178755697 7.839348134664162
Ag 5.009744794478986 7.852624246907631 3.3493744210343137
Ag 5.900807967830393 3.296274658859663 5.483153232005116
Ag 4.012118447475642 9.970549891459509 5.081266696856153
Ag 4.866451259727585 1.6993000109462904 7.60428521185754
Ag 4.222941831047417 5.357203507776772 4.736001343832963
Ag 5.8523855974024075 11.867699885538046 6.0264615167017554
Ag 4.815106857709979 7.581684736891014 6.284185071805674
Ag 5.676276733235539 3.390459648381473 9.797135118343581
Ag 4.493173398875397 0.9304758559428761 4.87844514342171
Ag 4.288267879064811 7.542897152069949 9.109237165527523
Ag 3.136095457280266 5.796005032573828 2.30270936659777
Ag 3.814939297809939 5.322889725658668 10.675169056916616
Ag 4.126835423257854 3.1269039351672343 3.1405453350796693
Ag 2.8669583553531104 5.769875247294761 7.078732797900844
Ag 2.9992263127945407 3.4610845185081303 8.777177521946482
Ag 2.41610378708074 7.590795678785497 4.628541559454656
Ag 2.9359557340448568 2.981479517078941 5.926001409506114
Ag 2.460358134051142 8.72178847695944 7.2822793913357025
Ag 1.410138205567118 4.935861730632263 4.596243198634451
Ag 1.452074767359789 6.0543804723810775 9.327651428802183
Ag 0.6787963323394491 4.091669682007359 7.282106199621821
Ag 0.3919013776083161 6.864256296021596 6.6226765182384115
