55
Energy = -121.56708038 eV
Ag 4.475088272720467 4.209664981077448 2.2325101087955748
Ag 8.851414410685246 2.8678058184772492 5.735703696787739
Ag 6.108944687680579 2.7353042351527073 6.5063649026179275
Ag 5.455269901587391 6.206861710647179 4.129817187547444
Ag 3.982237123825507 8.609502684818732 3.8120261487171776
Ag 6.446650977927615 8.24220726791894 2.1779917242706537
Ag 4.146857914163375 6.874727826997906 1.600180267515297
Ag 1.9716874445574322 7.137874442947736 8.73323244590568
Ag 7.134741775852731 5.884635984876821 8.673858502990422
Ag 8.304265848439892 7.666394201230836 4.407229416230625
Ag 9.266199570975497 7.241341436344552 7.07780566898851
Ag 8.082668801909028 3.0244864951212556 8.524484942217619
Ag 2.610027400186169 6.0672036389330035 3.9084231995931744
Ag 4.415863083762071 4.087136586381419 11.630100735003431
Ag 2.990091325326393 4.620956122412636 9.246104293384366
Ag 11.933341481818404 7.510467179960923 5.918943881577517
Ag 9.583341582367446 10.840124497864165 7.94025330225662
Ag 11.394466250508593 6.348234194120393 3.373557482067957
Ag 6.324029870398671 7.7421586820468375 6.415561931679015
Ag 2.3885162347419597 9.783741692125771 8.210086009690377
Ag 3.9209911465452634 3.728227909471559 4.859085481703911
Ag 7.516847088087524 11.406568322053127 9.73259448507788
Ag 6.933092179988002 5.50125505413987 1.7563005459887249
Ag 11.621492747166728 5.9121043189205205 8.215045068357819
Ag 10.850007196313692 9.00028819500003 3.8123756272148004
Ag 11.64554198110709 10.290484495293683 6.147120594922366
Ag 6.45823183687129 9.904002408162595 4.438102953523023
Ag 7.521120252054655 8.762589391167465 8.723672014163318
Ag 4.822872664068235 7.523419567215146 8.909652773765364
Ag 11.044101006940062 7.179519785210719 10.687747567559157
Ag 10.742013050753396 3.246378893114173 7.850135014197249
Ag 2.064277758554434 5.1686954898173 6.579731733513356
Ag 5.560599738274665 6.634361692506805 11.630042681486081
Ag 3.445531917550248 9.003545587210072 10.78615932344318
Ag 4.830616373661038 5.3201128716990125 7.06133202183933
Ag 9.049172182022271 4.8433938104876075 3.464020534040978
Ag 2.327249221292972 7.909522974232442 6.024920699971406
Ag 9.1939355017113 7.257729360076532 1.827495984466647
Ag 11.363858839525754 8.728425430103997 8.437683188233507
Ag 3.3881948521074503 2.682894023342674 7.34544248609345
Ag 9.66113415361949 4.892090481929648 9.878247522868898
Ag 5.419080661681457 3.2673430854342165 9.168777352196036
Ag 7.177610600988318 4.3710305740605815 11.044320426362374
Ag 9.058820180512573 10.702223875739772 5.193642902919224
Ag 6.918793344956743 10.944202210706448 6.983675866454718
Ag 4.371625600130504 9.78247307351095 6.321428273424677
Ag 8.26303516208173 7.087794608874603 11.042084519331057
Ag 5.002137778005493 10.477077005020785 8.99617931120459
Ag 8.555536422623835 9.96291449852212 2.556629682913352
Ag 6.336105474652897 9.257665530966452 11.187423806778465
Ag 6.646498759734196 3.478976592418696 3.8462602693445342
Ag 10.691142218541215 5.007335397149025 5.711841350379297
Ag 7.508337982429558 5.280167091093493 5.858592906181199
Ag 9.565303372678935 9.561844935594499 10.484316969865448
Ag 2.818568992450071 6.3816939794146315 11.342864411494203
