54
Energy = -118.23476362 eV
Ag 0.713632098573452 5.9252024929376885 6.167224196193991
Ag 2.8922169053359315 3.96420517171248 6.184295513915578
Ag 6.086837649366315 2.9274782642931694 1.569850331660449
Ag 0.7404406035117509 7.592848595275063 3.788808637414397
Ag 4.2964523724436905 3.8443799820666475 8.611073743447353
Ag 7.095214183257343 2.5552179474126184 4.092988698994641
Ag 3.096723050082162 6.282442600071586 7.712971006294555
Ag 6.628831271261404 2.1978015509150195 8.699730868006974
Ag 4.728582052962516 4.004072008908456 3.8570320838401715
Ag 5.35921825550045 2.647031133092664 6.2858816946639156
Ag 4.177442511671766 5.019938432596086 1.3882050611662864
Ag 3.014495724705827 6.234008600283994 4.611730199383784
Ag 2.7213196015742027 7.2711936964339365 1.909348155310637
Ag 1.9674991643914925 8.460516191104622 6.1640119863603
Ag 7.779222543567874 1.0960433131171017 6.344389803398224
Ag 6.9098785262433005 5.566111262037634 1.3877256340694046
Ag 3.179220338872808 9.22417078098725 3.8007692398104327
Ag 3.0985234989348434 8.978410108664885 8.572928582137802
Ag 3.6405972111778793 5.870071130274266 10.441466855499648
Ag 5.586886803967181 5.536006313369762 6.009748347004388
Ag 6.616517651343855 4.819357795985657 9.727109799166538
Ag 8.6654899821856 2.86349014264079 10.464128628307142
Ag 7.831468361132679 4.007326004525924 6.711791969320067
Ag 4.892790015971358 8.161375759087857 6.277977081208751
Ag 5.335478363384516 6.924762114322865 3.3253280578287003
Ag 8.878024829693587 3.521695868246693 2.1459256206955932
Ag 4.885349120370825 9.004483180682222 1.4792107325222872
Ag 7.608491571343162 8.209373390942318 2.2434295722734148
Ag 5.890563397915658 6.662576828589817 11.910185474113513
Ag 4.0896965687890185 8.67712610050286 11.132098504550433
Ag 4.04777363551375 10.680492743671127 6.247440840914405
Ag 5.4866649218957635 7.406918591850718 9.068951135532256
Ag 9.715575559928663 2.3311860494083185 7.902211200350831
Ag 7.983336722636012 5.366124276752553 4.112320618721843
Ag 9.551044996545416 6.2350064175152315 1.47771971739637
Ag 7.399246052906607 7.893830434507539 5.056610232121634
Ag 8.125387495609218 4.958580260221727 12.185876714351044
Ag 7.6776276901795235 6.772271644888277 7.577729447178105
Ag 9.722782125144104 2.860384081862357 4.993634310894171
Ag 9.52143338201885 4.957159309428377 8.857813595194937
Ag 5.815630501175888 9.979869476043373 3.926567232496655
Ag 8.276320529068332 7.024603709372325 10.34373852935392
Ag 5.522138441973605 10.258258944709166 8.82298883607203
Ag 6.994300723600188 10.395577833274734 6.409803824771755
Ag 8.288505141829438 7.6769135693173745 13.037294406520997
Ag 9.973279595713226 7.717346287230571 3.827601915882087
Ag 6.824996455139108 9.32262057589285 11.17520984525696
Ag 10.805444629612756 5.029970738730207 3.609589787683205
Ag 9.964829114908339 6.043693427221903 6.15457648797751
Ag 8.630338524495567 10.250707553632278 4.016440226374773
Ag 8.239663051418072 9.5398422492979 8.749651362201945
Ag 10.351579762670772 7.65004133118527 8.620184161063865
Ag 9.61012754549689 9.060812278054312 6.347877278608652
Ag 9.750872866674664 9.1896006723793 11.095410235609219
