50
Energy = -109.10804445 eV
Ag 0.9351294175457607 5.268533979392126 5.17534398620166
Ag 2.641234042341434 7.4135913966007285 5.2990814448086905
Ag 4.7808210995666265 7.38344923816924 3.47005510508394
Ag 4.379264440439677 9.712142273866768 5.181565536626393
Ag 1.105036548405434 3.6744769848846683 7.3837437499765874
Ag 2.380965606639636 2.6802254596070116 5.001658328898098
Ag 6.104594724225167 11.953570657549365 5.058277122741103
Ag 3.2734160277825817 5.045348166681786 3.704156561567185
Ag 3.682485608566893 4.689755811417644 6.678277671545975
Ag 4.980006840138689 11.14141597269368 7.599012618996454
Ag 6.572962721382991 9.675123847147976 3.3557248704281606
Ag 2.9880945928182285 1.6720465101626718 7.610951076988791
Ag 1.750698961263967 6.388668206389971 7.782706923355089
Ag 4.492987293830462 2.565942524835373 3.1507960148807777
Ag 3.3068569865351987 8.8718943682951 7.707049024856248
Ag 6.922478448852577 7.371737044465946 1.7112440528743507
Ag 5.301521913135369 7.298696388532012 6.4310537374720385
Ag 7.099454945456007 9.632710468291902 6.23775421031488
Ag 5.650703800974604 4.909759358635204 2.1381767522262205
Ag 2.9640487444464108 4.046429416193352 9.391822941993874
Ag 6.618891875690905 13.398038417208896 7.408954441250113
Ag 9.264359819927304 9.997346637617841 4.41065686838394
Ag 5.097888340404764 2.213772918168596 5.8263875476192535
Ag 8.74332941113132 12.081231514618421 6.1835354246203975
Ag 5.911476829772862 4.943800685808279 4.968301662210228
Ag 9.535139767987902 7.775843601632465 2.7109425228765422
Ag 7.266827252694858 2.8566726712369572 3.914595482635138
Ag 4.2583166531338845 6.533010889603185 9.118341526489013
Ag 7.530727193048709 7.339144578931878 4.565593676420674
Ag 7.716084285151086 11.100467955502264 8.638479802950707
Ag 10.389041234007674 7.610803954076244 5.415690316329556
Ag 8.419699049316819 5.139779582982515 2.5511323731949336
Ag 5.3646243591619225 2.614018231919121 8.648237186746126
Ag 9.851742962496685 9.735859923275486 7.236690822606934
Ag 5.995912964247655 8.822035980170098 8.825746871700275
Ag 5.2756125343817875 4.4648273843179425 10.84969793265779
Ag 6.355531144060812 5.103411852649571 7.772386561985719
Ag 8.13788655774074 7.216656748823591 7.348589613944454
Ag 7.633466752024358 2.8830576352587687 6.8260214185343635
Ag 11.044489129441294 5.549096974678809 3.618128470411886
Ag 8.892453897497322 4.87766942126929 5.280505957710151
Ag 6.945200941174065 6.616985864821422 10.166635809691607
Ag 7.790745257505936 3.6934483327387984 9.746041247350261
Ag 8.799075837039839 8.67901628731454 9.640103066002752
Ag 10.892140652355808 7.312961523563167 8.204238870138925
Ag 9.64652228142266 5.9377325586883485 10.376715900038137
Ag 11.80931291646534 5.401527507743164 6.308802631592497
Ag 9.60482719240864 4.637385610990393 7.909061371317896
Ag 7.71756866093561 4.950189257426336 12.214999936066972
Ag 12.065388362648806 5.005734302776155 9.133379834312171
