51
Energy = -111.21162212 eV
Ag 11.656300085441389 7.638300176575407 3.283657239239647
Ag 11.936830443898762 6.962228245613151 6.061790573739143
Ag 11.693791018415869 9.78884153204489 5.203212821466061
Ag 11.197046589309332 4.223862459458986 6.602146504435276
Ag 10.025748969881674 5.363776735386475 4.358409978726946
Ag 9.462807553157564 2.610595865523446 4.746733964826216
Ag 9.65534181142827 9.869632461177103 2.953606241081032
Ag 10.278231699802657 9.201964999950118 7.640160040478226
Ag 9.05742585735476 7.064621441539452 2.3655943037605773
Ag 9.614955390835457 8.090671532896852 5.069508371780517
Ag 9.619283119803246 6.504822549919254 7.637758662943358
Ag 9.598792549998391 1.8540503660051915 7.388267030042089
Ag 9.845757656951283 4.100914159908334 9.082462679326465
Ag 8.905641922648913 10.79949015831451 5.762904558939566
Ag 6.958118805104586 3.8470065841010457 4.119911016566985
Ag 7.099931489197507 9.479579789180388 4.104270502079287
Ag 7.327814994519553 5.423753923568562 9.129269096117866
Ag 8.300846013478207 4.297192553059021 6.634135742716849
Ag 7.388786550570621 6.529769108857028 4.6518579360815755
Ag 8.154269360698494 8.07655702187119 9.5918034764422
Ag 7.3708044337256835 8.961649450937676 1.3784161120147485
Ag 6.883456881139015 1.9470930113329137 6.2782691934971275
Ag 7.557977736645039 8.381925469952623 6.848425261446777
Ag 6.522743468733285 5.8444015956817355 1.9885830714694126
Ag 7.470307408504992 2.586102092481582 9.05760407724919
Ag 5.775202970655708 5.555722550786549 6.732494802813847
Ag 7.984298320787582 10.690893262871095 8.471801107594457
Ag 4.705324179190303 5.725751407686378 4.175426468865422
Ag 5.002111461280096 8.175431403627996 2.610521869052723
Ag 5.967694719318412 9.727498184156854 10.244946090664262
Ag 4.8779887556728765 2.757621384111845 8.143494573615365
Ag 5.615679769008489 3.7595220879384863 10.801290405840458
Ag 5.678732287572809 10.527079087569529 6.8497773499755645
Ag 4.624023441007544 3.582204864206653 2.5225027034921084
Ag 4.438594465795149 3.184120804013141 5.428356704534742
Ag 5.094785318410188 8.134131228380447 5.449708563396221
Ag 5.8515215285067335 6.9330570509272125 10.952755726913795
Ag 5.133603094121087 7.9690812753618 8.276088389822398
Ag 4.278669039801183 5.437831699014282 9.045192231423249
Ag 3.2427122919188833 6.004168004830545 1.8925752489814662
Ag 2.914103718086767 6.584491934233394 6.731810233226407
Ag 3.5966378592516297 10.315819580367101 8.857572450377013
Ag 2.4072505748788666 3.8791872234805376 7.278991103721849
Ag 2.607802528260342 7.663085973111977 4.12498906865808
Ag 2.8416313936197772 3.25308631871172 10.02287427481507
Ag 2.1643521748536156 4.762208009308357 4.5937814639990435
Ag 2.940056609604295 9.533641393329564 6.288453676392212
Ag 3.436269088711296 5.454056797802481 11.686530998993986
Ag 3.2838441232214763 7.958156994666742 10.43837511065529
Ag 1.4766166828659772 8.403432158964378 8.401655389357092
Ag 1.554177076157423 5.786922747822479 9.302899437717091
