50
Energy = -110.78843494 eV
Ag 15.686661151168362 11.452857373937892 13.171418168772682
Ag 14.27208884725678 11.453118484875958 15.69230564870882
Ag 12.892386429252044 11.453305907377267 13.292076406249718
Ag 12.768159205858291 13.810699696939617 11.617069109319381
Ag 14.027864710256344 16.15276984581519 12.387079659765863
Ag 14.24719674103867 13.85225141099591 14.084157958978881
Ag 15.607835933684438 13.896813722060516 11.509341739919382
Ag 13.844514869293228 15.377084538058112 9.567988467867067
Ag 10.188459366671912 13.825918104244419 10.232108000277819
Ag 8.446562338656824 13.883705242878479 8.077506296769961
Ag 11.272780056166809 15.546372439337995 8.347877146837295
Ag 8.85871287537001 16.199966875893715 9.744894537173721
Ag 11.444844090326766 16.312487542854946 11.097730817028323
Ag 11.695833085584368 15.350779599111982 13.823338809420363
Ag 10.39794431208841 12.92117199308793 13.011194101707233
Ag 9.065141022814647 15.340576773570602 12.459079848035774
Ag 7.289175194009527 13.898359562625755 10.652179192319519
Ag 9.348928605264938 14.346088765955706 15.12523881551061
Ag 9.25830201531548 11.453757347942963 15.209693967115236
Ag 11.832727985271246 9.964391909583158 15.534652598331412
Ag 11.833624311742948 12.942552659262356 15.534613180374286
Ag 7.557569151730134 9.951035035652437 13.360998959424435
Ag 7.558102227663957 12.957024222020697 13.360956884292325
Ag 5.954931727109449 11.454176936876467 11.499885360028172
Ag 8.701893261803797 11.45377763289729 11.178997043206062
Ag 12.767477704699317 9.095674821537603 11.617120688701888
Ag 11.484709369896068 11.453546084330128 10.850009987943954
Ag 13.842845085483086 7.528079492046148 9.568189132780484
Ag 11.271369006884745 7.360507943191406 8.347932245878331
Ag 7.288156932779824 9.009971400498003 10.652174916882036
Ag 8.445864637732605 9.02429782692392 8.077556596038729
Ag 15.462991436736798 13.196443943762393 8.79274599604796
Ag 12.546062195402756 9.935821782802861 8.683381571453499
Ag 14.243159451029161 11.45309702116948 10.654121478899272
Ag 9.994211148777124 11.453546084330128 8.459558207294883
Ag 12.546460153747876 12.97050594670154 8.683257486224054
Ag 8.857103436452292 6.707833860148759 9.744934295502606
Ag 9.063358043131823 7.567076886511734 12.459156815048269
Ag 11.443105654971914 6.594414285365312 11.097911256531164
Ag 7.167838575997804 11.454029439962751 8.828065791595698
Ag 15.606924057231947 9.008582268155523 11.5093871445664
Ag 15.4623469747168 9.709038203249941 8.792913645884456
Ag 14.24121801720666 11.453084267473747 7.0101368875439505
Ag 16.98302823903771 11.452720568423505 10.605997193454407
Ag 10.397431955099439 9.9859825468348 13.011166916946983
Ag 9.347906654014064 8.561680504486525 15.125330760531584
Ag 10.187622337326 9.081352115842272 10.232225252817772
Ag 11.69449782608175 7.556055256971728 13.823424401909742
Ag 14.02627832687657 6.752883794654492 12.387192248691596
Ag 14.24634226328672 9.053572540284755 14.084277363395485
