53
Energy = -117.56747612 eV
Ag 9.820365178819841 3.4448546931010138 4.65733512029892
Ag 11.464958977167086 4.724545704572844 6.6326247066832416
Ag 10.655978919788188 6.28964702872636 4.359050461796188
Ag 10.742050951720083 7.482907874741635 7.018416290607522
Ag 8.010091883220367 2.297280083999361 2.7599946189952713
Ag 7.690000038265425 1.627482643283896 5.499398790036324
Ag 10.020292733129466 5.507477637883584 8.998859862688787
Ag 9.40615127673217 2.9306965822130464 7.489109012831838
Ag 9.75033573616062 9.05195697117427 4.735002548722333
Ag 8.813535464158006 5.4695775100366175 6.4298605394500825
Ag 8.845375141225245 5.004347617501349 2.378470853464121
Ag 9.55727504983962 7.781284678460985 2.1630067717455996
Ag 7.972027020435288 3.6381404137392503 9.876453398565747
Ag 7.0306296453758845 4.216412551238421 4.503676594790541
Ag 5.356144348315286 2.033893473436331 3.7140744005197783
Ag 9.23896549819986 8.244781032701178 9.351801023917092
Ag 6.089891126673975 4.162607822161202 1.8161267184830638
Ag 7.602387754889033 10.764997959405061 5.612242711010275
Ag 5.063442770119168 1.4704262281062646 6.4670722875304625
Ag 6.898651826866673 6.96711137587805 1.5269103266977924
Ag 8.361345119757138 6.1902458807362475 11.279339865797139
Ag 8.026616282900367 8.282860619755443 6.827159002694461
Ag 6.560782409310464 3.6923779318831205 7.425895098046919
Ag 7.323590150567176 1.2169422037705944 8.301222748727765
Ag 7.449641975605 9.562226093429073 3.0493713832755613
Ag 7.846569703570637 7.003027026655609 4.187886060775335
Ag 7.215783783822615 6.237836685981782 8.822018890023616
Ag 5.1556729763515845 11.117402213120497 3.967011004524719
Ag 4.977682904997788 6.251054836003607 3.6746645935269457
Ag 6.144571181968219 6.222092411894419 6.242798073448538
Ag 7.240195853361778 10.336453694540955 8.554143446273946
Ag 5.6689612323922685 5.052693503166734 10.904753391456241
Ag 3.483803802482555 3.979520235030047 2.8743472912228443
Ag 6.748122668361525 8.513510810089945 10.592289264280625
Ag 4.311616088563432 4.192702806580618 5.67215836368604
Ag 4.232878361992835 6.165698358655838 1.0431892960911195
Ag 5.566256536505991 8.731822058412563 5.143304379065974
Ag 5.144208012880575 11.078774719486177 6.879389451948305
Ag 4.788099083576683 8.735145394792116 2.3130769592759424
Ag 2.6516509267160076 2.205177358239406 5.035931894889351
Ag 5.266265980115988 8.243531808806186 7.983354676064833
Ag 3.2566894941489304 2.9326242124903557 8.037636901398365
Ag 4.462306849040848 5.469218057913464 8.352722526778374
Ag 3.4485802101483904 6.929728892412557 6.0426590915360086
Ag 2.8373106938955743 9.099688823280774 4.3399330499574305
Ag 4.220482056898253 7.391122157135855 10.599426440002482
Ag 4.444041901203654 10.175960567740349 9.596891901800337
Ag 1.7030264167297127 5.034975483005222 4.796316517925167
Ag 1.5967873458036892 5.099907208711459 7.5596352425451006
Ag 2.8223309556270797 9.580365636687224 7.069199158360267
Ag 2.6792789831621056 4.928892996157294 10.254479601721659
Ag 2.2522097134688543 7.48801035160546 8.72793510819329
Ag 0.8624864486059285 7.555813780904311 6.122148039107456
