50
Energy = -108.3953976 eV
Ag 10.872361364305482 6.117885180103622 3.62127739748371
Ag 11.208412599176244 6.141126850775988 8.25683419863341
Ag 10.274652605872918 7.415639424091085 5.960648917832949
Ag 12.234589032062313 4.9748508200608095 10.583427461659987
Ag 9.46186669015343 8.766438007817074 3.5354110313434894
Ag 10.666665607878013 4.508389815189926 5.941833413272066
Ag 9.261933618347397 8.236081807679705 8.436744867342066
Ag 11.595644610235535 3.3120154255600047 8.35863694654063
Ag 8.56580110032378 6.473929173343695 2.0880111454305212
Ag 8.364616856711951 9.5491069987728 6.0307164055824645
Ag 8.741935164945689 4.305562806173672 3.9252592842626455
Ag 10.280196165961796 7.046891939501039 10.792090027802374
Ag 7.841274746050221 1.8298357807284549 5.260983301930238
Ag 7.570235182560729 10.965264764362109 3.7031167459243224
Ag 7.653299888729085 6.957486789922752 4.8325396570642765
Ag 8.401939213496616 5.597484421778195 7.293218195026265
Ag 8.197590646595602 8.974037171248085 10.927625711885588
Ag 9.622180579540128 4.464826420493315 9.899132103948409
Ag 7.559033456868379 6.428886190627834 9.988685120279207
Ag 6.771007808635734 8.527298642381885 2.4994549498972574
Ag 7.198284517509234 10.248122540451641 8.597218630429566
Ag 6.560374014265238 7.7882154905630685 7.359141549436747
Ag 6.510525647442821 4.236088132210663 5.5490090286062195
Ag 5.563077138119864 12.976563961277929 4.016917730362986
Ag 8.908852767829615 2.8489015654695375 7.620433601359752
Ag 7.070233054250572 3.6159248170563423 9.79252120191358
Ag 4.884688781618158 10.631168724686539 2.6760120152839373
Ag 5.619646533597438 9.229250463131473 5.065384375054506
Ag 6.322313585187362 2.972204520300575 3.074390212269515
Ag 6.350863434073421 11.663108791455985 6.2933906863730575
Ag 5.960124316395116 5.744434943971824 2.9512859290493747
Ag 5.5227488479224265 8.474258380846097 10.063098398367584
Ag 4.821384031430547 6.519190471877955 5.462420243524851
Ag 4.863369935949982 5.725731335839488 10.608541392531512
Ag 6.179144907541797 2.0734766978167003 7.612749716526787
Ag 5.57687802646445 5.124100114716208 7.984904290554641
Ag 4.475190900061924 10.023218571002902 7.614528861758119
Ag 4.959457286590757 1.6406322612723099 5.145647448680694
Ag 3.8890027169155053 7.347915620602938 8.061107338707728
Ag 4.059175614538304 8.032218898462943 3.0754881063436232
Ag 3.6313472946478718 11.229039851201213 5.185753939923352
Ag 3.886716446049136 4.165297273381124 4.269599465150396
Ag 4.399023284133788 3.0120009568646906 9.621575983549423
Ag 2.033372856269376 6.358040754340805 3.7917342232476
Ag 2.7310408410986495 7.580093005184838 10.52154743760938
Ag 3.618469192500182 3.2866875454365854 6.965756471366286
Ag 2.7367835744700275 8.5464447216411 5.715917750297269
Ag 2.5600150818118834 5.098856736191936 9.072820399855022
Ag 2.264180058613597 5.663324354950063 6.368911880909935
Ag 1.1970420446150412 7.647477654682172 8.066136276910093
