5
Energy = -6.40088803 eV
Ag 6.7356619382086445 6.167843417213909 8.036181659748651
Ag 8.496750363659759 4.244208724042661 8.310998168266403
Ag 6.033466617338381 7.299637025140701 5.610780631196022
Ag 5.000624387290161 8.216914688484366 7.918307890804276
Ag 6.662614507544186 7.044198573958312 3.0778036242609224
