5
Energy = -7.3414277 eV
Ag 8.386138499999921 6.589937500000077 9.632451499999888
Ag 6.662745499999997 8.159448499999971 8.250440499999973
Ag 8.386138499999923 8.159440499999965 7.679169499999905
Ag 9.310648499999907 8.721937499999976 6.654456500000033
Ag 7.629903500000067 8.744809499999926 7.182193499999948
