52
Energy = -113.88259882 eV
Ag 6.951342663738665 8.044304608781307 1.9433875534921337
Ag 5.4281287120046615 10.418445938971583 1.872329796563757
Ag 7.935151577457889 10.34270397128494 3.2025888090724353
Ag 4.162995273140937 8.10204194333796 1.1415217270394296
Ag 8.180470539864821 5.454269990852204 2.4719794971486437
Ag 6.028643952068627 3.572110479166434 3.148571965585993
Ag 8.793301319949938 7.801757198774944 4.092288797368886
Ag 8.785285708319718 2.9433677689087703 3.6455749708216945
Ag 9.62051193965061 5.275043587654452 4.989302934100724
Ag 9.472287861564656 10.08634734713149 5.602615411769829
Ag 8.027770380672095 12.408789024959965 5.0378658301399675
Ag 5.404059845446462 5.71890869829568 1.593140041984343
Ag 5.442878383015996 11.397121922918227 4.435512933068432
Ag 6.263860848640666 6.511095931175361 4.222958626043547
Ag 4.300159570986121 8.701709620797518 3.858560972543839
Ag 10.217222455556383 7.6057059066519175 6.674652319103273
Ag 7.196776928422513 4.057847240942614 5.632845059271829
Ag 6.6517205885387245 9.090348132954466 5.55331479734373
Ag 4.609247619203046 2.961213855264597 5.496596780493718
Ag 3.7507055364244435 5.401724052551436 3.9406027116763007
Ag 9.455976952671682 2.59191935383996 6.386411867660848
Ag 7.6301876588420665 6.701000039514311 6.701323901329968
Ag 9.738946740732606 5.064250235822855 7.812163746145699
Ag 10.879867436120499 9.835073338401513 8.196288367279204
Ag 4.076532546440976 9.922613156474817 6.4172123533609975
Ag 9.135123365182729 11.982555151029729 7.600732856126633
Ag 7.998094421809576 9.297564284510523 8.06984324605325
Ag 4.962377876803021 5.589255588941356 6.533353328298332
Ag 6.662893992239912 1.944216621378098 7.3370863208707
Ag 7.556917499568986 11.438286084190004 9.821013930602914
Ag 2.382272441743948 4.601243875397469 6.332238734437519
Ag 2.9260423093902324 7.391509379588143 5.9034616174581505
Ag 11.436131587114824 2.952755009341424 8.403307982242758
Ag 6.352538795972319 11.563500334261118 7.133119996598112
Ag 2.802373782021063 8.587566895707933 8.487044287239494
Ag 6.7936627188112215 4.611341911950457 8.467936622571624
Ag 10.9803323968134 7.269567326349378 9.4246448508851
Ag 5.610327062338911 7.606562777959681 8.424984598587566
Ag 8.176390226295998 6.808339436576423 9.554303851583782
Ag 4.226018251583043 3.348519767673675 8.264483039774737
Ag 8.818617673700725 2.5970917740396304 9.175395340506745
Ag 10.508678871410094 4.694410740575019 10.434767377296248
Ag 9.444445775059695 9.343965700098233 10.582812333445245
Ag 3.05203665724981 5.88542542939986 8.78666406425234
Ag 6.704065429418046 8.994420692509548 10.84043753560644
Ag 4.915109291481871 4.865994162072339 10.625843140423259
Ag 6.1689150009201 2.377243824427178 10.085637012319353
Ag 4.956049172405369 10.257252826786956 9.10928054642054
Ag 7.816900361937749 4.370691064797701 11.17662092814943
Ag 9.391418886872268 6.830380401820755 11.983102275737359
Ag 4.169137006442187 7.635403514606838 10.805291170243223
Ag 6.525087825822506 6.608036026704362 12.07290468123586
