5
Energy = -6.28594581 eV
Ag 7.1656706965390375 5.056562927056543 5.116555269753104
Ag 8.61353570314091 7.305724276007793 5.389923236582607
Ag 4.556097974619439 5.364689527824102 5.4166907980888555
Ag 9.983334365527623 5.113189659622977 5.041872112862942
Ag 3.417083251569034 5.916659366818464 7.711562512366023
