53
Energy = -115.84925549 eV
Ag 11.91050537795192 5.911927175705496 3.7706630316622873
Ag 12.355336652435733 8.299391141426483 4.966853607624304
Ag 11.87809091350343 6.018982338755182 6.641308625464477
Ag 11.008404767797122 3.562020841452598 4.8977599977336235
Ag 10.162508935882892 6.480500696343653 8.984962387317786
Ag 10.846175200034823 8.693956790934905 7.348273216184952
Ag 10.119831238986075 7.866399572667893 2.7178707780553433
Ag 9.458567903711627 4.662600574148982 6.8440359313785155
Ag 9.624431085190384 7.195908765312095 5.346672220559569
Ag 9.33130822641551 5.136545145841955 3.200836467871907
Ag 10.277770693723971 10.038145191485482 4.728045996892859
Ag 8.216638165183033 2.252943724299767 7.648418566256415
Ag 6.261123310333443 1.502513809784095 3.3070390068215403
Ag 8.019747003495594 4.573454859062033 9.36234199014076
Ag 8.220286627006 3.0089169165220677 4.73623894076186
Ag 7.810960440146358 6.903243461292898 7.554646047416272
Ag 8.768767633036465 9.028131831121483 9.276541220292438
Ag 7.953308689187464 6.890494879935152 10.926508079212844
Ag 7.054719928308942 4.032351033441871 2.1100030974343866
Ag 5.921359242724847 1.7165004354403017 6.133975798143844
Ag 8.284357552502387 9.78638887012444 6.6193779278083715
Ag 7.799888834809855 9.061215612922398 3.975858428783453
Ag 5.71228152181221 2.936608290128186 8.933639055605406
Ag 7.4258146543510115 6.926975637156705 2.117744627999646
Ag 6.673402667898582 4.3906173352296065 6.761084258378129
Ag 6.974119128832508 6.325189414651062 4.782449042608082
Ag 6.894389133903516 9.86036859832666 11.216664372463265
Ag 5.607182834927084 5.22352092468702 10.718520666067638
Ag 3.523347291162378 1.8510744306684261 4.472749891088592
Ag 4.380752661382451 3.079638217438343 1.8752014349176285
Ag 5.935219533349495 7.996878019816755 9.362540953111653
Ag 5.3837529930437915 3.9225637176473143 4.368570418452979
Ag 6.490815123991281 10.67607351483257 8.53083262570183
Ag 5.254038326716946 7.774741954461843 12.028311728877254
Ag 4.7562625414911315 5.918553059488161 8.055050866146713
Ag 3.822592857925341 3.5489502305574514 6.807131793807305
Ag 5.169239243910844 8.34747492477984 3.6208611209836916
Ag 5.651394393377214 8.361212826675283 6.566212908944777
Ag 5.900017202025474 10.808746802191878 5.428297358885644
Ag 3.191493934269562 4.126162310412161 9.545663351502292
Ag 4.789893748010889 5.8899417581039355 2.4437495163582117
Ag 1.325774343972654 3.139570175717231 5.772362499324682
Ag 2.624607350450679 4.447718434610955 3.600820355834159
Ag 3.23623386243026 6.829638456053034 10.328026410314164
Ag 4.059740390767901 6.26676158115691 5.389066173456475
Ag 4.162591819677163 9.894571009792255 10.22235270346925
Ag 3.1209472009366617 8.324928286035462 7.996970405821963
Ag 3.944668157491623 10.923081427277282 7.569058182987689
Ag 1.9230418889260852 5.709483131030117 7.557867772584233
Ag 3.3067987514193824 9.480228981658675 5.287709204341221
Ag 2.407590558694016 7.393418279963133 3.5159137950349084
Ag 0.6683207722650727 5.722393751922865 5.028762405652149
Ag 1.0869230286437916 8.128833565282577 6.182966170898329
