51
Energy = -111.58793556 eV
Ag 11.509070607123741 3.9542345617083767 4.770577748982615
Ag 9.658915148377632 1.9812174273026817 5.500643381508592
Ag 10.602326280179032 6.438622023947756 3.5432815305992436
Ag 11.483314906415558 6.196410335389752 6.376037925593748
Ag 7.090972732140516 1.899886209026515 4.375770004247979
Ag 11.02147848053008 8.669541050912596 5.225237623979932
Ag 8.759221445750242 1.7517689909356786 8.140542928498554
Ag 8.861976491127363 4.19204575998389 3.9353187719476006
Ag 10.552989315986798 3.8002159211393995 7.434230653494225
Ag 4.600159475985376 1.9700673743937227 2.9746714520563544
Ag 7.815811671237754 6.5477785550332355 2.8300968677402247
Ag 8.711116975649887 6.654315776127974 5.5894400867742045
Ag 6.1671360699902955 1.4592767239959106 7.141369415906844
Ag 10.990214177109001 5.926597605482467 9.216681388634791
Ag 6.222458043490432 4.216991829687577 2.9156897873733505
Ag 9.087550843590106 9.013758300950858 3.255939630281388
Ag 9.453655160872847 3.706473571140275 10.035136786960251
Ag 9.88271472470279 8.09382983171452 7.744337182554511
Ag 8.60060800796255 9.920424150500612 5.914191087224664
Ag 7.583350326964903 3.867997782668053 6.458166614913012
Ag 6.723406165181501 3.375294076158609 9.222674769887284
Ag 5.996682413569662 5.942516216205849 5.127079743749584
Ag 8.304525029891295 5.762212436359857 8.417962770219024
Ag 3.475884226416617 4.60261407404303 3.3812396206240103
Ag 4.979128308423426 6.908166663335379 2.697534333533386
Ag 6.602862837703298 8.558210735455821 4.430687653209466
Ag 7.416392711473215 5.2583969077353805 11.22561563295642
Ag 4.880251195379911 3.2513445348507184 5.419116251323876
Ag 8.94160676940844 7.685507819273958 10.424128614477247
Ag 6.842465599924367 8.019794054884088 7.2507607129840785
Ag 8.19562766645134 9.99982216061677 8.821051967661692
Ag 6.625949672186057 11.25747087628435 4.242481644910613
Ag 4.158916343258512 9.511219140991694 3.495374549037138
Ag 2.4668140290840044 7.157323674611901 4.023258746410637
Ag 3.225247794018244 5.391536318879245 6.104245048340239
Ag 4.086007368389958 3.1988037860434235 8.09255118672397
Ag 7.057267393531166 9.692069100863282 11.317813305040374
Ag 5.507824850858759 5.591093777396836 7.785183238637042
Ag 6.627421752543526 11.536087516902688 7.026914192350097
Ag 4.264115937395878 8.189115032327171 6.119933724340004
Ag 4.635011612953273 5.056722489223902 10.34783271736416
Ag 6.1902315703105195 7.406408975554903 10.023248388227323
Ag 6.623691194810338 12.120283701636097 9.809556884120854
Ag 5.24279780139909 9.84267641007871 9.031208930893447
Ag 4.197230247467842 11.22130759106636 5.684709446583332
Ag 1.9088111656597095 9.632299441699368 5.1746645141130525
Ag 1.5669105617527523 7.486732425242838 6.993613697072545
Ag 2.242224581189019 5.217771300060014 8.682737315173998
Ag 4.250082751314775 12.342634589092198 8.251674291694346
Ag 3.6710470529624155 7.555755803730248 8.86945398152367
Ag 2.69664655400111 10.011389300614912 7.82090928459347
