51
Energy = -111.2692509 eV
Ag 9.653404717235999 2.1057527877130005 8.210513977872095
Ag 9.445636433650437 2.672519333782698 5.380580298346207
Ag 8.69568720482066 3.670224802749151 2.8685138603651272
Ag 6.754097409875517 2.2450809680429873 4.350320292493143
Ag 7.601777217180667 0.915817507557701 6.684993937583406
Ag 5.821727068830818 4.134786992956022 2.4115940369105164
Ag 3.869661082331979 3.008422777030706 4.205267109510601
Ag 5.161915808097223 2.2830976923818866 6.725759729212962
Ag 7.700979034440783 5.444992606761299 0.8120323962900621
Ag 3.0185735878730076 4.114949487424898 6.837255892313138
Ag 10.061457176437106 6.126761208127878 2.223013680581112
Ag 3.738122020637311 5.822711196888654 3.3966536420033595
Ag 9.065824421874419 4.042786051804033 10.147517988382251
Ag 10.150865626813923 4.845540570914258 7.665107387325417
Ag 9.940806279192392 5.467670295656515 4.915777014014464
Ag 7.699810109572314 6.324817841623381 6.233581203415437
Ag 6.86885725741203 2.0462638673636433 9.245593861361456
Ag 1.533905082562647 4.642540543730465 4.581677398450841
Ag 7.594282164213682 3.7324510825956487 7.210467560154416
Ag 5.693927470166699 4.741860197879208 5.193845435811498
Ag 4.235774671648008 3.2502613618385485 9.173014687593799
Ag 5.560529168548937 7.146382799849865 1.7739164049571954
Ag 5.439221229918693 5.457448861238931 7.857288050502436
Ag 8.301004461339028 8.196544588572415 1.622493316322838
Ag 7.519580526309938 6.239137937381653 3.4797533541348393
Ag 2.8292790414004534 6.783422375989769 5.905210445800668
Ag 6.29637851685871 4.502711420654899 10.50514206327291
Ag 7.9123173851572846 6.321526139411673 8.916368859648149
Ag 6.465947486448505 9.477981609835554 3.168590424546622
Ag 10.04802893049916 7.602790279155999 7.104096973703896
Ag 5.480491539912695 7.649211328675853 5.2050505620245335
Ag 10.417703577446956 6.858666585849547 9.87264564041594
Ag 4.5090556929175865 8.15470423465468 7.896111482810188
Ag 1.6742566629840014 8.17670369207351 8.015284364747448
Ag 3.0690468541221243 5.965346334198626 9.171413896068422
Ag 8.145024886612815 6.386692196663183 11.652719019462975
Ag 3.7026241877469754 8.703851581386447 3.373229085281393
Ag 8.747827190463088 8.48392628043709 4.630199615076208
Ag 5.680200281544132 7.239018975927887 10.402784071492626
Ag 7.254002590372254 8.852447716186242 7.314272084631205
Ag 3.1113423078492564 9.64435717851687 5.9580059384603095
Ag 8.128163189056933 8.854277465591899 10.273029051486413
Ag 4.770680144054558 11.22380898645206 4.438982566564315
Ag 9.87111250519362 10.327180662042686 6.458774936919301
Ag 10.480308825635653 9.577888888296766 9.055350919635627
Ag 3.088824707358077 10.639726751005584 8.564891588003128
Ag 5.398328684987124 11.164687775442605 7.135048816354453
Ag 3.2234274120633923 8.555720642566975 10.411965414246326
Ag 5.66950302063739 10.017353608676455 9.684425464336057
Ag 7.457805062882141 11.002477080962663 5.340381834694823
Ag 8.013926457637911 11.17636628541145 8.482273146918095
