51
Energy = -111.57739357 eV
Ag 8.993987727691946 6.140755254116325 10.837042481143603
Ag 4.617416239207687 2.326387473389899 10.798945304032761
Ag 6.969689676425041 4.284521859730188 12.073000197193798
Ag 4.249072386199303 4.894103365706522 11.759737212517921
Ag 7.919050124076399 8.731476336433737 9.951665439223044
Ag 3.982976802486388 2.0567119960695432 8.063745787844855
Ag 10.305301102592338 5.039480520270611 8.40064684705695
Ag 6.1275626258445355 6.821112460748625 10.979656962412735
Ag 8.653927043497045 3.401739845804512 9.976862965382471
Ag 10.317597104916818 7.850902748802978 8.812999211353048
Ag 6.875610034608136 11.265587891855075 9.316003253340586
Ag 3.1610143547609297 7.03891707208519 10.357287623693757
Ag 4.976266372566182 9.157167045128244 9.746506685938474
Ag 6.014051543447841 4.320273984881505 9.491915066219997
Ag 6.613408220411021 1.625081214423025 8.910348197107293
Ag 3.055915683161422 4.401590513089683 9.24461200013727
Ag 7.800719863216079 6.312310928805415 8.359599799883139
Ag 11.529047748407184 6.789996732578882 6.425493691614022
Ag 6.549118036352026 9.119519033818975 7.415273411487031
Ag 9.34255237848783 5.2043502930015215 5.755384996444599
Ag 5.9147376635583315 1.8415435099932231 5.99816646935237
Ag 4.961384157447051 6.718109797667128 8.295218068968584
Ag 9.1002880830643 10.420163399166427 7.919812765682107
Ag 7.859270454961818 3.551090354947546 7.315452013074316
Ag 3.8225115504462743 8.786825513422086 6.743828965193074
Ag 5.136208057537048 4.340797767969397 6.810790614699039
Ag 11.187006288180903 5.79313478448174 3.769223482356786
Ag 11.379866651986795 9.591296621264569 6.637723815478004
Ag 8.957147236884637 8.099819788211176 6.2998290347628165
Ag 4.587648178937179 11.293068399471197 7.788507059095422
Ag 2.131642784647258 6.561749604156237 7.7303379322331
Ag 2.423450222895034 3.86367652703445 6.4907983175099595
Ag 6.591691674268922 9.022709819491443 4.436357040061858
Ag 7.082718713187459 11.826883327006783 6.443535242735022
Ag 8.370965782516627 6.93896325692726 3.7868596161703767
Ag 6.492688089488762 6.654006271790001 5.927979413731261
Ag 1.4966428614439868 8.053023573029156 5.410760648841024
Ag 7.086236447796711 4.077909944123664 4.580258207505089
Ag 9.258547092226877 10.699191276016588 5.046780861860899
Ag 10.104733895930774 7.207114653595321 1.610090965393727
Ag 10.822388479002 8.535846429037376 4.0798060387188055
Ag 3.581040508339662 6.225437137867686 5.352502273447643
Ag 4.740861893517657 11.015816383724912 5.041351403907295
Ag 5.512355541993176 6.394359515056449 3.3215687635235014
Ag 3.8541327233881377 8.627283663416998 3.918937332665349
Ag 8.596097539563711 9.460308659717429 2.485931395742592
Ag 4.34472933970274 3.7743219974648436 4.148276584302533
Ag 7.075184449479047 11.618928203946869 3.5754804651541137
Ag 7.389436241554923 6.651794060681479 1.211460919980976
Ag 6.1564978540529935 4.098775309550175 1.9415731179028068
Ag 8.946709804712766 4.582751282892833 2.5000625248127344
