55
Energy = -121.75689863 eV
Ag 3.5663466527429977 5.56353444494037 10.34578370191924
Ag 9.968756283858 8.06566502835075 6.272541551188241
Ag 8.898299143028591 4.001556356163806 9.943341416290668
Ag 5.656918283657726 6.234207203983074 4.229524663660851
Ag 10.042991149361088 8.36064140841027 9.147931781600786
Ag 8.675784817157854 9.032768078343945 2.1595383936166734
Ag 5.238384774255682 5.877638554129807 8.0660590377367
Ag 3.2570983971011285 6.148268409654206 5.858685873795229
Ag 7.551531954878103 8.82662170889197 4.794656784085172
Ag 8.291311724404677 6.0236976454665125 11.89223100198176
Ag 5.621140088849404 6.934005478032868 11.664364340512329
Ag 7.579777644871567 9.026024241197364 7.686472458504876
Ag 4.959654207333481 10.4634658883528 4.652759909610936
Ag 2.7995455524092723 9.494585386949256 6.365588606588261
Ag 7.668521336455703 9.137259642519421 10.644164182379168
Ag 5.027152768162057 10.994009491739291 7.422746048735235
Ag 8.349528385883774 6.492861857814656 3.4002569781939758
Ag 12.769591084897364 7.016485676377827 5.127387559056756
Ag 10.391495542575418 5.395800828152304 4.9538809784744595
Ag 7.602194118316474 6.403700366327443 6.350260543927318
Ag 12.568767579086852 7.666488731160127 7.7952100243591715
Ag 10.043111474264233 5.783902373097624 7.953908197178386
Ag 7.658796332640536 6.646025663562421 9.235942980431718
Ag 3.5337505511844887 8.134066999622421 3.99091992479867
Ag 10.859160838516921 5.895245339490033 10.762782021331002
Ag 7.25269964503504 11.18738047433258 3.220068603973852
Ag 3.1293777236074263 8.213265480542677 11.122843442821784
Ag 9.768803990777426 10.513017459636723 4.483956984751081
Ag 7.407672440500682 11.37879386454093 6.022008215688311
Ag 5.325592982262463 9.657821880642086 12.163023864908455
Ag 9.828771975865067 10.842983379328974 7.336963991084918
Ag 7.52958511906303 11.60457836777013 8.840645519128712
Ag 7.512052551259888 8.299804197326237 13.325664460314796
Ag 5.1818699237615435 4.0628070350101035 5.916629038176038
Ag 12.454713061513274 4.8491546597041655 6.861272494947819
Ag 12.483680992809747 8.18298494233297 10.585583244872092
Ag 6.1877266547815 4.471623096196071 10.369147752199178
Ag 13.334001216075666 5.667288337906486 9.501151672437068
Ag 10.034891378772032 8.37773690131206 12.016392732051168
Ag 5.9052637628529645 8.598641628959342 2.585928101749789
Ag 12.11979315241702 9.7441424158934 5.859017657494335
Ag 2.8586021868728597 10.156796331796546 9.097644929848121
Ag 5.20966382221438 8.145123641626816 6.377309452194002
Ag 3.050678649426221 4.258659226727364 7.9085724435741245
Ag 5.070342186269646 11.497790655638203 10.141314378722935
Ag 5.221528262362402 8.597210028095548 9.284624792170826
Ag 2.730889301254223 7.383984776058318 8.348102554033405
Ag 7.44244735849792 11.673450780790176 11.66596641775774
Ag 9.874829399849919 3.2894691314954287 6.830870279957113
Ag 7.856057808990449 4.080025547641857 4.892499235596155
Ag 9.897837610307398 10.890087753288123 10.330532964761721
Ag 11.510220817616691 3.6093114787173857 9.140209360420112
Ag 7.2651655946554765 3.8430588647619013 7.73628696715331
Ag 12.169933707423574 10.267785787329057 8.71898401763632
Ag 10.765350382106664 7.996349416966 3.5594998147146315
