50
Energy = -108.83777693 eV
Ag 10.293605176252457 4.436639255232289 7.006017376637083
Ag 8.524760723260579 6.810046213811567 5.71008205012352
Ag 8.480772129558604 6.229983015739889 11.410440829076983
Ag 2.148402025058873 7.745552682129694 5.42402418184903
Ag 9.948907384953742 8.366707251236686 10.230538755545382
Ag 9.948352994645193 4.329649757167482 9.83895378401511
Ag 7.046057849530663 8.652314477104166 7.371547741063286
Ag 7.119322753409022 4.293533680741812 9.862906774768753
Ag 5.740340693049126 10.568449399957748 9.184415839159735
Ag 11.451373426056751 6.707240175002224 5.8320740005071405
Ag 3.3645320195032693 5.593071281555372 9.886450189953337
Ag 4.7880067427697135 3.651459558115271 8.31298167568538
Ag 4.1866245634619865 8.741123214203554 7.234867046563061
Ag 7.143623310546957 7.963459543782833 3.444045551886153
Ag 3.296995665322783 5.684012490062509 4.007566715191933
Ag 7.093891077991512 4.81504918680831 4.010136783934965
Ag 4.207071687205895 8.258377950038042 3.371410980062825
Ag 8.54230515240747 6.490575875785713 8.59061172360455
Ag 10.063323956964817 7.75509425463178 3.560028209799574
Ag 5.455856697440884 6.191900819340594 2.050457339927015
Ag 5.569632355078228 6.787775869332639 5.548752276834247
Ag 4.283270202445948 8.31179795130906 10.228220068900896
Ag 1.9755171211923672 7.6554942356446025 8.497389952509911
Ag 8.80780494908428 2.6613883415151145 5.415457944719439
Ag 10.059780647581533 8.679028655747267 7.418489009368192
Ag 11.372019889940063 6.472378007212963 8.613645190411136
Ag 8.564942747038458 10.502252083548964 9.145032164987674
Ag 3.3148370469339747 5.692463490860909 6.960132443473631
Ag 10.013123778074084 11.396965815742176 6.924846308961766
Ag 2.9424574211235033 10.547202021430062 9.29451235422631
Ag 8.645210986450047 9.70353936918388 5.137882115107968
Ag 1.5777709270201847 9.9567546095842 6.995606733748661
Ag 7.108698643971539 8.507280010711554 10.513398155029039
Ag 3.0415869826015407 10.387042698974714 4.701553456040279
Ag 8.518823985778502 5.990165280779773 1.9489786668709856
Ag 5.687615287563284 6.2599929161034975 11.419758516119135
Ag 7.174758115854925 11.514658321877121 6.9220286273241785
Ag 8.696701499255166 2.456207836255848 8.230645866038657
Ag 4.781826947819693 3.7896093612824178 5.462139256016184
Ag 10.10696812951002 4.931843523216325 4.206562212386072
Ag 5.791965311465615 9.849474598138015 5.064074338908291
Ag 4.326875843130769 11.531209389275128 6.934951320462819
Ag 5.647436049154782 6.463949457376506 8.494326167741947
Ag 7.162752710261272 4.617601600997429 6.867808048704366
Ag 8.996975021255185 2.93725921621302 2.6358342105350983
Ag 4.457811874336701 3.5619607396622444 2.664386821935646
Ag 6.515059357204316 2.067216889592077 3.8756312942878752
Ag 6.355480126518072 1.6598282239336524 9.541717998391764
Ag 6.422757036544752 1.8154883987725852 6.7073728172441145
Ag 6.818386039919745 3.8996504357057806 1.2839585244809577
