52
Energy = -113.76103335 eV
Ag 3.0670930229204885 6.608965131768664 11.027241806562579
Ag 1.9026733105743756 5.895576365315634 6.585588585780782
Ag 3.176083220421864 7.461850316872736 4.707149543746422
Ag 1.555039458860229 5.203341870202396 9.257374984757714
Ag 2.442229794131629 4.919909221033116 3.7521265253703784
Ag 2.871136938881253 8.309758345489351 7.812186246687128
Ag 4.868229867721673 8.43703212185865 10.005139143620429
Ag 4.850727170534777 10.378948192095955 8.029751575017526
Ag 4.343962855796016 6.580124714728548 2.327681165619759
Ag 3.7735497201911143 10.018131944468125 5.5040090232591306
Ag 4.415002132071225 12.563815520364543 6.326839348661764
Ag 5.717009343373076 5.946300601157771 11.1102656315385
Ag 2.584360386055312 3.335201269845283 7.5116513254098685
Ag 4.226777610878699 5.913679685818017 8.496345817476294
Ag 4.431348851711472 5.0329493399906085 5.677802548196515
Ag 4.023198653214882 3.7521726874860386 10.113768289660507
Ag 4.906611951985696 3.904294217920238 2.8605468980041593
Ag 5.292471167210289 7.741116673330136 6.62640429047377
Ag 6.8696314771394205 10.442675060689924 9.952702019896464
Ag 6.74286242893674 12.39490904210446 7.897394251951462
Ag 5.688783601679691 8.59719577391117 3.941764644815363
Ag 6.782920686915989 5.3178501056615755 7.180421568505639
Ag 7.247384479148826 8.243047429881171 11.636764630033626
Ag 6.5111708577207 10.922827952460455 5.427796123022864
Ag 3.6821483315266184 2.4908235132838374 5.0392655064991745
Ag 5.273154652374383 2.9110824290736512 7.565082654933637
Ag 6.869146687141058 3.944234935103608 9.616730212919592
Ag 7.342151131093513 7.565856813275865 8.815927733924688
Ag 6.912631777837505 5.742311048622298 1.425904186537075
Ag 7.954978162075478 7.610292351492159 5.944981765752035
Ag 8.507220003065264 5.777135888197605 11.022399106263146
Ag 6.1317814974647495 8.44078035204848 1.2077093668070014
Ag 6.482868742422683 2.899858942541373 5.01060342728762
Ag 7.34672155623012 10.498396613044216 2.7549264040807344
Ag 6.776099609054921 5.735452230731416 4.187691464657627
Ag 8.124339402010564 2.7004318429165046 7.237914806920732
Ag 9.40488106869351 9.225830646515693 9.934521255075829
Ag 9.133533072118007 4.940196633168392 5.698841424337656
Ag 7.603496389017287 3.2737426357695414 2.518240244532703
Ag 10.031083762603588 7.746555887924126 12.171486267138626
Ag 8.213592504516557 10.089545013832725 7.5361125941912395
Ag 8.318303534607278 7.861530551717981 2.892977153964111
Ag 9.389184893381676 4.794506631861592 8.584307569344276
Ag 10.925058000320758 6.815205295154573 9.697838749277913
Ag 10.28129895455151 8.26659138523917 7.359971540321968
Ag 9.442618928501355 5.287890669625887 2.8313566212414845
Ag 10.914613874012401 3.0258717851787704 6.847401795879544
Ag 9.10199959842302 9.82433712889298 4.868399258043766
Ag 9.323773353517737 2.4323929249663436 4.547888756761009
Ag 10.512885635170015 7.217516198421255 4.715182604142318
Ag 11.547763968911312 5.807014292914372 7.089091816119985
Ag 11.576684488539353 4.549934974038013 4.486774698354852
