51
Energy = -110.91753467 eV
Ag 9.91733630870707 3.6119485106516414 4.509496504491457
Ag 12.576046442948941 3.030253417272712 5.3064295635485985
Ag 8.682665714986511 8.270232420511965 2.819019923433273
Ag 8.525046055612277 5.305274752306892 2.641039759551094
Ag 12.053956101577224 5.589842937752842 4.4147263420983345
Ag 6.443199357960037 4.07238616866613 1.1607913918307458
Ag 11.444856184581553 8.203374068231236 3.693420471402904
Ag 6.395247196139094 6.884137557286838 1.6560311468819917
Ag 7.420476551502478 2.846480354015756 3.524218896979993
Ag 10.623058343959048 2.0437153978226394 6.948076384503963
Ag 9.527341970104892 6.561916997977278 4.893683171043631
Ag 5.924120985176946 9.460242804059972 2.7841632452271123
Ag 10.970918677812227 4.782213749439514 6.897853060025004
Ag 4.512114919710504 2.699182276393025 2.8867280477646147
Ag 6.6744049225526805 7.435610732295109 4.551635284162545
Ag 11.452425923133646 7.529193775624125 6.6323653874206725
Ag 3.811758016104054 5.191163595487953 1.6418962735027136
Ag 5.654940096052495 5.038684958858518 3.7115890016413093
Ag 7.975358602388202 2.2385410722493315 6.23422579059306
Ag 9.692153987033251 9.405021055982365 5.467341862316534
Ag 4.095302492282136 7.396347474307856 3.326154047095595
Ag 5.343359093735457 2.977596871815617 5.592780175158711
Ag 7.507599137413233 4.967144203675654 5.870705317309543
Ag 7.071656375650186 10.137253565488777 5.210196434326895
Ag 7.8707148492674275 7.732526543331113 6.960229629964526
Ag 3.0135527526609565 4.653182505319902 4.575172931586668
Ag 6.209064982697841 3.0002806039610146 8.343738707511424
Ag 4.436997229847528 6.51106742606384 6.091320334586069
Ag 8.90496503831548 3.685365865780377 8.527813156823688
Ag 6.148209277942446 5.80507675926444 8.22545775526752
Ag 9.814730016527422 9.18799607715771 8.28975182014959
Ag 7.242574942412121 10.434470151231324 7.982546730604244
Ag 9.601031499722238 6.365299786811931 8.726347817791329
Ag 3.6646867745678664 3.9574945042661565 7.5165820752611685
Ag 1.9030778587464627 7.4249448832975995 4.940700535581548
Ag 4.254762231385976 9.3896725626848 5.439914101710999
Ag 5.344359769918685 11.889835195260286 6.3561937307776635
Ag 5.221948436902044 8.453610768472487 8.05325514566005
Ag 4.679711663226651 4.372332167241985 10.330145701589249
Ag 1.4592274784930142 5.680955224198004 7.008080565641497
Ag 3.456455915641285 6.414202515504546 8.847419756066953
Ag 7.5219829464958625 5.197876729421432 10.462191107218091
Ag 7.628027165476143 8.085917089175634 9.752665365226173
Ag 2.2575308686828492 8.547829553931837 7.401777836265544
Ag 5.312010693212028 7.124952202765209 10.921749876581705
Ag 5.57928897753482 9.98526443377421 10.368618920272606
Ag 3.7331543729708425 10.7720856721224 8.23748185897102
Ag 1.7949145535194055 4.336511803341657 9.608263914484882
Ag 3.023158638048773 8.851332056931025 10.20905940574846
Ag 2.6936607608705407 6.3048896247459005 11.523413149742115
Ag 0.8462924002432018 7.078284007960988 9.418985200675246
