50
Energy = -110.45989589 eV
Ag 10.486008201891945 2.4943543709509184 5.21679445193915
Ag 7.832891178501371 1.6026897222012901 6.051571915600652
Ag 9.579190473428106 3.055118711207276 7.873578787447172
Ag 11.161232063841128 5.04597340035754 6.387176709198379
Ag 8.271661335074253 2.580642050019402 3.4118914263532654
Ag 10.169781148171364 5.663747067445476 8.999295870885861
Ag 10.42908745030536 4.8725469745449645 3.6319313669777156
Ag 6.911668978341149 2.248634298362059 8.673922609746933
Ag 8.47647117702031 4.3783422268876375 5.513312133694301
Ag 5.081796066639991 0.9216546456698241 6.870853456850182
Ag 7.584772828442906 4.939358232449064 8.242215351375533
Ag 11.589173499468677 7.674400824108258 7.501065013457363
Ag 10.899949383534604 7.49946186564882 4.666030593763586
Ag 9.04366632885626 6.976667509639758 6.6824333390458595
Ag 6.215460649800101 4.601534122587573 3.639007312432487
Ag 3.973379675151451 2.931538150862394 8.57412777528477
Ag 5.601984508154891 1.8748787025144515 4.145109571515923
Ag 5.782798385449186 4.386440031952392 10.310041280571063
Ag 5.773804148612282 3.5551218778202065 6.406704350495808
Ag 9.371797393773624 8.595638890494904 9.059171333174572
Ag 8.24861677650858 6.7922889458231985 3.753353525562385
Ag 7.838990635075034 6.476941718061694 10.566339926741062
Ag 6.4652995321648525 6.226720359974562 5.927206770846506
Ag 9.841283639169793 9.705134492041273 6.429394015214243
Ag 3.062953342363575 2.7284213600873963 5.885347696846129
Ag 4.7026388531613454 5.662025647300908 8.05333011779627
Ag 9.16355516165633 9.553520230793941 3.7157241576318247
Ag 7.034376733288914 9.258338019510056 10.554586854301155
Ag 6.731286935249293 7.761764961837626 8.261884653778353
Ag 4.965989584641025 7.225746931836756 10.512357866003923
Ag 5.3513936980220445 7.434015296561612 3.659510553633314
Ag 3.0117326309135435 5.091003617020509 10.166780916696178
Ag 3.5389659489477707 3.5506173690809155 3.2513596943764123
Ag 7.443328316411234 10.457209427746282 7.993801093861499
Ag 7.10512739152988 8.856355109479567 1.991126972998484
Ag 3.8696581363777454 5.485411583238446 5.250333100694601
Ag 2.05097206688343 4.88009804043902 7.462620673964361
Ag 7.125603245305893 8.906712821944188 5.5492073942636555
Ag 1.3132960136031222 4.769509719306906 4.6483379322372125
Ag 7.827867571540536 11.541966926710044 5.354632745907139
Ag 4.67342455991447 9.644531880771375 8.949063726370161
Ag 2.638188089152342 7.526985942963357 8.71618140266546
Ag 4.453774683692628 8.073853413218064 6.514388863346785
Ag 4.113692946944734 9.022530510015999 1.8273881649358383
Ag 2.535432775518912 7.009361527375851 3.2260602388237287
Ag 5.725709917287379 10.539524839408827 3.651799009235606
Ag 1.7496016075585288 7.342748540192449 5.933752039609823
Ag 5.093833431514274 10.818102227739574 6.3461731745905965
Ag 2.449364925608267 9.883345076434127 7.143700809414984
Ag 3.200911172148414 9.473299030132877 4.438252632816689
