53
Energy = -116.27603716 eV
Ag 5.770036623402037 2.980147115824309 2.180233166286764
Ag 7.856781556835346 4.733938057649054 2.9477285285277812
Ag 10.137702806938846 6.4343770703028245 3.3910855304034038
Ag 7.443166750635636 7.482870396568306 3.1902509718013707
Ag 9.292778868495368 4.548060914866929 5.381512695544041
Ag 7.773255166736688 2.2660776641367852 4.239428988227308
Ag 5.2150989078069125 5.681552663704907 2.8717161739084194
Ag 4.746581327602719 8.432724575955858 3.180339294310594
Ag 3.066701301645889 3.9144595711819736 3.115507430425154
Ag 11.660795763465446 8.447906924983682 4.665562510379443
Ag 9.477348454367853 1.9796210619859094 6.513835715117858
Ag 2.598029365319047 6.707895415631763 2.8964447773398683
Ag 9.321903427374039 9.55665709199739 3.7443797664950336
Ag 5.215069858940341 3.3528665605257983 4.789625885241866
Ag 11.493516556207874 6.14464635350837 6.18662242870609
Ag 6.645032875860733 5.80517678759492 5.492843192780124
Ag 1.4552700910032832 5.372957477804386 5.03064737395632
Ag 6.766810703693033 10.29642705402363 3.0899354379751993
Ag 6.297290686728838 8.615051385535146 5.5992445037736776
Ag 10.622759496432765 4.148337223010096 7.9378472804511
Ag 7.10075021144058 3.3081990131942347 6.845133207708892
Ag 12.383030000708297 8.607474971675567 7.33505523524937
Ag 2.6168319167927785 2.9721968159339873 5.729998376264081
Ag 2.5086142198328347 9.001561545634274 4.709158333679191
Ag 3.969911172440391 6.68128304718912 5.533357863664251
Ag 9.005468859565289 7.515338780151029 5.670697261694999
Ag 4.716798663512954 10.800729237164985 5.0115004328098
Ag 4.585959507110694 4.422241028626225 7.31379698031308
Ag 8.39751673736094 5.885074641531377 7.849138671279307
Ag 1.507074630791446 7.492669970627612 6.840666036706088
Ag 2.8861051161971223 2.3787588413342102 8.4009839109339
Ag 7.710530762196473 11.074951487171424 5.608002824299569
Ag 11.122045158470787 6.7447813364838 8.934146046729644
Ag 8.44524171663822 2.7733334920544066 9.147105383287082
Ag 1.8196253187397153 4.909524396819562 7.819729399029321
Ag 5.747438655548803 6.97621971107696 7.9522185920360675
Ag 3.881003158968927 9.100184475135439 7.210026952727337
Ag 9.389126826628509 5.142431451039403 10.418573819715451
Ag 10.193040121502232 10.144251950131657 6.450103814801699
Ag 5.600583518812525 2.2548160379344004 8.997152585006592
Ag 3.142574819553175 7.093574000812958 9.06609935680829
Ag 6.507380330400008 4.7523657382995825 9.688290069246321
Ag 10.502811297186383 9.543213188887641 9.166001569085989
Ag 7.912497487354324 8.862343985512673 7.913262764324862
Ag 3.7046201542458026 4.488806797021061 10.019926629075968
Ag 10.033521883516546 7.807547263146236 11.288029762693379
Ag 5.806161956063953 11.075186835009733 7.6212592191964985
Ag 4.953725668920034 6.733308389127569 11.120584880807444
Ag 5.440458152856381 9.196705442985175 9.735942996421509
Ag 8.555706854723331 11.52009425244968 8.378228921928812
Ag 7.525814260505813 7.277660046684523 10.315490673875729
Ag 8.18234593838056 9.903382306929592 10.736327375772584
Ag 6.366531585029564 11.882082065212439 10.196435261505938
