55
Energy = -122.12246718 eV
Ag 10.142400109090904 10.142400109090904 10.142400109090904
Ag 12.196533281245385 12.196533281245385 10.142400109090904
Ag 10.142400109090904 12.196533281245385 12.196533281245385
Ag 12.196533281245385 10.142400109090904 12.196533281245385
Ag 10.142400109090904 12.196533281245385 8.08826493693634
Ag 12.196533281245385 10.142400109090904 8.08826493693634
Ag 10.142400109090904 8.08826493693634 12.196533281245385
Ag 12.196533281245385 8.08826493693634 10.142400109090904
Ag 10.142400109090904 8.08826493693634 8.08826493693634
Ag 8.08826493693634 10.142400109090904 12.196533281245385
Ag 8.08826493693634 12.196533281245385 10.142400109090904
Ag 8.08826493693634 10.142400109090904 8.08826493693634
Ag 8.08826493693634 8.08826493693634 10.142400109090904
Ag 14.283976740240648 10.142400109090904 10.142400109090904
Ag 10.142400109090904 14.283976740240648 10.142400109090904
Ag 10.142400109090904 10.142400109090904 14.283976740240648
Ag 10.142400109090904 10.142400109090904 6.0008254779411
Ag 10.142400109090904 6.0008254779411 10.142400109090904
Ag 6.0008254779411 10.142400109090904 10.142400109090904
Ag 14.23826507068217 12.174436644861563 12.174436644861563
Ag 14.23826507068217 12.174436644861563 8.110363573320242
Ag 14.23826507068217 8.110363573320242 12.174436644861563
Ag 14.23826507068217 8.110363573320242 8.110363573320242
Ag 12.174436644861563 14.23826507068217 12.174436644861563
Ag 12.174436644861563 14.23826507068217 8.110363573320242
Ag 12.174436644861563 12.174436644861563 14.23826507068217
Ag 12.174436644861563 12.174436644861563 6.046535147499779
Ag 12.174436644861563 8.110363573320242 14.23826507068217
Ag 12.174436644861563 6.046535147499779 12.174436644861563
Ag 12.174436644861563 6.046535147499779 8.110363573320242
Ag 12.174436644861563 8.110363573320242 6.046535147499779
Ag 8.110363573320242 14.23826507068217 12.174436644861563
Ag 8.110363573320242 14.23826507068217 8.110363573320242
Ag 8.110363573320242 12.174436644861563 14.23826507068217
Ag 6.046535147499779 12.174436644861563 12.174436644861563
Ag 6.046535147499779 12.174436644861563 8.110363573320242
Ag 8.110363573320242 12.174436644861563 6.046535147499779
Ag 8.110363573320242 8.110363573320242 14.23826507068217
Ag 6.046535147499779 8.110363573320242 12.174436644861563
Ag 8.110363573320242 6.046535147499779 12.174436644861563
Ag 6.046535147499779 8.110363573320242 8.110363573320242
Ag 8.110363573320242 6.046535147499779 8.110363573320242
Ag 8.110363573320242 8.110363573320242 6.046535147499779
Ag 14.141235965402139 14.141235965402139 10.142400109090904
Ag 14.141235965402139 10.142400109090904 14.141235965402139
Ag 14.141235965402139 10.142400109090904 6.143564252779523
Ag 14.141235965402139 6.143564252779523 10.142400109090904
Ag 10.142400109090904 14.141235965402139 14.141235965402139
Ag 10.142400109090904 14.141235965402139 6.143564252779523
Ag 10.142400109090904 6.143564252779523 14.141235965402139
Ag 10.142400109090904 6.143564252779523 6.143564252779523
Ag 6.143564252779523 14.141235965402139 10.142400109090904
Ag 6.143564252779523 10.142400109090904 14.141235965402139
Ag 6.143564252779523 10.142400109090904 6.143564252779523
Ag 6.143564252779523 6.143564252779523 10.142400109090904
