51
Energy = -110.6857316 eV
Ag 5.534514006913109 5.0573645041816215 13.14560000552525
Ag 4.338538806432781 6.805993941880121 11.368011872758089
Ag 3.1067735191939554 8.754785244504886 9.780751808788219
Ag 7.184952023760168 6.736697025329367 11.608211330442087
Ag 1.9202624492214677 10.906244182943487 8.478230030082255
Ag 5.980606491070747 8.430894074206853 9.660281057408902
Ag 4.715116569052106 10.696725454142609 8.515005151003852
Ag 8.77772360422344 8.429352475991188 10.04971620735613
Ag 4.543473938818347 3.971194460775506 10.727697059670763
Ag 7.3508745770175095 3.9630625629061926 11.373133546687058
Ag 7.499651710072396 10.605358273322185 8.784777907687335
Ag 3.0979959650897446 6.038304810409176 9.000001895749207
Ag 1.8276357299201162 8.231363538313614 7.2835995142574586
Ag 6.018014544757929 5.593481176642292 9.040751472044887
Ag 8.874149171600532 5.695051652434267 9.60263726889414
Ag 3.2927325439989885 10.438980939634401 6.138971056295852
Ag 4.57151477061294 7.790109588317026 7.241471028514555
Ag 11.160270825520191 7.245355575703534 8.966011327516027
Ag 9.292379806163972 2.844086741373726 9.749196221806468
Ag 7.349361029647062 7.272457819771912 7.264069660316799
Ag 3.99359806353805 3.595480362961099 7.9755167602236
Ag 6.364280206036962 9.919132557133837 6.309822086432432
Ag 6.521856154192012 2.711733771421817 9.04118190036339
Ag 2.7739758591919865 5.703352770221215 6.260339582321951
Ag 9.670572403036667 9.267093306905977 7.5753129332633025
Ag 5.56892786806852 5.151489787150623 6.231051125760548
Ag 7.496804008938419 10.812372893511533 3.7449067141474117
Ag 11.387974455820842 8.694559235866299 5.370572553926043
Ag 5.959420758351918 7.619177540342283 4.68564922381061
Ag 10.87550302017684 4.43455859314846 8.026065165121878
Ag 4.752330512479953 10.221341016811158 3.843430254438815
Ag 3.097350091937316 8.044164370838383 4.677917992627108
Ag 8.708213556132867 1.5755400559499715 7.393354895481542
Ag 10.01440299744365 6.6149997780718985 6.541441962009309
Ag 8.1641948859763 4.287872717139451 7.23826146029937
Ag 3.6504980576169643 3.202934475559188 5.206364087310719
Ag 6.058625548893758 2.252537444609443 6.318419613879712
Ag 8.627583295945133 8.672559554870464 5.086519056751752
Ag 7.929239956255265 5.633624927467377 4.78951113198429
Ag 7.879683845040534 8.380473945118508 2.4568156481505263
Ag 4.631731441726938 7.909347381491626 2.1780548689290136
Ag 6.058158170589446 10.198699342565133 1.369828673553298
Ag 6.079340529670758 3.551463355718101 3.794719434405827
Ag 10.473596925699407 4.249387931907546 5.161272675909374
Ag 4.110145785493941 5.588973338800653 3.7078692987785864
Ag 8.428128565937216 2.475174694669488 4.797073923600251
Ag 10.135571107441915 6.784957822866329 3.53635143123429
Ag 9.026726950225791 6.340296245050896 0.9196840640489692
Ag 9.067815371006366 4.20011557444191 2.663540692175253
Ag 6.594561364871159 5.825318044805636 2.2696807586972545
Ag 6.549987998898829 7.658914089313569 0.13373809784054838
