54
Energy = -115.91920531 eV
Ag 8.203311941156699 4.4819175009422 8.904304330809493
Ag 8.25099395728767 11.356700394145577 10.984684822699183
Ag 3.645665519296699 8.166640663251574 5.3209651947311585
Ag 2.2076704899574944 6.831353716817753 7.35862900333617
Ag 8.292365623923859 2.7042469855765905 6.600484124804756
Ag 2.5517585995630787 9.57643311844454 7.639504392490348
Ag 11.851707361608902 5.398819303381303 4.616824151055263
Ag 7.636904675107713 13.206338137995246 6.785120770360059
Ag 10.076535928358968 11.619894983824686 5.6629507156961845
Ag 4.159050430571467 10.60121143649016 9.979679856847683
Ag 11.741125366368493 8.346147404321604 4.488111659450239
Ag 9.771728706296972 6.644171551968469 3.074781947731937
Ag 5.300144331796581 9.466751796833668 7.459189231360156
Ag 8.51432137501222 6.3886848739387085 11.00416466277225
Ag 3.2640686288756315 8.496096348940826 11.996951420927623
Ag 3.977092845860442 5.7758662394254054 11.50208880012627
Ag 10.461779418842069 9.206819332111172 7.034593060890508
Ag 5.050305051941187 6.648125740825591 7.184167594558684
Ag 9.365258305277802 11.68719642974328 8.417194533499247
Ag 10.7378098100466 10.293317413121262 11.847252602291825
Ag 4.8763830453918935 7.264518576937946 2.9699806311618118
Ag 10.197951432261034 6.732290664869794 8.66655669116856
Ag 7.119991043221828 1.8351976894927011 8.943343407840745
Ag 4.868869204718153 4.378527493144429 2.471649704560126
Ag 6.573047253922405 9.157061433219827 10.043407395124337
Ag 7.744727249180376 7.822406607341836 7.724300998521737
Ag 10.676042522235008 4.619827343411029 10.3187674962384
Ag 6.367715963295085 3.302853829488129 4.6388316316808025
Ag 6.543711123989865 8.157204464541737 5.085524704595999
Ag 6.184170206839124 6.285063396405665 9.642729661717055
Ag 9.1240968404039 9.267352034317335 4.455146262390305
Ag 9.449878599940856 9.206391844329774 9.657508397143882
Ag 7.129514226986328 5.721099374770439 3.4248460390608337
Ag 12.347826148502412 6.953536487926702 6.891983057992605
Ag 3.9037358109214058 7.899752137857505 9.443429742411505
Ag 5.522003326087501 3.6969066819213463 7.399985725271336
Ag 1.597130331889302 6.709508522700371 10.203215571785197
Ag 7.684544826188951 10.424327673881555 6.4937962027022795
Ag 10.989569106579967 7.521818514615021 11.330505565144692
Ag 3.4827890557959487 4.93574030286523 8.898650281694836
Ag 10.260633512769735 14.006924028595757 7.056160848579704
Ag 9.736769840365994 6.7600912709181165 5.876242504987577
Ag 12.394613558210843 15.352980535307486 6.425952488017178
Ag 7.4115580101668055 5.407924512420561 6.265725836180994
Ag 9.897446676927478 2.2894399569703903 8.896638681971073
Ag 10.693580586633793 4.365996377130258 7.117773556644966
Ag 7.506251588365332 8.294664563454312 2.381356856044715
Ag 8.4489567985711 8.837207271147047 12.30869200857354
Ag 6.46992604753635 11.725550892414347 8.817225807187203
Ag 4.317299479339097 5.297793801941202 4.971116319908256
Ag 10.267676959962312 9.088350952151846 1.986045932162525
Ag 5.585725157214679 3.7105902249112725 10.314176591112382
Ag 9.305594645646137 4.226864392327278 4.517801098806261
Ag 5.984398291301547 7.538884220997186 12.224736211647858
