52
Energy = -113.90667425 eV
Ag 10.241758533358384 9.578599178964751 4.980702115638051
Ag 10.483220483584672 9.581612337481133 7.853264701271209
Ag 9.584113185671681 8.540077459089348 2.4828305584277683
Ag 11.154687786062075 6.789282814688159 7.638665743194986
Ag 8.308740225900301 10.914219343718658 6.497130498613452
Ag 7.94752148406974 10.548339112613412 3.5978940206209082
Ag 10.241613034728942 6.731571989959014 4.673359501811463
Ag 6.082320122507791 11.987516572252007 5.166546823232193
Ag 6.817722063585095 8.79064184195021 1.7264018500429714
Ag 7.970573306846881 10.107029040270607 9.197580161885984
Ag 7.71044950715494 6.7866196401580074 3.4587960002327627
Ag 8.636625553668846 7.962500190563234 6.670231576571196
Ag 8.590524370190474 4.2905167260419645 4.189687762938408
Ag 10.076038900023795 4.970996005119829 9.651777942740955
Ag 9.083037035430738 7.595286600256267 9.473760875362082
Ag 5.762610734349528 11.0047453425238 7.756129532377614
Ag 11.363127030317495 3.731529315222563 7.530207581834077
Ag 5.044500424848808 10.37771991309124 3.1690168519482707
Ag 6.28037859089572 9.107865285308424 5.427474272271178
Ag 5.878420997498272 6.13653236132811 1.4381235997901514
Ag 9.155407523548885 5.143940401805683 6.808768278144441
Ag 3.7412665899683035 10.550676520305387 5.892320430943421
Ag 4.8731676136300965 7.21166532763388 3.845203802854169
Ag 6.228098278411911 8.217642726214441 8.126960083678647
Ag 8.3517813949766 6.014108499369033 11.642712773043169
Ag 3.9885868813392613 8.305187345510623 1.478495141449957
Ag 1.6087565634089764 8.816598258230897 6.490795333332218
Ag 3.612365414471556 9.29592289196481 8.525734155142919
Ag 3.2711775856429486 5.550792335901759 2.3791385126270237
Ag 9.446315521621461 2.2121372851360293 5.904379650560912
Ag 6.402484181336829 7.726086455514733 10.794652160898222
Ag 7.132786286447183 5.504084044801997 8.806733548943814
Ag 8.981760436974326 2.5399880985447134 8.577630385344447
Ag 2.5709997368559905 9.302984415901156 3.7341722902186754
Ag 6.985655360769485 3.501925550700166 6.452616418606705
Ag 8.246385798933355 3.3396636243873776 11.114024193547628
Ag 6.550066958000583 6.219712962062831 5.9915812045691865
Ag 5.797318281336985 4.348452085644983 3.7167380546387974
Ag 7.156646094307269 1.7920377264632095 4.2560106667926085
Ag 4.050601157560173 7.482197419786691 6.467583540907106
Ag 5.761493090185519 4.896385986669341 11.160205256440886
Ag 1.9089110293168126 6.8058659051050086 4.59354839573351
Ag 4.185243148663608 6.579561560199257 9.372698299339843
Ag 6.277476256916746 2.7229166299948973 9.312135437976194
Ag 6.952640991527114 0.880449404000346 7.121978933792834
Ag 4.67303754247507 4.616439290240372 7.443946664901333
Ag 4.685017025551682 2.182477593243878 5.495077198908304
Ag 2.048968415798793 5.863733109817003 7.364063331621379
Ag 3.30989998459091 4.535237374469283 4.985752213350819
Ag 3.625965437339293 3.588672434936109 9.767031657641287
Ag 4.303670347696982 1.3080526425098604 8.12268393590785
Ag 2.3796645281602773 3.0580278231978015 7.1939251142559675
