50
Energy = -109.07346692 eV
Ag 8.414842709657865 2.522657097187343 8.269188657742912
Ag 6.269513002952274 1.6280950491405533 6.7674356409147505
Ag 7.941540684561535 3.8462446534331924 10.646687274065085
Ag 8.19933724253677 3.3234360094055333 5.514250202566347
Ag 3.889693232519386 3.079063067503718 6.671309763893698
Ag 5.500710321322597 2.747913844631393 9.28913070869431
Ag 10.078789863820205 5.721782496492055 11.444361573083679
Ag 10.558726923833545 3.576606770985788 9.66841649459259
Ag 5.5774276351202055 3.12843266854281 4.445678461505106
Ag 10.435127242627052 4.150133342512422 6.935783924633491
Ag 5.7030330647170135 5.439817904552679 10.159436347814337
Ag 7.3719662071639895 5.985970846282877 12.319169240116796
Ag 6.351912348077705 4.462413724871315 7.346123615979592
Ag 9.445687629888045 5.477000487067235 4.1475475642751
Ag 7.842568579731409 3.5744604645843285 2.7525946695515975
Ag 5.355830534467677 4.818607008961898 2.1298637801904095
Ag 3.2005859201099476 4.519916899502839 4.00779722835601
Ag 4.236297299421627 5.982953617954978 6.1702243052433206
Ag 1.6372123695051783 4.721889607545993 6.292050942911243
Ag 6.7033347145555835 5.703717803980747 4.641392471437077
Ag 8.290678559457637 6.830370382837377 9.663917473410661
Ag 3.4358088153394233 4.972479562553332 8.643637970318657
Ag 10.996051469612288 6.1683446871622865 8.762776272043444
Ag 8.569089818101794 8.440428472606323 12.220960442716164
Ag 10.623979808574843 8.389912360477904 10.404383072863165
Ag 1.6859110241477655 7.1390186947812095 7.6211277094576015
Ag 8.468463707739492 6.259192616853966 6.812322144522665
Ag 9.807708710004198 8.599231016985577 7.765721081849986
Ag 11.147869315639223 6.75673084480606 5.999065913305226
Ag 4.535768103708401 7.192979166503596 3.6872403298631946
Ag 6.119060649622054 8.248205862161349 10.869568676583706
Ag 9.95020144292158 7.612314180269982 2.45690967190526
Ag 7.8104611013108345 6.020895413622367 1.4914317964894286
Ag 2.8379969483708343 6.035049130874712 1.719765882876068
Ag 3.7542811643560987 7.707145656496774 9.455346642517643
Ag 6.0694377361875915 7.2008685544238205 8.007847871045913
Ag 8.215493261606806 9.885647087930725 9.759233988179894
Ag 1.9384523579715147 7.225868718779687 4.746388206479884
Ag 6.339174227449147 8.388337735851028 5.528957767100345
Ag 5.575070741525588 9.936641786233439 8.633117624655771
Ag 9.120805392243856 8.452608461010296 5.028133043874008
Ag 2.671901194183386 8.720776731369899 2.3016891892435964
Ag 7.270892013741819 8.303041675441364 2.8603712702095505
Ag 3.7923833705241483 8.679334788266164 6.784359063764552
Ag 7.828879732097831 10.406092175967729 7.03907819647898
Ag 5.270901626613694 7.537765980784617 1.0650965769358822
Ag 2.6207827951062708 10.05421226254225 4.733000697849043
Ag 5.176359522554862 10.965146157944506 5.9551860879515255
Ag 5.012863327475089 9.93996464712723 3.241279597856417
Ag 7.529865431343437 10.701012718315159 4.304373766206571
