52
Energy = -114.23453258 eV
Ag 11.038504654260198 8.094908407164878 7.629182330518817
Ag 9.898095876337914 10.576345420077635 8.414488932358793
Ag 10.550304015668027 5.400155052525449 7.6462016619810145
Ag 10.109561472867412 8.115695934238442 10.247809241801935
Ag 8.908984011681838 11.987411411234389 6.214265592013538
Ag 10.363490151648879 9.715129217606709 5.521351703691095
Ag 9.60080068906875 5.334317107294852 10.286656753419335
Ag 7.000518919259865 11.065661571846398 8.078379025654828
Ag 8.184441591092469 8.414185479203141 8.253687932076042
Ag 8.695072749219038 6.9034799487056855 5.928526301513549
Ag 7.899591672478099 9.93502888377164 10.53194282667345
Ag 8.410762534237199 10.978717866954005 3.5494725831243192
Ag 11.200167616842394 6.888005216133485 5.053576555736875
Ag 6.264973578354382 11.935100574265855 5.26768939240032
Ag 8.919744239619074 3.0879134243028785 8.507450823365515
Ag 9.191703955915754 8.29153459366387 3.457007763127703
Ag 7.381906015277314 7.099118355383871 10.674618643981885
Ag 7.507542674288138 9.48132371253846 5.6781555504737415
Ag 5.477676893073512 8.86381115198722 9.347320367766493
Ag 6.9899932801059075 4.196069928461321 10.51714761656032
Ag 6.366649869859764 7.129996231485711 4.1447272265857125
Ag 9.218655253537248 3.9591967008517943 5.673489207172804
Ag 7.71883850037759 5.565222174614237 8.218698784670611
Ag 5.650933853476076 9.743732924893418 3.4996281469352892
Ag 8.588333348830387 5.557385616380116 3.37202591211217
Ag 5.9728421931534905 7.414606131056 6.901143470301754
Ag 6.588717887958557 4.82720572660153 5.7479559334438335
Ag 7.1598759879568235 7.884277639725046 1.631805322342793
Ag 5.1182834143017955 5.962160008185275 9.259022578758255
Ag 6.496389175721987 1.7818952754795723 9.231780642797304
Ag 7.1564904380063075 2.1012883086676397 6.438883979846856
Ag 3.0080434798164406 7.186219243183252 10.44101074386565
Ag 4.824090403182931 9.96736472105927 6.648002131709858
Ag 7.2042383197506625 3.058425122203732 3.7101061242648674
Ag 6.441808796760282 5.09731215799943 1.544884982080373
Ag 4.973885331440936 3.5536664635818114 7.655860493002422
Ag 4.223936217420235 3.414010458942167 10.283577334683235
Ag 4.364197963339472 7.3047148198394956 2.223093294326978
Ag 3.271508022957193 7.8701685762653915 7.790242912814628
Ag 4.755839084820229 4.767761074565764 3.630359893893287
Ag 3.632004916102048 8.119005901189153 4.873545355712841
Ag 3.951940667962584 5.652801113233558 6.110871598862259
Ag 2.5755992070509963 2.273999030308616 8.230510308627478
Ag 2.467317114078516 5.0916099382279265 8.52385574258206
Ag 4.6479703936009376 2.3307753902601616 5.0007540233424725
Ag 4.756964408703907 0.7467952734749913 7.3008929240370035
Ag 3.455264436609479 4.831674537578139 1.198953004834922
Ag 5.01021941402551 2.5247811128270916 2.041874523371874
Ag 2.2051744838758216 5.870796221613165 3.657749060523417
Ag 2.0080034315584574 3.697732102348634 5.908854369378751
Ag 1.3452093655158062 6.4981258508557715 6.246864070939568
Ag 2.48964897271398 3.062963997014871 3.247171239358492
