50
Energy = -108.32354454 eV
Ag 8.308397198656078 4.003129837381822 4.132933025895812
Ag 5.429783875229784 3.0619572185793853 3.963060601428965
Ag 6.524239815401359 3.8996613722386373 6.340822206700401
Ag 3.3049524883445427 2.258297695265368 2.3184112920068944
Ag 9.223350873105602 3.4086020414523186 6.972133410900546
Ag 7.512044641263051 5.406464662450421 1.8139368844777959
Ag 4.533044541411435 2.160044520528211 7.007782899393545
Ag 5.281100870981896 3.945483892086104 1.3052551905859981
Ag 10.900865780225589 5.028986418602966 5.327402929297063
Ag 6.944570850468375 2.4447074688035193 8.629628259668301
Ag 9.582840535815496 6.455129601526191 3.3489697391110123
Ag 2.7994822690203316 2.9836482556614943 4.963494440663945
Ag 7.7898368874759045 8.163312243608333 1.7136150454539718
Ag 9.140122700102923 3.90302482206803 9.660433227593135
Ag 8.378783049435764 5.959542741345069 6.101526903665314
Ag 6.0320767053143225 5.865930531619329 4.223941949970731
Ag 2.337340843125858 3.9550387984258317 7.5551103715881265
Ag 3.30426961629689 4.955734331874403 2.9484182969150483
Ag 2.0348803457299893 5.672555536432301 5.367443165957035
Ag 11.187274862927879 5.174611739206607 8.068611227397877
Ag 4.664020077725414 3.9942881620583033 9.158274167327964
Ag 4.453771168623765 5.7094113712088514 6.758621772577565
Ag 7.816142987864095 8.26327220509733 4.51379259471572
Ag 9.119386850036305 3.9605798666581187 12.47334036380256
Ag 5.089634200891916 6.81125572917735 1.6124334001417953
Ag 3.440682412149074 7.554668433817907 3.830003550729968
Ag 10.901253209770452 5.580925847340214 10.928048866948474
Ag 6.913211084052948 5.714850412185627 8.553199560557678
Ag 10.399162655033317 9.11605529725418 3.832465955779667
Ag 6.6655804523500795 3.7502703636447254 11.12201055279393
Ag 10.444716763861072 7.8245237929374305 6.393001856573359
Ag 2.9220845783376332 6.2706538787762 9.09104899534678
Ag 7.667710339848682 8.322059404590574 7.328525214275068
Ag 2.7485712491315653 8.078480960636346 6.787079336213349
Ag 5.546053508381625 9.25662165395552 3.0041123593818706
Ag 5.3421479134611625 8.179897226846318 5.782239164013994
Ag 5.295968859992565 6.270330152603082 10.806073290814517
Ag 8.042997083044302 10.639433183129801 3.1236072974128755
Ag 5.10990991672561 7.974470456327053 8.638683656924242
Ag 9.558725536175464 7.105723541341928 9.052246987609648
Ag 8.094398219478675 6.184780218936897 11.248024252137556
Ag 9.050135348922446 10.427251767948263 5.953899451765115
Ag 3.5528073005695555 10.198045938043299 4.806327452733856
Ag 9.671660916233009 9.853796661954862 8.608972915817061
Ag 2.704905798230458 9.104974391213679 9.4367052815026
Ag 6.323034946093924 10.766157807844465 5.4209013895391065
Ag 7.415503591550631 8.684322007504665 10.148899093921267
Ag 4.302732806157629 10.485879087626547 7.487923107761987
Ag 7.061344399295166 10.885079931417287 8.19343142354089
Ag 5.174870350592306 10.368459793681593 10.185558893581762
