52
Energy = -114.23580659 eV
Ag 8.53618400209627 6.515376990082312 11.925369096868033
Ag 7.507004301095821 6.730098071506118 2.3580183186751413
Ag 2.0302868025246688 6.51023421046354 9.209055005006768
Ag 2.4766401407852907 9.771212545669291 5.785841649970814
Ag 11.226699488186867 7.165104485400237 8.088371107945466
Ag 4.351730200376592 4.964806543140272 8.633270651287264
Ag 5.491176134292857 4.786836905081523 2.2255316553938043
Ag 1.1133199621966492 4.754583973935568 4.0338039543298025
Ag 1.7837824918091687 7.354702455970974 4.575448394694534
Ag 8.731158019504324 2.1167241054219774 8.211647769078942
Ag 6.303970661941111 6.855846262581607 6.975953701404331
Ag 8.34411288125683 8.684905374015626 7.610706947614151
Ag 8.214406493849637 10.742170248537976 9.379353702767533
Ag 3.0813888819355775 3.416685497699898 2.598914191921389
Ag 10.822349793150105 8.086007764306117 5.413965061265009
Ag 6.4308890053782495 9.394785730196855 2.785042287285022
Ag 9.477854233045058 8.743329217723346 2.8735075079324526
Ag 7.005237051859529 8.38563107672935 10.480407801119783
Ag 5.050916351403729 7.479414031317608 1.25125284729462
Ag 6.1814880605327085 2.8421713822889205 9.630067217512634
Ag 10.472275778436915 4.298701336127441 8.213607819742904
Ag 7.210228296229215 11.056737483290012 6.7146959233933545
Ag 5.551332006484206 9.41985990676202 8.299414804652695
Ag 7.749852977769269 8.157747659174946 4.893222586743171
Ag 9.439687456696804 10.434585763354097 5.231920307488349
Ag 3.49934009533623 9.0365834044504 3.1386990336107674
Ag 6.20778175686263 5.484790094298973 10.705519711726328
Ag 2.8926112068308423 6.171319730447542 2.33251044177644
Ag 10.733132162118965 9.963356171111496 7.7526826442682895
Ag 10.831449714666762 5.829806088325663 10.518697080067247
Ag 5.114781453818105 7.019116684230568 4.087472483244988
Ag 2.7293575054587493 9.335006740280509 8.668574413678316
Ag 5.2547630029565235 9.438494755332751 5.484217029155614
Ag 4.835378988704398 2.4731024628018425 7.15201738742098
Ag 7.098314385800927 5.112100847913994 4.71360916630412
Ag 1.836098029808697 5.197121593564344 6.705922059590112
Ag 5.2547209717786965 2.698155621659874 4.135978100461705
Ag 8.6749256740308 3.8771078702856845 10.482394221985967
Ag 9.538381388786396 3.5304275963288085 5.615618962520674
Ag 7.105561401074682 4.2502626900357425 7.500559664632378
Ag 4.516180805971293 4.912227131604747 5.838046126689511
Ag 9.04708570687786 6.1531404951022655 6.492612686592711
Ag 3.62076172532627 7.427933346604354 6.901958063695879
Ag 11.699374185376499 5.439370588069225 5.891666751671689
Ag 7.294872041100612 1.9712687286752708 5.791327106710394
Ag 9.740189843974566 5.9189778461760225 3.8015459435660843
Ag 2.671507128019125 2.8358114723435035 5.372063569558826
Ag 4.427420395323085 7.499845293492724 10.044269376376265
Ag 0.7904239979876282 7.866743161030158 7.122737262378185
Ag 9.85369304328614 8.544006623640259 10.170688392192176
Ag 8.371835690658553 6.290945645690402 9.131986966652029
Ag 7.899440070353986 3.0825142256150673 3.168582935744664
