54
Energy = -118.07087674 eV
Ag 2.7466410199161286 5.1944367858466025 8.017366395237838
Ag 5.057729332705232 3.6765806865262878 7.549003290164399
Ag 0.6362310705978148 6.961469046662735 8.57705678394202
Ag 5.905382702966987 2.759499974143034 4.734717519596203
Ag 6.838794510623053 1.4194654157407989 6.992884880386187
Ag 2.4600570753581525 6.177780090647151 10.664248445961745
Ag 3.9646829027010404 3.70656211432108 10.232993128647797
Ag 3.77096027051103 4.888567581457237 5.307754007609672
Ag 2.6034414162962953 6.355865131460479 3.20567902085126
Ag 4.808448909744763 5.68631130772882 12.210267692404136
Ag 6.100952180670259 1.9721062619401644 9.568081892081487
Ag 1.6251257374618469 6.60608470643471 5.931277205660552
Ag 1.3121307935676516 9.28399258159433 7.014718162789331
Ag 4.688312411525568 7.186979778557639 6.76563177637597
Ag 6.558266279016712 5.276637536148416 5.661765603626456
Ag 8.68859946426476 2.7754388568714883 5.475171078335599
Ag 3.612869494637353 9.061647551198133 2.198185506860049
Ag 3.0403196786177915 8.305372690165706 8.879082173684422
Ag 6.765828178117659 4.291978209243086 10.903848547241385
Ag 5.165583412247626 4.636715699840372 2.8309627810136666
Ag 4.412846950984703 8.26780163421369 11.32944567224909
Ag 9.500609998029269 1.651480301796035 7.953623788986212
Ag 7.937821910579784 4.261935613596677 3.2864005236165226
Ag 5.079176803299705 6.106377530923378 9.386866986341257
Ag 2.88249612952743 8.810927820416028 4.837734923061722
Ag 4.532109434615614 6.7040516006235205 1.1237021474137718
Ag 7.800931379109384 3.889201091715218 8.21781622265195
Ag 4.245807456624723 10.168631036280557 6.944557904038766
Ag 7.111283716498756 7.305684428142062 10.988445536241693
Ag 5.760434694021466 8.839075572629216 8.992785136197137
Ag 9.107391492256554 5.499564989651679 10.253483439688868
Ag 5.158369320177843 7.2655507226164895 3.9427279196719978
Ag 10.622534258716973 4.2039857877276425 8.358111422037508
Ag 7.217740511366393 6.242220543644525 1.4820246157068047
Ag 11.43443402317622 2.770407036041842 6.202747988685713
Ag 7.473586651414269 6.707695435664756 7.9605247377255335
Ag 9.282015899567682 5.574046405764269 6.109140351894234
Ag 10.680261512641612 4.227575394984062 3.986881451004005
Ag 7.9567596099691595 7.236281669930023 4.162431295492765
Ag 9.903300025200343 5.672959163142471 1.7320938206628707
Ag 6.845732105844615 9.095620064211898 6.364520927928964
Ag 6.496200880617745 11.895370668944812 5.7493814700428505
Ag 5.204056035771989 10.185095355837564 4.152924160097611
Ag 6.699963830982496 11.322650507862388 8.429025982786145
Ag 9.851287998765148 8.039944598559066 10.983405662887975
Ag 10.506393412346371 7.0376608755061145 8.384961192485221
Ag 11.975352288742123 5.661052819893073 6.220734943547118
Ag 6.475265909268307 8.88279146354925 2.000207723462239
Ag 8.172946254142467 10.120239967113251 4.068567205884906
Ag 10.808544212597406 7.066486665224799 4.004043005399926
Ag 8.562538482705495 9.185554584193293 8.817039997442057
Ag 9.251256019835324 8.400637405987704 2.0184293636963337
Ag 9.698923420691631 8.457082486002784 6.1081485637908255
Ag 8.9871904317455 11.0586088413037 6.7301008448821715
