53
Energy = -118.28543559 eV
Ag 13.15193584498851 12.21700687527713 6.6923102030819015
Ag 10.736134449876321 10.735968948680403 10.524948410523395
Ag 13.654478757220081 15.42031424019981 10.569855080705326
Ag 12.202608990467347 13.096528105146742 10.541091678814105
Ag 12.218982014371953 14.611807385770781 8.162830307789601
Ag 8.373980389702414 10.736112863766062 9.088856336681921
Ag 8.320633927443534 9.254882259121066 6.692267784996388
Ag 6.833659519070578 8.334333629280192 9.062497545022573
Ag 6.83750733702914 13.126364097998131 12.038824258826011
Ag 9.269766874176035 13.096764564812263 10.54099842064296
Ag 9.242004407836655 14.623025950335904 12.95833943767687
Ag 7.818396766747011 15.420703425249151 10.56965645223233
Ag 12.230364036254073 14.622867259146277 12.958406334025051
Ag 10.736284658449906 12.237818708699555 8.106921786690132
Ag 9.253664289917763 14.611947434769398 8.16272330981398
Ag 10.73634978154933 15.553578149873436 10.55091722256812
Ag 6.0107456560354 10.736202416239589 7.68801644014755
Ag 8.320982227021364 12.217212812825533 6.692146072686935
Ag 5.90780802065026 10.736329866887843 10.574216771377618
Ag 6.833970615405086 13.138197809980909 9.062214664851664
Ag 10.736042424227128 12.202373807041436 12.913864055649691
Ag 8.328902365214619 12.222041232092948 14.47089890934897
Ag 6.060913514918677 10.736391482474858 13.48966646082736
Ag 10.73603916940827 13.64098177809694 15.23922662983006
Ag 8.376712848948515 10.736224389467779 12.021029309929721
Ag 6.837230871815279 8.346363540184711 12.039057051911332
Ag 8.328652500923708 9.250522807929011 14.471030577058936
Ag 12.218578903914302 6.859969720881534 8.16312037532298
Ag 9.269495261770889 8.375508817123764 10.541187658080402
Ag 10.736019309910825 9.234114012767675 8.10702404298553
Ag 9.253246475959887 6.860135337903315 8.16307511473952
Ag 9.241633673496137 6.849404784740342 12.958646341233086
Ag 10.735730038366729 5.918495196048273 10.551303271065024
Ag 7.817626023420473 6.051782255182836 10.570112622002782
Ag 10.735902257784636 9.269910944684645 12.913973051024579
Ag 12.229957653931656 6.849259947080887 12.958772616970908
Ag 14.634788406171278 13.125851381390369 12.039089458937985
Ag 10.735912972864439 10.736239170924927 15.379357281780264
Ag 10.735785028718531 7.8316090230279265 15.23953228154869
Ag 13.143119982478174 12.2218140367145 14.47104233833574
Ag 15.411052930817082 10.735900327406014 13.489926080027129
Ag 13.095184422728638 10.735966015725742 12.021093432846769
Ag 13.653704298720928 6.0513311677913295 10.57031031269307
Ag 14.634507572402343 8.345829510541046 12.03928555319789
Ag 13.142901408781393 9.250314499067166 14.471181440359924
Ag 14.638553114991373 13.137649374971394 9.06256525381692
Ag 12.202279548128706 8.375418025839336 10.541279152685707
Ag 13.15158884163129 9.25467019547637 6.692367656189204
Ag 10.736202889606126 10.735968948680405 5.769748160286355
Ag 14.638238812123815 8.333752558936597 9.062755002738344
Ag 13.098141760840978 10.735843182425628 9.089091694729419
Ag 15.461717498281361 10.735666481433753 7.688364214225635
Ag 15.564330165409416 10.735764079527316 10.574508864424345
