51
Energy = -111.2682703 eV
Ag 1.8028182134192896 3.337417091758431 9.711728866360371
Ag 0.4689759135156659 5.129994588511383 8.077357463926367
Ag 2.463429347340453 6.086679518820118 9.78011769466236
Ag 2.7162351722659497 3.7589667087369993 7.080417384053653
Ag 3.8199158517667806 4.282678554740752 11.400221098667188
Ag 1.4250565539891304 5.9586578559942565 5.610737843166474
Ag 4.433792217277336 2.616116413799285 9.148394177513953
Ag 1.1746116096661323 7.834593381638473 7.871265789548168
Ag 3.9670359680291867 5.002631768539311 4.903798938411894
Ag 3.6650500752128985 6.9376730693940285 7.054107999919909
Ag 5.544569103005229 2.672105078875814 5.8166505585996475
Ag 4.124349093621534 10.3046294114393 4.0602472191204395
Ag 3.458833525593997 8.622355364100782 9.385877272605239
Ag 3.2454885527382857 7.724678691123989 4.376746115992898
Ag 4.908486506998024 6.8588471091538405 11.057426521154891
Ag 6.356998008756392 4.507886072990017 10.347017259837106
Ag 6.3654369612806 6.4015044871114135 5.764234443096627
Ag 5.275978958317307 4.7579381481397505 7.656810774539895
Ag 4.3340490301855805 6.1753244402690735 2.270343318426359
Ag 7.128028756778958 2.7035322873150043 8.330207615408343
Ag 2.990043206100056 9.735129187910418 6.7179804304952695
Ag 7.586155709626862 2.11028297469142 3.648298059289928
Ag 8.359548121155008 1.3535422399315205 6.195055886500795
Ag 6.288096065022745 4.596061089017101 3.4623183618183897
Ag 5.984621944204153 7.497140916055963 8.575522998209507
Ag 5.063461582250577 11.76237394470406 6.271146996146892
Ag 9.278395788310283 4.475022957440338 10.235248769852978
Ag 9.792845761661955 3.224945349494619 7.769318109243175
Ag 5.639749284617133 9.032541523640413 6.11875558494272
Ag 7.169379992452423 6.476823419501088 1.6151290930246847
Ag 5.499144845329071 10.323779635121168 8.655288444160938
Ag 9.01253941819003 4.3434382269414105 2.728047617945805
Ag 5.95235934861702 8.132782671677488 3.4509480755643236
Ag 10.415575237126795 3.1124572058202777 4.933154491296163
Ag 7.81171192718996 6.876602488513037 10.714096471940165
Ag 7.9496439738246245 4.093775472751094 5.639981349564879
Ag 7.952754177513214 5.5213446053184345 8.110122456616494
Ag 8.625897954653924 6.825888920778093 4.146449396319193
Ag 6.950105022194906 10.696112313627161 4.223938142503567
Ag 8.38605963862764 8.092973301554355 6.724145835353475
Ag 7.702212207108745 10.918475910123483 6.971739741725004
Ag 10.190242626581867 5.624434519592444 6.43196241303237
Ag 9.926089902638136 6.692051351635652 1.5536610695066961
Ag 9.55539387203715 10.09111231755274 4.958637315696686
Ag 8.448631416815477 9.075656174085692 2.4468065798130865
Ag 8.046013776183987 9.322396297222127 9.364939630395817
Ag 11.277733077130938 5.702071014339645 3.8866080797469484
Ag 10.05018621353394 7.238099549656265 8.83567764500849
Ag 11.24954882969776 8.073589750369498 6.041441327432618
Ag 11.079701450910711 8.469467544127838 3.306094225381614
Ag 10.260071107967423 10.000433814421058 7.761813444983589
