53
Energy = -115.59444455 eV
Ag 7.999229149294836 3.8559265268115244 1.440841575199856
Ag 6.802649729915633 8.285574660543222 1.2033793140467424
Ag 9.524219159841415 6.856955798624759 1.5939820415896584
Ag 6.052944402828632 5.693791572371851 0.5589128395813682
Ag 5.561358294413546 4.03281279810857 2.7633401771314143
Ag 4.556406364731536 6.7743744465436135 2.756700103241599
Ag 9.571388208024771 4.681357868481723 3.586644982234919
Ag 7.649637302637775 2.294289773263381 3.78699393737309
Ag 10.65128369518647 7.295310503510446 4.124016110454615
Ag 7.30394011380776 6.234989862833587 3.0386748418470027
Ag 8.43689893026481 8.8607418944407 3.38950455544159
Ag 5.6160637231421395 9.433939500516214 3.466736843381765
Ag 2.894523804391337 3.6763721806817675 3.444022485913911
Ag 1.9479782736917786 6.2236055281195 3.9180340643468954
Ag 7.075679952754174 1.8785569296439475 6.659248787133865
Ag 4.360606358646052 5.347505563964907 5.245157144145793
Ag 9.527671084342375 2.974667236729776 5.812504095359226
Ag 9.549430179872143 5.785357547232151 6.197513278746544
Ag 3.6283939309075937 8.207686406545857 5.064181242710267
Ag 11.649298937955557 7.557413599867162 6.709477161180515
Ag 4.9885758878538855 2.4788679211915126 4.9462942278202995
Ag 7.408872118940725 10.721112837154907 5.187378800412464
Ag 7.139865402481653 4.598811736696057 5.347539112196657
Ag 6.512974323026225 7.5180157022256475 5.380858276894903
Ag 9.06831999324504 8.652701864660605 6.221907802943042
Ag 4.598728923268291 10.733830712803847 5.7693718840144665
Ag 4.545541996138518 0.37592660347630535 6.603899711865211
Ag 8.436420972288573 3.9429450311997916 8.187345521054358
Ag 2.374636865286586 1.4384794939900256 5.02483439277092
Ag 12.579745499820916 7.4293010693514425 9.274247717631264
Ag 1.2109492669013064 4.041870312613376 5.675469327174161
Ag 5.606649952050466 4.407251004240045 7.663280448189536
Ag 9.891694184409177 8.030417522920322 8.929597206679002
Ag 6.388915457836898 9.430249780646127 7.569806626234208
Ag 7.480852558216577 6.748760117375785 7.905485744731931
Ag 10.773140985128721 5.401766202121238 8.683301967739679
Ag 2.776315022340089 9.156524283251324 7.60801520795269
Ag 2.0355100639212296 6.492174538062954 6.734189606918727
Ag 8.771955417834713 10.562462786877054 8.422997790069234
Ag 4.148099854502874 11.418940950335038 8.428202680622364
Ag 6.6007225875978675 3.78406098068019 10.306396402903681
Ag 4.699963595118424 7.12592167100369 7.530727206962281
Ag 6.591099318979029 12.243361780731814 7.336470589828178
Ag 7.435763699727903 8.553538757043619 10.171068498042356
Ag 5.272519194247305 1.8744109289718283 8.8201992627741
Ag 3.20217274237397 2.9090962352175946 7.247210659306239
Ag 1.2644370204120636 4.515577105198313 8.521764059083155
Ag 6.458036542819625 11.154580583423236 9.949924392605974
Ag 8.474924442297478 5.8797808808081085 10.345105591546163
Ag 4.598997058390174 8.972657009002914 9.832047856542607
Ag 3.7639929050456784 4.177506504421553 9.754516458478191
Ag 5.596808557514611 6.367646260707993 10.194693887025508
Ag 2.729693241404521 6.7916529345909105 9.497421352191635
