52
Energy = -114.09342551 eV
Ag 9.915214541833107 4.914294581950825 3.326702194223581
Ag 9.47074380985034 7.791704917983387 4.310538002892049
Ag 11.309507464550927 6.112874833888424 5.623832416483401
Ag 8.256856504605972 6.792456867258184 1.9509649326799872
Ag 8.619592863063591 10.24809766343297 5.488309732725219
Ag 7.428552370312275 4.091184994926833 2.067270145122945
Ag 6.899422098545402 8.890748876826539 3.5621094473647847
Ag 10.451530387603105 8.580641052779141 6.870129278922455
Ag 9.699795712629777 3.834633269794042 5.937088392352505
Ag 6.150275240052287 5.734382577216664 0.18436264148365572
Ag 6.3199947943978945 8.449877820129863 0.8061612920701544
Ag 8.99135164972834 6.258538089131137 7.230175415822569
Ag 11.242747611978716 5.55039377327116 8.543326693344543
Ag 7.907232744453969 2.522495552653913 4.369737185925665
Ag 7.097693161683099 8.052828381657612 6.264560708513519
Ag 10.194113308434327 7.960934053315278 9.592568381195228
Ag 5.485419064127356 6.4862621640702 2.779457305563289
Ag 5.964128900006625 1.7301718528012537 2.5577098767281004
Ag 8.30546156457782 9.576584016110857 8.446350178391777
Ag 6.317680279488345 10.728531805009911 6.93594890077661
Ag 7.592532700179697 5.7358621678292 4.578940051680915
Ag 4.206417994034189 9.036367037696682 2.464003378316171
Ag 4.4840077728673675 3.9849605589167694 1.5815605692065784
Ag 3.1079891180104293 6.5395740636427515 1.449322226687304
Ag 9.150796502883317 3.60403114999731 8.621847377062174
Ag 8.977939713779444 5.666685833422834 10.445905626535241
Ag 3.343538264122718 2.1505616120771576 3.469396210687247
Ag 7.700715244023341 1.7338721463791407 7.073791213417942
Ag 4.531234176556305 9.374281374897372 5.2052364591375735
Ag 6.9044258323240495 4.356671195400927 6.876147706280276
Ag 5.424541438029545 1.347943036966421 5.386112236902128
Ag 7.672195254136598 8.326574826279353 10.93907935498437
Ag 3.6670676066281143 10.89934612208409 7.5346765103783
Ag 6.786350781755673 6.694117438686267 8.863888720684614
Ag 5.406159197469499 3.934412576745375 4.322982532418408
Ag 4.669623269614425 8.186061341664116 7.8275204223807915
Ag 2.5240736846014844 7.6217286701497935 4.156721895907657
Ag 6.622846580792705 3.916521548071818 9.738308081508183
Ag 5.7481374179074365 10.057758817530116 9.641645324739837
Ag 2.79430754653884 4.904734047659812 3.731863338831921
Ag 4.896375251176043 6.443785900315379 5.520513794520454
Ag 6.549521564840108 5.822666982422473 11.773454780748363
Ag 5.01778315667209 2.420361225759939 7.962194279577183
Ag 4.542651433654078 5.218218590078315 7.991871889701882
Ag 3.183480610415226 3.182694998865721 6.039057123968962
Ag 2.148637727350441 8.593357206690083 6.787876386058961
Ag 4.757104532400352 7.638334739280697 10.75843863605096
Ag 2.8857841817338774 9.379625392313683 9.683925621249601
Ag 4.081102965659937 4.861898134608117 10.738078189178225
Ag 2.2024955171820313 5.796223988638938 6.4077645587999
Ag 2.483168686158839 6.6882643099048735 9.14947246173968
Ag 2.307956592286885 3.8164701302877666 8.643057950185904
