50
Energy = -108.94382722 eV
Ag 11.597606775592652 4.75254347234371 8.023343238226394
Ag 12.002555794360752 7.800050946659741 7.752394649173341
Ag 10.545301202268687 6.509938689275798 9.910496092807861
Ag 11.605755256784926 5.134765140511631 5.279662498846387
Ag 9.338809392116781 3.8333828701807433 6.281698741495676
Ag 8.972724275049309 4.359318718697953 9.026213125192612
Ag 8.21495261357667 5.779363889869927 11.314942710234028
Ag 9.69746554006511 6.579558948904606 6.977404061277671
Ag 6.931635398358864 2.987459284827933 10.494495281978129
Ag 7.926960280213612 9.078673358189066 11.204678784268392
Ag 6.865783287694981 3.0140895640049363 7.580651296036745
Ag 10.283249790242177 9.23779843332051 9.553554395441083
Ag 9.088144121557086 5.88007941286749 4.225306806334614
Ag 11.164548128316401 7.843118697322714 4.913264577805626
Ag 6.8967762294741535 3.6653112849604046 4.89273030478419
Ag 7.970088687229563 7.511819606482665 8.999563887806627
Ag 6.313792933685504 5.292567685559457 9.22868111509995
Ag 4.306013803919097 4.731296482565144 10.946886660455387
Ag 5.80108857456924 7.194230076352106 11.311964078777429
Ag 7.044539732941806 5.845954216372363 6.61797369589381
Ag 9.802636895525252 9.45582556994023 6.773975722834517
Ag 4.4559781678939565 2.663002866291034 8.892482569590774
Ag 8.264959092865976 7.288029489693945 1.8753658746814728
Ag 7.959352954841615 10.475806330969466 8.634523593866431
Ag 5.567558764578306 9.379304781240876 9.60749777340265
Ag 4.066139787970103 6.936325885667332 9.060215907982757
Ag 4.466674175274413 4.769895014135781 7.0969823587460885
Ag 2.3313445330605376 4.5559716344802155 8.952797958998994
Ag 8.68144703818367 8.902355757876672 4.179514542581473
Ag 4.36028519952433 2.3740856650444573 5.786501914132888
Ag 5.5337243491510195 11.175519371404611 7.447888176282127
Ag 5.198179793252618 2.403658045166832 3.0779525845733193
Ag 7.110897481082318 4.713213118207297 2.320558596025961
Ag 7.017087567793206 8.613854064046429 6.597874998669325
Ag 7.694734793450403 11.090750081368094 5.673317533617813
Ag 4.494579075210269 7.24668057322319 5.922905297971562
Ag 6.543016056090589 7.072120786212552 4.079801365419157
Ag 1.9187481955265 3.90847407125571 6.243841130622766
Ag 3.5444761452225886 9.258236316559094 7.609582326884087
Ag 4.631489668097812 5.06116871459049 3.9021600456893575
Ag 2.034973554311011 6.664125866934659 7.150963023974395
Ag 2.536027932551799 3.3463682348036228 3.5566083255777947
Ag 6.288091004180549 9.320545684139882 2.510368246289059
Ag 5.045548730441487 9.896121687933539 4.968959827905414
Ag 4.7838017521283165 4.076296011065419 0.9549643736628187
Ag 5.495581472831317 6.785384699756979 1.2849566995305088
Ag 1.9582827092073716 6.07134389435066 4.411039829316075
Ag 3.8296297863709667 7.987605278760246 3.144507415041685
Ag 2.1690944891732205 8.760637435600932 5.204730470477196
Ag 2.8005425977276643 5.738776676283021 1.7968646614104826
