54
Energy = -117.90821833 eV
Ag 11.400020357694876 9.91280232172643 5.239756159665342
Ag 10.211703315180587 8.888146592831548 2.7632288198755246
Ag 6.02181577133442 10.97493613351374 4.195029975327707
Ag 8.664822482150969 11.959046746446374 8.997103596082262
Ag 4.670049667202201 8.6079431272725 3.859888579941723
Ag 8.742038087101045 10.59339854419696 4.491698135356258
Ag 7.207686285775517 11.60368217004885 6.620681637539557
Ag 9.52308203913666 9.928715357695122 7.344066571040531
Ag 11.914779768654796 7.179947724366009 4.4445541355268
Ag 11.442238313385237 7.80191694876932 7.13201916467434
Ag 7.369152283024547 8.079138168849877 3.0987319813964906
Ag 6.042356825592236 11.038765465822411 9.048128759326332
Ag 9.346839184357341 7.960713251247757 5.228583782146143
Ag 2.33263405953007 8.688152583636189 5.325815084591643
Ag 4.635311912222787 6.74795376056321 6.089316162942058
Ag 2.678634069943599 6.752171073592133 3.3384768269324687
Ag 9.626912118117602 6.097668048383351 3.1988459143525096
Ag 4.460227926640623 10.22385010749783 6.604273628283803
Ag 5.078284199969358 6.85650857809412 1.7750643980390661
Ag 8.18529636143651 9.346234046647014 9.758577141199213
Ag 6.7453318407043295 8.808583241070245 5.847906171948342
Ag 1.7996841469749416 10.54046847657212 7.3769956912652175
Ag 8.252440393269842 7.301093933908826 7.705671957548118
Ag 10.216338792679583 5.348406112155841 6.079145560971327
Ag 3.56914083163636 9.984006023874823 9.48866256147567
Ag 7.143417439409121 5.192170495501798 2.474839360996156
Ag 7.263498328518677 5.891412536542989 5.290969840212024
Ag 11.772540450032864 5.3474385751797495 8.41540968830381
Ag 10.322128411572457 7.576340627545027 9.637909017284985
Ag 4.6647454650749705 4.775613137194303 3.679278968181046
Ag 8.755544254785336 3.676900756210951 4.29018275381629
Ag 8.67513420218546 3.2350862496338126 7.105438107723148
Ag 7.2624228732419445 6.73212856908339 10.359013016204965
Ag 5.7430928119779665 9.150900746524231 11.132682997228931
Ag 5.603150588726468 8.20342982675788 8.39012052845046
Ag 5.988349427152284 3.295517829278607 5.8141253344244115
Ag 2.613859176277785 7.900509804806906 7.948606302322441
Ag 1.935115854491832 4.117919002958346 3.8910131332558753
Ag 6.425271388785248 2.5571761019245876 3.085615492108462
Ag 1.9236160648072043 5.941742913928292 6.007557240451398
Ag 6.333467463362171 5.212083723519369 7.96836263227999
Ag 9.180888161407026 5.0564130211275815 9.126887589167868
Ag 5.562022893854923 6.68703285908696 12.55027554629863
Ag 2.99758027581234 3.3679910592634963 6.361073794526769
Ag 3.80026648453391 2.086965658465141 3.9713040084329467
Ag 3.3910956719322423 5.276701465902211 8.36518249493514
Ag 7.9968596376639365 1.206938443933645 5.206992711617922
Ag 6.870654379363762 1.1562743772426107 7.730685361163729
Ag 3.8356399950341618 7.2352815575420175 10.392491132172337
Ag 5.154287995087991 4.734602846029904 10.574539465943845
Ag 5.73167934526282 0.07246869992952214 4.167395819118109
Ag 4.402773615116052 0.9294450836876686 6.466751982898581
Ag 7.298769645617172 3.123695123070773 9.65090284286386
Ag 4.719045544304374 2.811225812643045 8.540133388781111
