50
Energy = -109.16084635 eV
Ag 5.462094360931145 7.791332428596994 12.662670983725594
Ag 5.946113894689735 9.799757158595416 10.670193600100625
Ag 6.315941664436302 4.326971190358925 12.56177839670875
Ag 3.695989538771975 8.026121085185588 10.459362532636636
Ag 3.8564693277904962 5.540106625769455 11.783922907825882
Ag 8.704103183063594 5.646142488356629 12.052389141527902
Ag 8.080858804993703 8.29663633971514 11.674546154868699
Ag 3.824149803690784 10.358867795796181 8.903795227549363
Ag 6.4442662040893355 10.948705556087063 7.9318325429277134
Ag 6.283564573446593 6.214517366389468 10.56736106726372
Ag 5.071644741427835 3.517909902646852 10.181912857559603
Ag 5.789271965187618 8.02441717759744 8.450467825321452
Ag 8.796694921006987 6.673509942892761 9.390957717347485
Ag 3.8613464128381847 5.683571521639408 8.905748110521513
Ag 7.981620621352326 3.858594517485531 10.005734322976952
Ag 2.9654480099430462 7.963684732151531 7.6163269194042185
Ag 8.372474231240487 9.500138505872489 9.230320083709753
Ag 8.549490642505111 3.2937056578392747 7.090201422483779
Ag 4.570344075061062 9.758452464200726 6.254785459819894
Ag 4.302969829137288 3.2836938894944 7.419861237913617
Ag 6.516040431851991 5.094167244510124 7.95780521491335
Ag 6.583072122558303 1.9233542725873125 8.49983678518444
Ag 10.240704167813604 8.332504411057375 7.611774135517418
Ag 5.452100909806441 6.7933012452148445 5.954161314128796
Ag 9.120911667692939 10.876099922264594 6.766530236455083
Ag 7.5124751304181245 8.694445411784535 6.316673000623622
Ag 6.818763606515333 11.065284601023153 5.066500086123578
Ag 6.195362320051431 8.0620008360635 1.3004140615388877
Ag 2.863234632446744 5.446766279328391 6.266335055142339
Ag 11.558730338804878 6.549130729454829 5.912569441131507
Ag 8.781175025804924 6.159590045150684 6.636056370244682
Ag 7.019861344581787 4.564137790547902 5.057118715243885
Ag 3.0253772665333987 7.855978270731894 4.76357348394222
Ag 8.425312105563846 2.319606790467917 4.0905317289197365
Ag 6.198732442169291 1.9854489901838568 5.751427616111804
Ag 7.8157757568713615 7.023009400197873 3.9821702853465935
Ag 5.284593519315284 6.006652772009362 3.248801386432617
Ag 9.989866910410957 8.76641778833738 4.87740159972384
Ag 5.46920589856261 8.883547800044433 3.810379194032121
Ag 8.096107633257091 9.563042047601126 2.9483658551851804
Ag 10.118020946651162 4.3514687956256415 4.960643308075541
Ag 4.257954744540555 3.685305522068887 4.617368110896929
Ag 2.4154168593634444 5.435091450764052 3.4545096240397823
Ag 10.67457714975986 6.548863843747844 3.295793993670581
Ag 3.471489074074676 7.602438038520137 1.9388475439504476
Ag 8.845487606003756 7.237641659723192 1.3593255292679145
Ag 8.783247095173925 4.601625477960145 2.4673019381924686
Ag 6.213029874633142 3.3216272683837973 2.6251158318935404
Ag 6.714418978394555 5.380163408333354 0.7610063043697917
Ag 4.010322744625019 4.71067664949582 1.233718847364015
