52
Energy = -113.91313683 eV
Ag 8.051867571896992 2.524625249214706 9.694247078733417
Ag 5.342402733871895 2.0397032040917296 9.293536292152451
Ag 4.392938837001191 1.8592156357062768 6.5577184477999495
Ag 7.174397584152433 1.4552436275000187 7.223570697716734
Ag 6.2882055200000435 4.712758429764733 10.327268415146895
Ag 6.101477345780761 0.8295535383760985 4.632112164591835
Ag 3.3204105790933487 3.637209499357026 8.396854496496282
Ag 2.4686150750257134 3.8774294277811197 5.775795764238299
Ag 3.5552066290560522 5.121390601591624 10.724134908820416
Ag 7.788626633340667 6.911271245246602 11.489875966558207
Ag 9.173701095870896 5.068345336124223 9.836904601896746
Ag 9.011482354976561 3.6885933694149275 7.360817913736726
Ag 1.7881909773117464 5.867516045050289 7.6826657329186805
Ag 4.314772078665411 2.861862317784675 3.9264633521824566
Ag 6.134344481035542 4.08786490403214 7.482174371570902
Ag 7.299083992039555 6.799523587412089 8.573943671936739
Ag 7.629528867036417 3.145010857850176 4.99227053334442
Ag 5.2117718770578225 7.438716195084123 10.823064401657236
Ag 2.252088311673424 4.551480610841616 3.094731794565484
Ag 6.640570044115599 2.433193886003121 2.393578176266151
Ag 4.497892455223678 6.23463631253989 8.331132917754543
Ag 4.793001133691284 5.796593437188333 5.553338265727138
Ag 2.5713637636689435 7.658618660599875 9.83800199052046
Ag 9.67358545674309 7.958878940271384 9.716248291963206
Ag 10.059892488896777 6.278836161058889 7.456262898088843
Ag 10.110237914806548 4.889168302670973 4.983724147703997
Ag 9.029145712261672 3.9373902649592942 2.6036635933341903
Ag 7.216266939597344 9.32730167471705 10.039446143068485
Ag 2.765926198268632 8.449679256965357 7.182068798544905
Ag 4.504357027884472 9.622305172359379 9.201150159222598
Ag 6.47274166018005 5.10874056982556 3.321812788058321
Ag 4.5019826367584805 4.180022028314326 1.4299779672226602
Ag 2.1099075531134925 6.619867648250754 4.9724251753675075
Ag 11.480326327442675 8.626218033613588 7.744898876118954
Ag 7.6476640078989595 5.92244717306518 5.884217721032262
Ag 5.673947357480577 8.348970057860472 6.85322426595159
Ag 4.110112576023886 6.643323969696937 2.8956498676617763
Ag 7.152817623201955 4.639940343919753 0.6437658843262188
Ag 8.456048099328045 8.653052056983274 6.560572528377481
Ag 10.7108336406071 7.62191726769368 5.060120680451272
Ag 9.37838337360664 10.501196910642763 8.43812981433132
Ag 6.619788928175626 11.037060966032694 7.945584859688163
Ag 3.9077538437139694 8.807985595263252 4.6732555903012
Ag 6.5009072347818675 7.850440007907073 4.1419002754524366
Ag 4.083586322053645 10.877980342776711 6.684336349580362
Ag 8.917182147794046 6.718530028661811 3.101642649329864
Ag 6.641775954697701 7.238687196694578 1.4422354790217904
Ag 10.682621527246381 10.327586462210231 5.784235836847277
Ag 8.770702923045807 9.517476048586136 3.8603486959148126
Ag 6.249040489900849 10.491149642142867 4.903724819176558
Ag 8.43972189801211 11.788343199650116 5.974295965477132
Ag 5.916246206937725 12.971323535572088 6.075549908648841
