52
Energy = -112.92115237 eV
Ag 13.158259486224921 6.314870355022744 8.837729798407429
Ag 10.825225950236982 7.863754615226897 8.817785493728694
Ag 10.821756590079131 5.297166246233878 10.092474193695226
Ag 11.977142043508715 7.126026707253267 6.311778780476089
Ag 11.574128850013208 4.538917707473406 7.437982663563487
Ag 8.347903309093514 9.241160815589375 8.62959142720286
Ag 8.426290201055757 4.187636882337688 11.178447561810525
Ag 8.390712172250929 6.668049196272318 9.790835312584534
Ag 9.99198368871267 9.104891344794186 6.292220359706857
Ag 9.345428567972471 6.262327859640476 7.062498539810024
Ag 9.132144146525054 3.6903946576084583 8.498113532129866
Ag 5.834368550800065 10.573282865480683 8.682589756602418
Ag 5.941205023318513 7.785615447255753 8.859031350708042
Ag 9.86407673157892 7.019652973859271 4.361445100777059
Ag 5.858654277700614 3.1569490827697937 12.027197592261336
Ag 5.94787970632455 5.417013967129425 10.47696788853458
Ag 7.761816138382405 10.856730539916557 6.338121527512249
Ag 9.538787691383018 3.863162299395048 5.579627549924338
Ag 6.65256756677688 2.769392779577203 9.440980992975021
Ag 7.318505805878422 8.008916694358067 6.245473205161689
Ag 6.721022977853906 5.241494642284851 7.6551353094472105
Ag 9.113171343292711 4.713638561599297 2.88618422563981
Ag 8.392507291819387 9.42126411927893 3.922512861186498
Ag 7.403185257509034 2.3547159185724515 6.794137716874298
Ag 5.447369793083884 12.46485576146966 6.394515601841297
Ag 7.370143156189984 5.612301434420609 4.915690933164048
Ag 7.730418273205562 7.054596853539646 2.3375531299844416
Ag 4.715395716255739 1.7721012007085395 7.682872676652
Ag 5.6835062001528245 8.181648148976613 3.8468403340186677
Ag 7.258557060580134 2.966194340349891 3.9782471131485853
Ag 5.082588400034068 9.636790201843636 6.207104224900078
Ag 3.881698633840157 3.368940887425806 9.934985208986614
Ag 6.072512930261088 11.10413561295893 3.983460475163576
Ag 5.658369637615909 0.9314469945090418 5.105299025844463
Ag 3.2153548062638695 11.157225380868525 7.5915579019220205
Ag 5.155767396445674 3.7758413377906797 5.733042055610845
Ag 4.691281275592014 6.6147748966319835 5.890279080475901
Ag 4.014668638404846 5.751667747122112 8.489289997580348
Ag 6.6496023034115375 9.674842134752035 1.6747658501708043
Ag 2.622517377764017 3.637617123835137 7.290028564922246
Ag 3.336471148717239 11.341982896359916 4.727972039547198
Ag 3.2893681332197198 8.408099374576866 7.93682876129375
Ag 5.046754084218229 7.461252077746057 1.176563731013711
Ag 3.7480188228143896 9.683053094769456 2.5307661300809876
Ag 5.3027747725269485 5.353312524158363 3.066547464847249
Ag 3.0194014993546934 1.8300116304223102 5.293849246401174
Ag 2.661789127542045 8.649707636033263 5.136622902141757
Ag 2.9710921389377654 6.963297184108656 2.9995725082788867
Ag 4.507095341013679 2.7133900041172434 3.107508791225559
Ag 1.4430840211175469 5.108671489131533 9.228421872653552
Ag 1.9044588191006009 6.31006429631348 6.610826437552549
Ag 2.8147787742621118 4.64327179028851 4.501933619985303
