54
Energy = -116.67096766 eV
Ag 9.32856700010961 6.6974306153061445 8.063772786223275
Ag 9.10308862881478 7.448100009186334 5.37428292994282
Ag 7.922776327138452 9.966231510429976 6.235317618660861
Ag 11.662984453661453 7.636361613908255 4.370520267385161
Ag 6.617797646867771 12.190940546358771 7.29534087563584
Ag 6.760213445392009 4.705447282918149 11.66854277901395
Ag 12.553093571647116 12.673246000342298 11.212155261877351
Ag 7.6414543188495765 7.166616311287626 12.591656594549653
Ag 12.923190127220726 8.386783312119121 13.844958107420018
Ag 5.121661930848168 5.199780477707133 6.91585330447023
Ag 7.961763395210583 13.216796019645646 9.54022283424856
Ag 10.550795153225934 7.4553159312359645 12.7483639037897
Ag 7.098210066098911 11.986911926605027 11.99042800438646
Ag 8.385030038115845 10.366630000453924 9.396290782502922
Ag 13.070362373120867 7.646890819359263 11.223169856514877
Ag 6.852011213576952 7.336342372880931 6.956404295321086
Ag 11.433888569261335 10.9738747534686 9.303017238524161
Ag 5.261021130667772 11.872235053207394 9.837147402604666
Ag 10.396859891426496 8.388461682986343 10.111503884675198
Ag 7.376292091863182 4.8723808598704075 8.958450700792202
Ag 2.7258069235900346 9.704129074674622 4.796025218215165
Ag 14.46198735041195 6.313620351697804 9.02613550676703
Ag 9.81718486888895 12.09802196620915 11.366430975011454
Ag 10.083749528103947 4.013814415138599 8.345457676633444
Ag 12.947236092162667 8.676016470303038 8.622672516253349
Ag 6.060081679675509 2.7931296163413792 7.782218051774235
Ag 11.712062741925386 10.08094422492339 12.025525774209521
Ag 5.024174260486601 6.890218980239213 11.26585226001019
Ag 9.363821517506395 8.711851698051346 2.9768851148133844
Ag 4.211855555866085 11.302540555070701 12.312015495026339
Ag 9.505601888554516 12.012106129246597 7.311806477715562
Ag 3.173349375534443 9.67194601885306 7.509361616616615
Ag 7.414312188153799 7.703396211448716 9.82083249898218
Ag 10.937503025774802 5.447191724867751 6.015159904234308
Ag 3.6670750516668997 9.438149963955496 10.246519258615987
Ag 12.464798153773996 10.014033380600145 3.229860057792194
Ag 10.355703453824306 10.425798878376106 4.934810910699967
Ag 9.314730231243134 5.723123089134453 10.798083873112907
Ag 6.7741842094993086 8.469630213885823 4.169743108233608
Ag 10.397237673591476 9.206346312916988 7.418987847061329
Ag 5.867864109561746 9.591278775104087 8.32986457303713
Ag 4.393029335664534 7.711403790830461 5.781838096914565
Ag 6.106380210966401 9.461971897690933 11.541457586549626
Ag 10.715539242741382 13.70587567147524 9.311846306020794
Ag 4.217197604714992 7.232724687295496 8.595397289937672
Ag 12.858817847482937 9.59333437090909 5.987613994326478
Ag 5.596088008527854 14.353443507108159 8.721723136173773
Ag 11.767317009882193 6.01854052661224 9.382930960411532
Ag 13.331074553634659 6.835876053115864 6.516505584514899
Ag 12.92316987342563 4.262758327920174 7.633380694661621
Ag 5.260841969087781 10.395344524391609 5.593088783080828
Ag 4.711368844333939 4.572094275057866 9.660065713195566
Ag 8.823987762402735 9.65695438193555 12.162021650148557
Ag 8.086169022203542 4.805877533695836 6.279581396470331
