50
Energy = -108.34922457 eV
Ag 7.221255370814925 5.3085249357441056 0.6616773691937466
Ag 7.097764692635905 3.3971378040740614 2.7606397207064037
Ag 8.926624678284432 5.630924612429904 2.842137291320518
Ag 8.726870426673536 3.9624402108126437 5.059278105005576
Ag 10.067929520279439 6.449373581267195 5.292934488680523
Ag 9.56466160784709 8.420803859666988 3.39629185057146
Ag 5.013507485543124 3.627033424798525 0.8081098725536104
Ag 11.713741606875251 8.72543926968992 5.2597010072566235
Ag 12.155780437277404 6.6576037808262125 7.153944104191467
Ag 7.147922288421291 7.676256502644168 2.173149193374146
Ag 10.195001001871509 4.630426211501671 7.475454300606763
Ag 6.2074038309675625 2.8119254097419306 5.40459016355442
Ag 4.254915657268769 3.4676004179474673 3.4770671626812115
Ag 7.980096938152568 2.8742550440116803 7.690858300783776
Ag 5.927383386938543 5.592411160795251 4.247792055934296
Ag 4.7650666580532 6.293317537705803 1.6850393926609821
Ag 7.383530676403232 7.625227787512668 5.305138788326568
Ag 7.153607714538103 10.008409166927164 3.7720535328515004
Ag 6.8761885318418114 5.290394172791901 6.912421803608991
Ag 9.182809006950603 9.651996928833928 5.926193911165325
Ag 10.955872395291182 8.963269264350762 8.061055243852133
Ag 2.5229817054562185 4.686452959245067 1.6839148223188984
Ag 8.874817805509638 7.029232089125183 7.862059238358197
Ag 10.951900662943126 6.502090272264926 9.686662827330425
Ag 4.9312510694491545 8.278008302023146 3.667399683338386
Ag 4.574122445452831 10.875961631961696 4.573241803548317
Ag 3.060144574084118 6.20953743224186 4.013445441662437
Ag 6.891225728015844 8.92275724664413 7.884879904517445
Ag 8.66530993886417 4.803790405784621 9.763647395426732
Ag 6.859526593648904 11.206075400384654 6.300570785789149
Ag 4.085561932039937 4.4903497890153865 6.170915139471174
Ag 8.870814905169333 10.871411248018953 8.424789499418582
Ag 2.7389500321891083 8.780888251023871 5.32809163436702
Ag 5.221680726251098 2.7391661974405066 8.052234326730261
Ag 9.186053647380206 8.720918736910274 10.238962286454049
Ag 4.801657798127666 7.234446571808407 6.62431370541423
Ag 2.5999335114094104 3.733457682752512 8.398390799434123
Ag 6.934127541690156 10.382086976055513 10.364005066507469
Ag 2.0075535334860484 6.2773461218998445 6.617949837995972
Ag 4.404062860519784 10.191628350927127 7.235347138716334
Ag 6.32135880822368 6.500220622239442 9.354097333980617
Ag 9.277290917591527 6.485362480299856 11.935513038953394
Ag 6.891242073806897 2.713585908535959 10.334480143776478
Ag 2.295655927064823 8.659594876833333 8.108093102399295
Ag 6.89362563010789 7.973626749148727 11.743766004102133
Ag 4.536209029361651 4.141957604380094 10.39279603245458
Ag 3.4394946879371915 6.273486512260759 9.010970705171973
Ag 4.703458883250213 8.766483730626181 9.684833477188782
Ag 6.8080610677586355 5.1248742945425 11.851516276883045
Ag 4.438456073504152 6.6648944947545665 11.632048912633673
