52
Energy = -113.56485169 eV
Ag 5.1827103332047795 10.562926271735103 3.371506880224178
Ag 7.144377427217287 9.092861561596846 2.1446804319756723
Ag 9.149494420708377 7.6441566693478835 1.001061640329913
Ag 4.436353360692785 7.726122740764934 2.70308353441683
Ag 2.7845529606304593 6.445914664832314 4.7085126852133765
Ag 6.812675249621578 6.192228537218681 2.0101803870791954
Ag 9.899791574449685 9.43214348026878 3.1357845147909242
Ag 1.5073309190636073 8.194586424479732 6.510965273289875
Ag 3.7768909745536305 9.068590476191162 5.193211541731386
Ag 11.362052501323527 6.941613465707813 2.545653072923903
Ag 5.237460572236961 5.263575326858706 4.159711968945174
Ag 6.352114697016114 7.915955641049793 4.615227056461973
Ag 7.7053861793996585 10.604182636733254 4.525503973994472
Ag 8.833053693443619 6.850217134622037 3.7867095675996763
Ag 9.45914456864891 4.9325865079056905 1.7480968411855005
Ag 4.664461713660881 6.744278960816668 6.892288012827017
Ag 3.6184389054623454 9.551813922268472 7.925231547870497
Ag 3.6029004975489056 4.113349820815426 6.1811209165544305
Ag 1.2253250819000026 5.4418798240731965 6.913499559306988
Ag 11.24201447911992 7.830404853263685 5.13937673065335
Ag 7.802622580512215 4.0170536212307075 3.7516373659724276
Ag 5.297175153876192 11.375357572418105 6.080274501762945
Ag 10.314162435301418 10.601261270117757 5.682234152065884
Ag 1.5064751298065269 2.6522500103202615 7.24240709016484
Ag 6.140405040934658 2.997317138893709 5.811567289646777
Ag 8.692064906220043 8.325105835876903 6.195692495560475
Ag 2.754586456468348 4.328825439974224 8.987953775263282
Ag 10.55947595500585 4.8062072584980875 4.458148997001402
Ag 7.364546122794113 5.635797290305168 6.055643808509538
Ag 6.2346109933892855 9.028856304667485 7.164526904402591
Ag 4.312320293968244 2.0618060097408084 8.011323413998142
Ag 2.4647581738717035 7.127894736624995 8.889839726289518
Ag 10.472898195380667 11.409951248238022 8.371455471175569
Ag 8.986724146332827 3.3072127267086775 6.267338027264831
Ag 5.740285225705604 4.479986753818671 8.257452139348171
Ag 5.986529707924203 10.801412684438011 9.138802704392798
Ag 10.983929660189546 8.703993486282377 7.804100080255525
Ag 3.5280704651702064 5.896816300573094 11.131598473645719
Ag 7.222082677755462 1.9286477038089311 8.126539371063147
Ag 10.107326874384787 5.9730474897631645 7.010635178857139
Ag 7.9687443091142445 11.431763465357955 7.161055067561734
Ag 7.344076272287296 6.8601854176724855 8.534093885834125
Ag 4.5322164413050094 3.1839590262920487 10.720940616015616
Ag 8.636349213920589 4.377975326534716 8.840798846783617
Ag 5.6934095999939105 0.719619061682539 10.10506166108233
Ag 5.059190994747371 7.920825723336797 9.812889501033133
Ag 6.185374133827285 5.459431407828982 10.950404092668201
Ag 8.536972552191482 9.443047987232669 9.064200441569742
Ag 7.328333869189583 2.8575753403989492 10.847218718662123
Ag 9.920643000227667 6.916300518571607 9.685412000884103
Ag 7.600345775257342 7.797913426256741 11.168263588609785
Ag 8.8640972292583 5.124614454643505 11.52794885312994
