54
Energy = -119.09261176 eV
Ag 9.617903439491123 3.6221956777269226 3.5860540752061367
Ag 11.722411651634655 8.22945037993573 7.607295731450673
Ag 10.466883023070853 5.172978134281285 5.856593680375477
Ag 9.999615840449305 6.325802807866466 3.2367604846373346
Ag 11.731489257376778 7.643705245227506 4.912919032493783
Ag 7.706081153614445 5.030238332722252 2.026590908127406
Ag 8.630800417713964 7.577099288541101 1.1766971899814342
Ag 6.878120661619342 3.0028697046508426 3.7975076926893774
Ag 8.652561382761121 2.9947188076368643 6.080354154252585
Ag 9.988627277676603 3.8978512347689724 8.392296729291616
Ag 10.317730147669147 9.099880288721163 2.910976161041389
Ag 7.620609510478701 5.717469748557942 4.760290178958397
Ag 6.499929398758452 1.2359310735308089 6.035392740220025
Ag 4.913260142129716 5.184320505411802 3.72642234227378
Ag 9.75041612094148 6.83603709561292 9.072267955090958
Ag 9.259324658626458 7.622972268382462 6.35150288368112
Ag 10.433365732817446 10.07945491971694 5.616344607824049
Ag 5.947821419340536 7.152135303819133 1.8241060227072483
Ag 7.8027186267205915 8.428053897039396 4.008551897584684
Ag 7.033751537106989 9.808057026142384 1.6701408877942854
Ag 8.142737309139704 4.701480630855403 10.361807891223823
Ag 7.1638343687959445 2.7045644337160466 8.49582035228968
Ag 9.537094850839065 9.745196164254702 8.346794632398824
Ag 5.787872927058347 4.0257967507212795 6.194848695855993
Ag 7.859479263973679 5.363611366817007 7.558110169250636
Ag 3.9617234167889697 6.206556672907207 6.510406220587584
Ag 8.58578407970343 11.1443239678693 3.702779880186261
Ag 2.3979857985509727 4.373315048960249 4.888861357984658
Ag 4.255080475984926 2.318934888377118 4.593027889389912
Ag 2.41612841318187 7.117054765178367 4.226365782028265
Ag 7.061409378538359 6.636667558137544 12.22259449749065
Ag 1.8388160890250558 1.8842431556709283 5.9504775946354584
Ag 4.224056419026114 2.0209865611656976 7.465596656358789
Ag 5.708963755428433 4.26327059870852 11.620100542630787
Ag 6.801327004454585 7.040924930186455 9.511721819813669
Ag 4.2517201975287415 9.315065384670213 2.080157458101036
Ag 5.060614554137636 4.791549589957325 8.780513890840446
Ag 5.793907693250244 10.707934085137158 4.055972835667482
Ag 7.674505923788171 10.377046655038736 6.2272812210861215
Ag 5.025776129719778 7.952334763939626 4.394153314498764
Ag 6.476450553648027 7.647587784243173 6.735864136841583
Ag 0.9773004628527543 6.1247391514571925 6.492954420381116
Ag 8.58827601590367 8.782434890003469 10.79896249398076
Ag 4.963298077677487 2.1301115468701197 10.09747939954204
Ag 6.786117560334885 9.830707663304405 8.775607606107481
Ag 2.2149203798467214 3.9377646223823226 7.763264829281542
Ag 4.867359492458494 9.969260702430189 6.5927321562494035
Ag 4.30009161167617 6.599126142793453 11.035680049687945
Ag 2.992894517954804 9.953884720340826 4.496927832241261
Ag 2.363263897503018 6.46217748672208 8.95027397238677
Ag 5.747261115906106 8.981192447327812 11.262498363388971
Ag 2.9894017434779565 4.112117127274372 10.478688138460033
Ag 2.3755896514204675 8.540797525136538 6.847423413979795
Ag 4.379442287017422 8.317790851761407 8.789770862267558
