53
Energy = -116.22567134 eV
Ag 4.640381780537083 2.847672912528894 2.4405685944632944
Ag 4.901529397627672 0.7909424592145187 4.391499410440218
Ag 7.1417691980610645 1.7161933450040456 3.1325426513811476
Ag 2.507108702324136 2.161624955916203 4.584410458856455
Ag 4.397727922280008 5.6347771559624125 1.3498320777381874
Ag 6.965750861602004 4.2164313271186264 1.7933476541341902
Ag 6.925348761092125 6.875296519718011 0.8558510055748719
Ag 4.8859837321176425 3.56387917462211 5.303276145422058
Ag 4.016609804006376 1.4507844785112707 6.989038251902821
Ag 6.887332286729576 1.769600946266423 6.188333326145017
Ag 0.9726985453564022 5.835583220468852 4.994957380645324
Ag 2.7648158717423863 4.5876808123054085 3.365457830272764
Ag 5.183522093226315 8.447355920566046 2.276957302340255
Ag 2.339564976984662 3.7966419699267697 6.878358715688545
Ag 7.730404103426493 3.968327023742087 4.578510918426306
Ag 8.555176818517433 6.254648913996596 3.0077454088731406
Ag 5.697030392665434 5.920528216052993 3.755401668323764
Ag 2.795315228277807 7.314942716336447 3.1868854989763165
Ag 8.010606289161732 8.942700331505684 2.5125616589048514
Ag 1.3922967927610703 6.484790997978885 7.682837343225573
Ag 3.7432720544433837 5.506231654205208 8.73844524458432
Ag 5.595334901474477 3.415000039076097 8.152560806825392
Ag 6.484089004909135 5.75563577764453 6.438220786025907
Ag 8.415389812642822 3.828456355975719 7.466673246564305
Ag 2.0517860362792955 8.441330436507652 5.677319693418473
Ag 3.6203657008386254 5.998027791731763 5.925063318942586
Ag 3.3598096412238476 10.029007279491504 3.7648736628278767
Ag 4.918408377360273 4.1975943210027955 10.85374210668679
Ag 4.953304742474086 8.238221732040568 5.247419758125298
Ag 9.59381004420218 5.780835360613323 5.478800079306412
Ag 11.245455558491384 4.525304905676831 7.23451262198639
Ag 7.5776804379179055 3.4884710483638983 10.301563794366178
Ag 10.198832849706044 3.7389057183383207 9.675160615375779
Ag 3.581921733404948 8.26436664794432 8.027085709581453
Ag 6.560073058491722 5.858200673334845 9.285690963520377
Ag 10.338171408167117 8.27150403902699 4.396601602778241
Ag 7.730003438016182 8.057634706139126 5.209623454112738
Ag 8.910390844058284 6.716561994317107 8.023785811806842
Ag 4.28426645404181 10.571927066601775 6.553421031904259
Ag 8.8778978291961 10.688078024211759 4.6452175121298245
Ag 6.1536786219631505 10.437454855456608 4.111621101732472
Ag 4.726332959853228 7.638775450248511 10.446641045312862
Ag 11.395135761846419 7.4507679798628885 6.925116846616841
Ag 6.470505982204984 8.240913811224013 7.758107669517012
Ag 6.584142380830628 6.1081134037778 12.067548272089228
Ag 9.07879117346733 6.053595441679098 10.860000591893913
Ag 11.46131422398832 6.225618203148487 9.443393468750896
Ag 7.045985318216126 10.893524400443615 6.78806136500636
Ag 9.619380434750243 9.566616820895678 7.052340096372974
Ag 5.4207035942360005 10.261225735554566 9.212229712697757
Ag 7.43339895810435 8.381738368943727 10.56699946010651
Ag 10.121036764697577 8.632872514559912 9.680341102759995
Ag 8.240699806729582 10.673630968291713 9.25516660784793
