6
Energy = -9.89599744 eV
Ag 7.201445794233824 8.451032163339764 8.533699050271784
Ag 10.857964930328748 8.451032163339763 7.629604354670245
Ag 6.896879579077729 6.51938647411035 7.404846174701806
Ag 8.536921756389535 7.81707553557863 7.465114491272698
Ag 7.61747765904301 9.69063706797745 10.33714929790691
Ag 8.918861280927276 9.100387595654041 8.6591376311768
