6
Energy = -9.58858226 eV
Ag 6.530752225953195 8.924440585320658 6.325897335993018
Ag 8.803807 7.269098650231989 6.325864164872923
Ag 7.93988416473273 4.595466461948177 6.325521548123557
Ag 6.530752225953195 6.530942546038053 7.555844593733068
Ag 5.12162028717366 4.595466461948177 6.325521548123557
Ag 4.257697451906389 7.269098650231989 6.325864164872923
