6
Energy = -8.30151749 eV
Ag 9.264101984613186 11.873777815451529 8.563055795091607
Ag 8.231113215211556 9.57722866072814 7.96706753525632
Ag 8.626760872811943 7.46564557262798 6.210094015412365
Ag 8.465633842259859 4.770293295848879 10.119886955079224
Ag 7.76558513940226 6.843372153911251 8.740545319234151
Ag 6.144906687673447 8.111111339491437 6.787106730907656
