6
Energy = -8.45528152 eV
Ag 6.849064379771023 5.177982812178797 8.133012684275311
Ag 8.693955719320922 6.924015239925503 7.042566562390051
Ag 5.496622574187307 5.169154367471166 5.782271633671639
Ag 7.327698371004051 6.9375705230613285 4.700128989690058
Ag 4.862497027162425 6.979384212934902 7.697309008929073
Ag 6.709445101804248 8.736508642720283 6.633416923966395
