6
Energy = -8.70737231 eV
Ag 8.72360954825459 6.732829717148398 7.223635132904871
Ag 9.524025102517735 5.271546862411049 5.089703290377695
Ag 6.870657837598817 5.406822476044817 5.705092464145627
Ag 6.109332582707929 7.455283774719131 7.460089554804849
Ag 3.4938893259352453 8.221264619568892 7.478723099542153
Ag 4.231301350221264 5.985475277738734 6.129548183542279
