6
Energy = -9.81863222 eV
Ag 6.544205073715097 8.143146773732761 6.544205073715097
Ag 9.228226 8.092806339751695 6.544205073715097
Ag 7.936287761567311 5.743077115733114 6.544205073715097
Ag 6.544205073715097 3.4503167575878098 6.544205073715097
Ag 5.152122385862884 5.743077115733114 6.544205073715097
Ag 3.8601841474301954 8.092806339751695 6.544205073715097
