6
Energy = -8.79875795 eV
Ag 4.858448693284369 9.233565393299195 6.859092349875738
Ag 5.380792082561497 6.681457586397695 6.401597685514114
Ag 7.480128973311779 8.491381523720886 6.931318761461513
Ag 6.960626176170898 4.783835629126404 5.190184841246348
Ag 6.4715691777604745 4.597172528402205 7.752747401554604
Ag 8.79168230945442 6.182350350391073 6.82613002072926
