6
Energy = -8.2338617 eV
Ag 7.6596369407379665 5.553233198510741 8.126900074054072
Ag 11.640630722504469 12.03140275901385 7.821262285273948
Ag 9.841148275347539 10.164150757105489 7.864885735008507
Ag 5.166124380569513 4.53105199053004 8.57365795035945
Ag 8.085715592424767 8.177298378897197 7.447950963378229
Ag 5.609360862965183 7.1761259302501 8.060342700589825
