7
Energy = -11.16382138 eV
Ag 8.612080212219757 6.673341588629881 6.293088021367086
Ag 9.811570706526956 9.094093096809571 6.405041664679677
Ag 7.268437893268522 4.311771559900917 6.22854936837119
Ag 4.70266703754914 8.685917378964342 8.048968764494454
Ag 7.26547017310521 8.878319396443217 7.270856567478517
Ag 5.880627564579828 6.47642820384322 7.105762866073348
Ag 4.641071923962334 4.054012950408631 6.821707603918037
