7
Energy = -11.18564162 eV
Ag 6.693682577616943 8.623391781840091 11.105815224577876
Ag 9.847305505860298 7.422001774258351 8.164629175870973
Ag 8.052170053088357 9.449736046507105 8.961797712267625
Ag 7.36034385190063 6.774689236896203 9.21552330425482
Ag 10.766247721176313 9.960704305946498 8.841633056737528
Ag 7.561072035494548 7.579457457010373 6.586617642771629
Ag 9.284127322948013 9.721451207064865 6.534993627607673
