7
Energy = -10.67988505 eV
Ag 7.061695240842174 11.968423152181618 7.016461285687905
Ag 7.018246257108386 9.365760804303328 7.861758861054501
Ag 7.11225292460796 4.303447747538191 9.918925098331467
Ag 7.039825182621552 6.851880936299459 8.880228810032943
Ag 9.169280497092219 7.7283324802244175 7.316845622165634
Ag 9.110001966357006 5.176003905299863 8.358878874340318
Ag 9.059395222316034 10.314005934895366 6.3308443905032386
