7
Energy = -11.27164771 eV
Ag 8.323269203328538 5.916666807265677 6.533696669771575
Ag 6.218723073142514 7.608302270477358 5.172212512365445
Ag 6.21343773241833 4.790982318898085 5.180757402495005
Ag 4.184066606746913 6.363190852348941 6.533696669771575
Ag 6.21343773241833 4.790982318898085 7.886635937048144
Ag 6.218723073142514 7.608302270477358 7.895180827177708
Ag 8.364219267203762 8.657449850035153 6.533696669771575
