7
Energy = -11.64749333 eV
Ag 6.703581064616703 8.370525722743425 6.708502833847201
Ag 7.879058397385676 9.996077823107665 7.32261179361855
Ag 7.3430801452408865 6.251813905116176 7.896040941611643
Ag 8.864570634848759 7.887262920027299 7.3962045341788745
Ag 7.393258716834297 8.370525722743425 8.861574630039195
Ag 9.5583126457217 9.198400712909205 8.89266090012072
Ag 8.905033409778035 7.083003178926933 9.5692963810098
