7
Energy = -11.32889944 eV
Ag 9.01478449051647 6.971165641241256 6.576086334607689
Ag 7.1770358676925925 7.107172228100299 4.530770929196054
Ag 7.451742075217753 4.953237837614718 7.566992043070293
Ag 5.522348118182992 5.147436716319955 5.577364014254806
Ag 6.351794205781481 7.476892667729546 7.172433116697836
Ag 4.818707763184889 5.419564775207734 8.207290425439291
Ag 4.546302943439644 7.682818705397406 5.106838411369957
