7
Energy = -11.15148346 eV
Ag 11.293613523003609 7.149458321322162 7.671089956749196
Ag 9.44909598310964 7.627598601682784 9.618975259717047
Ag 9.446270049797715 9.00095365149835 7.176578880643519
Ag 7.056089401090957 6.6005237836216075 10.418023772913886
Ag 8.80648274147839 10.369892834095763 9.558403070525884
Ag 6.975487192108511 8.476587218854982 8.536637672095955
Ag 7.390856845588513 10.78779140126462 7.164517971774699
