7
Energy = -10.15238789 eV
Ag 6.752538520352704 8.016789369691457 6.656863050875273
Ag 8.359689101964594 8.443663864215624 10.637800314734834
Ag 8.9722257271297 7.560061535726182 8.153843837383192
Ag 9.97239462403164 10.190572683629135 9.446818250673328
Ag 10.935314213023434 7.570060477396448 10.079761724026937
Ag 7.3610046142495005 9.927853158718584 8.529149146009154
Ag 5.571846087097875 7.626574734480894 4.341711202195473
