7
Energy = -11.6093847 eV
Ag 6.536383138274156 8.90840017002082 6.536383138274156
Ag 8.789358000000002 7.268123530260196 6.536383138274156
Ag 7.932687438646472 4.61846991172572 6.536383138274156
Ag 6.536383138274156 6.536547456963034 8.021657340282555
Ag 6.536383138274156 6.536547456963034 5.051108936265757
Ag 5.140078837901841 4.61846991172572 6.536383138274156
Ag 4.283408276548314 7.268123530260196 6.536383138274156
