7
Energy = -11.17069938 eV
Ag 6.548371687662053 6.548371687662053 6.548371687662053
Ag 6.548371687662053 6.548371687662053 3.8313843753241055
Ag 6.548371687662053 8.92519726005567 7.964736000183192
Ag 6.548371687662053 6.548371687662053 9.265358999999998
Ag 6.548371687662053 4.171546115268436 5.132007375140916
Ag 6.548371687662053 4.171546115268436 7.964736000183192
Ag 6.548371687662053 8.92519726005567 5.132007375140916
