7
Energy = -10.88754006 eV
Ag 6.164993628501354 8.855332060926758 8.072640502276219
Ag 8.285194220222369 7.11573265980268 8.161458486261509
Ag 8.00600497913087 9.064814081069258 10.055584551390458
Ag 6.310023410069818 6.823348578464684 6.280492202186428
Ag 8.616468922204204 5.236827814330249 6.240063905909186
Ag 4.25131883997045 6.301033550780411 4.631709672215194
Ag 6.436864935622545 4.706296611368464 4.615672452332917
