8
Energy = -13.49975494 eV
Ag 7.862359061104424 7.506134697856101 5.189076332294355
Ag 6.183267493942941 9.055885484763467 6.745369981552195
Ag 5.216719247727034 6.844151082470686 5.4714349225701735
Ag 7.300298527826721 6.798240885128886 7.932476726972963
Ag 4.425936475708217 4.333944292388229 6.131435036991075
Ag 5.822197617024029 8.449545238039757 9.403627329890409
Ag 7.049328306200846 4.805569627782631 6.037442098053301
Ag 9.5009943073804 5.7544394344225305 6.666885401490159
