8
Energy = -13.3993349 eV
Ag 7.0615561404519696 7.5013267182291825 4.544695201144527
Ag 9.91377760207207 7.6597196787804185 7.7969663264323605
Ag 8.040914862124188 6.002169421788986 6.624239683950634
Ag 7.66171964776037 8.812551628462183 6.837342048589143
Ag 6.838418523394827 4.445683984451766 8.446893093828118
Ag 6.024702670433477 7.013078009834162 8.430552798989893
Ag 5.054427920170732 8.398143188646854 6.270601132735209
Ag 7.964041698493891 8.652086506508647 9.509393582983448
