8
Energy = -14.05190235 eV
Ag 7.531852238551438 7.531852238551438 7.531852238551438
Ag 5.518416257085321 5.518416257085321 7.531852238551438
Ag 7.531852238551438 5.518416257085321 5.518416257085321
Ag 5.518416257085321 7.531852238551438 5.518416257085321
Ag 8.142379 4.907889495636761 8.142379
Ag 8.142379 8.142379 4.907889495636761
Ag 4.907889495636761 8.142379 8.142379
Ag 4.907889495636761 4.907889495636761 4.907889495636761
