8
Energy = -13.29006229 eV
Ag 8.9356812088038 6.944119316032205 8.199042588481388
Ag 6.75927571854687 5.3172954625064754 8.323667601924074
Ag 7.692944500708767 9.239383528447293 7.032556693972889
Ag 4.252485309490574 4.327065450085452 8.460272308362336
Ag 5.276581935604825 4.926634336022303 6.038535028584967
Ag 6.270036932648152 8.890172260588622 4.780571813976801
Ag 7.392667933331514 6.716920673585113 6.008025730037038
Ag 6.009110904837048 6.221430480815716 3.7550387971722863
