8
Energy = -13.1452959 eV
Ag 7.537532156989937 4.971681694974666 6.966804098039284
Ag 4.8426186301282295 4.8379539119124795 6.971036848485635
Ag 8.290354501492603 6.987453073507576 5.317527972823116
Ag 5.589098516327754 6.827312621756592 5.294248253738747
Ag 6.353857350064318 8.882448169678016 6.888571324889673
Ag 5.556783838253123 6.911286251060163 8.557694299715891
Ag 9.05450226806962 9.024362087587264 6.927770264914609
Ag 8.264453768473203 7.029001297614143 8.567068699805752
