8
Energy = -14.1129879 eV
Ag 6.8577986244457225 7.505213248313826 10.55643704189734
Ag 9.188508878584404 8.785497934264674 6.893303240618651
Ag 8.570222915679539 11.079164971992732 8.29748109262813
Ag 8.123111694604145 6.566170985881709 8.297481092628129
Ag 6.930607096729904 7.513919143680676 5.986106978885293
Ag 6.724355268054864 9.032562317679833 8.280057098969893
Ag 9.144054626645005 8.778775576383142 9.726466686057543
Ag 10.82159589525626 7.098951821803177 8.322923768315306
