8
Energy = -13.43061723 eV
Ag 7.348846470643659 6.9320208384795 9.039307815582562
Ag 7.87126582663094 5.589660546092659 6.771048207200861
Ag 5.580916675122556 5.024438733917285 8.074520995056192
Ag 8.945482537402407 7.621677833436013 5.326529601334508
Ag 7.293924184441584 5.683867536989195 4.1073246718845535
Ag 6.965409761846436 8.62629892903893 6.8380199755787725
Ag 5.308374362379669 6.574032818429977 5.69052648388193
Ag 4.676508801724353 7.786513866125094 8.007674116728456
