8
Energy = -13.50258608 eV
Ag 7.421399514111179 9.153387830943375 8.841483564580319
Ag 6.625584744364859 6.681371535789417 8.112310226402684
Ag 7.236671986341002 4.070405113455815 7.5821763577663175
Ag 7.376522131723168 8.549921172754138 6.2320890652778855
Ag 4.546511151770415 5.023073322998859 7.4537562087125
Ag 7.085068559575122 7.349361662825824 3.797750414864791
Ag 5.123000032721945 6.923402271507845 5.66297790728741
Ag 8.19564597536039 5.875265050712721 5.840741407800066
