8
Energy = -13.90594243 eV
Ag 4.8527279658183184 4.70400859982557 7.609224335872001
Ag 9.348976759795452 6.3807952112472845 5.144650245751655
Ag 7.110086806655929 5.497596071361991 6.364889593044449
Ag 6.442637724546341 6.5873281734067275 8.89773848468228
Ag 8.723782731064112 7.420977453957964 7.648152369251441
Ag 4.8489161331401025 7.195593227029556 6.36722847064486
Ag 7.131297712359198 8.048880698714134 5.131166919004668
Ag 6.469779173207749 9.066803691486086 7.63965253882858
