8
Energy = -13.34969648 eV
Ag 9.370797874717557 6.798348899850049 8.876755509957464
Ag 7.424583795113158 5.152080233259728 8.074874360747222
Ag 7.844682257935212 7.5874723717479124 6.806521033517792
Ag 7.855263241362946 9.576731101447567 4.995933788658136
Ag 5.682997787854712 3.1897070832968426 7.578903851119403
Ag 5.282149407494085 5.55272856895314 6.347364434532952
Ag 5.710335286911353 7.990267922985162 5.072143372855148
Ag 3.3861917869051736 6.697364354703815 4.812910041417591
