9
Energy = -14.06794639 eV
Ag 8.049252199854179 5.493216515079424 9.893212913116459
Ag 7.8303658510844745 4.351305671528271 7.510889900550093
Ag 6.825513480474433 7.708193214235782 9.101596475356304
Ag 7.670021363981326 3.371629765018678 5.05056353621538
Ag 6.610531609680989 6.612398571694233 6.6270692554231605
Ag 5.520531849908481 9.835654497819966 8.202425215555326
Ag 6.473963429179744 5.550497078713961 4.1311859830329345
Ag 5.339869226989207 8.84751143094887 5.7489682588595405
Ag 5.203254050585266 7.7427228108924115 3.3419062227907617
