9
Energy = -14.95795821 eV
Ag 5.481502773483411 9.498764801572323 7.852874948475855
Ag 6.364057255654276 8.633623720732496 5.438054359772357
Ag 7.531191832409791 7.632103264497137 3.2033465566399895
Ag 7.163950271954822 8.776194260584708 9.971237343582262
Ag 6.77108439958057 7.131171409771264 7.807013570775936
Ag 7.008710440073426 5.9566337349792615 5.229592884168233
Ag 9.0692678624371 6.901534601433943 9.40595741004065
Ag 8.405881250617798 4.986052028138689 7.596858038345469
Ag 5.704925795456438 4.552011632605703 7.129021247899773
