9
Energy = -15.24962586 eV
Ag 5.689519058912435 5.521098625945373 5.823413508877536
Ag 5.732066206896786 7.735868770148053 4.1898750896137615
Ag 7.5102619243407425 5.5566036112942685 7.938022191663377
Ag 9.92019223359957 6.808077158089455 7.4355354992706255
Ag 5.639162434403397 3.605450293131674 7.789139235052485
Ag 7.872246483644886 7.323848331504443 5.736360423008347
Ag 5.294434624312572 7.279319025650116 7.990313506339753
Ag 7.778420798761157 8.387841659076946 8.334207786230603
Ag 6.114120271778583 9.439262398487957 6.392006163486138
