9
Energy = -14.66605647 eV
Ag 5.9790445900417195 7.585453997569694 2.547486243649488
Ag 6.5947574626640755 5.756190732398467 4.43978445943329
Ag 8.912575211470296 5.18136918542935 5.974168670148502
Ag 6.598395592735928 3.713993466312457 6.3047727707396115
Ag 5.600560917989714 6.0982476107161885 7.081877260748695
Ag 7.806194066944666 5.231662211934446 8.519116603693282
Ag 4.943101323667588 7.867832061432167 5.034755844948269
Ag 4.495152610105572 8.488123247303447 7.656562720038694
Ag 6.191801337946389 7.107761611037427 9.557107424689162
