9
Energy = -15.56847606 eV
Ag 8.582999029181423 4.619849279355563 6.893291617093091
Ag 8.187171302764233 7.0294656223688206 5.456735364919456
Ag 8.620619786886174 7.154752966776042 8.285998856772903
Ag 6.5921218233723 4.803876710809677 4.930503214956487
Ag 6.7097039486362 8.776652837880345 7.052096284352509
Ag 4.076597691694369 5.1755633705503215 6.102060952143992
Ag 6.257813209088699 5.9706186624512405 7.553017075388538
Ag 5.498017306624495 7.37441708627947 4.966239648655786
Ag 4.136941546194658 7.756756489055024 7.422009224675634
