9
Energy = -15.07594775 eV
Ag 8.3502076120898 6.7662033757360796 5.680293027946948
Ag 8.790291207041776 9.055049188629436 7.155253631842476
Ag 8.0954642894186 4.528457757177029 4.199536285155569
Ag 7.2733808452518565 6.833982443348306 8.256697333855003
Ag 6.851376652906631 4.608459664888868 6.577430143395026
Ag 6.261695153990806 8.5547578011137 6.251854491756442
Ag 5.5553690531250695 4.611553667929009 8.996846963512942
Ag 4.756341014392804 6.397402703142952 7.081045198330196
Ag 3.7885728632819995 8.132813110402063 5.273323030789618
