9
Energy = -15.55233484 eV
Ag 6.439355594143793 3.4148926283887358 6.439867927349029
Ag 6.439679619460627 5.154820806931403 8.70783906826935
Ag 4.966346713755555 5.844684152928099 6.439867927349029
Ag 7.91320665573415 5.844179508155047 6.439867927349029
Ag 6.439679619460627 5.154820806931403 4.17189678642871
Ag 6.440069321418596 7.7952943656342315 5.003241397144428
Ag 8.731528016087607 8.477087937847294 6.439867927349029
Ag 6.440069321418596 7.7952943656342315 7.876494457553632
Ag 4.148876484661711 8.477736773690676 6.439867927349029
