9
Energy = -14.80437221 eV
Ag 7.178709445229827 5.792222694059823 3.6575886325663047
Ag 7.807940020378282 8.179159688033607 5.042503421107967
Ag 8.867032414967124 6.341269826996599 8.770375777585002
Ag 7.99450210633079 5.722008191541646 6.264735578261423
Ag 6.105215293703442 9.102683951292596 6.886436155262655
Ag 6.788563064768987 4.0798529329168955 8.052464020108756
Ag 5.417808678474776 6.591972951637792 5.621138019830869
Ag 6.232247451013181 6.728838968997471 8.288895729300805
Ag 3.768610600045412 7.629660810814703 7.575883728912856
