9
Energy = -15.18949403 eV
Ag 8.075941035475058 7.875304656304159 6.098274986273712
Ag 6.271129263205528 9.35461013275002 7.5670380952720855
Ag 6.928828126912976 4.768538811270915 7.541284251514268
Ag 8.330345696972374 10.599251368335812 6.265048737350072
Ag 5.426328911687477 6.925616121653542 6.508907760460163
Ag 7.159234333892665 5.568015953324458 4.891506110856816
Ag 7.500918766809361 7.197771795713202 8.818234199747401
Ag 9.452734073141833 5.875339309929723 7.419663255210673
Ag 5.0280983974401625 6.006858562598891 9.077135615540445
