19
Energy = -56.00988361 eV
Al 9.143454503325218 6.585671631625822 9.044602267644512
Al 9.143454503325218 6.585671631625822 4.126740995607132
Al 6.617181040954441 6.585671631625822 5.356179060668323
Al 5.792552915868631 4.272159167926068 6.585671631625822
Al 7.297217853245058 4.268346663982465 4.1360755875671975
Al 7.297217853245058 8.902996599269182 9.035267675684446
Al 6.6270290142981425 6.585671631625822 10.362896399999997
Al 8.571691034430147 8.047953837956538 6.585671631625822
Al 6.617181040954441 6.585671631625822 7.815164202583321
Al 7.297217853245058 4.268346663982465 9.035267675684446
Al 8.571691034430147 5.123389425295106 6.585671631625822
Al 4.1207047383141555 6.585671631625822 6.585671631625822
Al 5.792552915868631 8.899184095325579 6.585671631625822
Al 4.578591957960807 5.206450970018108 9.013637128058619
Al 4.578591957960807 7.964892293233537 9.013637128058619
Al 7.297217853245058 8.902996599269182 4.1360755875671975
Al 6.6270290142981425 6.585671631625822 2.8084468632516453
Al 4.578591957960807 7.964892293233537 4.157706135193028
Al 4.578591957960807 5.206450970018108 4.157706135193028
