14
Energy = -39.35375535 eV
Al 5.68310005758881 7.978419495479349 9.294276258377248
Al 8.105446403280139 7.952254312413928 7.50401221634183
Al 7.461003842627259 5.879767772324744 8.862856624259537
Al 5.785452548761733 9.632165350674187 7.2724342558327475
Al 6.994200798132908 8.6173116141954 5.176814162509559
Al 7.832382208285287 5.6625847558214355 5.985954738646361
Al 8.318102771691239 6.985588523044067 3.643428058743955
Al 6.083976133957099 3.7793029724983236 4.992176997334044
Al 5.54411910459701 6.950685167557764 6.787171048068181
Al 4.2791455974954875 5.738426599048826 8.776744743282883
Al 5.561368435415469 6.383488596288046 4.240614425136205
Al 6.162181904972662 4.150382107343867 7.539230009308672
Al 7.617021886370012 4.581676905741745 3.1006009458278525
Al 3.86165706730365 4.979298888528986 6.0718621584958195
