10
Energy = -26.41846021 eV
Al 8.920784973766661 7.157958606502562 4.911189159394406
Al 9.307806042086991 6.465360140469953 7.3262747385020335
Al 6.764877250295955 7.756737482408015 6.70747038623441
Al 6.532071446085193 6.77017805979868 4.098665106816546
Al 4.940258355032225 7.19665122308843 8.498786802294607
Al 7.315754038963978 6.045224602863499 8.839354227791828
Al 4.204295045817106 7.906964612999553 4.23823052438363
Al 5.2788334520125995 4.515444985432751 8.090869852543852
Al 4.624962454196681 6.102108634879687 6.0578876001434026
Al 7.115951523278469 5.088966233091963 6.236866183430377
