16
Energy = -44.67021767 eV
Al 7.336028609786889 4.839736138245314 6.028167154491497
Al 7.762145552490788 3.6232079944421516 8.499664442964482
Al 9.368986312557922 6.398608843563537 5.440888811307864
Al 6.15740300682124 5.901317852820481 8.454038241814404
Al 4.608869456058987 7.97641064660887 7.521324758446911
Al 8.456288840823298 9.547263076333433 4.93338411308132
Al 6.9385357712030595 7.566818020005845 6.1576888542461585
Al 7.278050918822063 8.200001561234036 8.990358267992349
Al 6.929007098199932 10.176552283096694 6.957076300460812
Al 4.878728219802233 5.873721247412313 5.846871544719312
Al 5.32329091047691 3.5804546894792764 7.472317884521868
Al 5.395891091954345 10.018706767517433 9.087543695651407
Al 3.4310580390512944 5.5658079542928744 8.145424013598946
Al 10.846624823110792 8.521095183844771 5.005755063973144
Al 9.325952625039585 8.483228168442027 7.298852249106699
Al 8.79167773335935 6.036650733309945 8.134850251664554
