13
Energy = -36.25348532 eV
Al 6.144641589143844 6.763938465823919 6.2153593678987376
Al 5.032705596301544 6.406858675319517 3.7037915141485964
Al 7.425268689297718 7.530903554995044 3.890334256748281
Al 6.609260112525328 8.553309343975297 8.277105019890387
Al 5.566214899840084 4.374212120772643 7.541669994870784
Al 4.806483988941762 4.1278898708941805 5.111408123144785
Al 7.33971170293586 4.4479604016959 5.196724280201794
Al 8.212849955033885 5.636494474266208 7.730526226801873
Al 3.4376187178283995 6.33822932324119 5.8110447971036505
Al 4.235176092551276 7.409028724470566 8.109128834460163
Al 9.18341151376427 6.205284095753635 5.434675441023829
Al 8.208299430577444 8.598681150070496 6.1679523336351965
Al 6.255331888346932 6.094982655381361 9.306086743735591
