10
Energy = -25.99337636 eV
Al 5.302618085032732 6.184097784281736 7.632298069433267
Al 5.3027314540572625 6.183947802698066 4.738076841838551
Al 4.411339972406871 8.37134858655 6.185001228082699
Al 6.998614340573842 4.547608186146449 6.185203486719
Al 6.99432445617334 7.824858060353558 6.184998917622519
Al 2.9617502489022907 6.18094478471695 6.185072982399584
Al 4.417142826344539 3.9942774849729212 6.185219724370997
Al 7.934000811779827 6.187643398929544 8.128970516921289
Al 7.934256145739646 6.187339909202549 4.241273363260217
Al 9.59457463106908 6.189287208400627 6.185237607258336
