12
Energy = -32.94282565 eV
Al 5.66930027781449 7.205987800486324 3.195690742298085
Al 5.696976085770852 4.726784558148485 3.9044559158855914
Al 6.150178784225905 4.425803903453871 6.414713923186669
Al 7.867279967521133 6.267214465792567 4.633200840903875
Al 7.316712696259492 8.889438669837519 4.140024000835261
Al 5.675513785484494 7.1462814561786825 5.922677721670923
Al 8.133458277251068 8.42124702103051 6.473400707329199
Al 8.277159763630944 5.8015730205836515 7.157992499794114
Al 4.527187255480942 6.203234452678064 8.052266534924431
Al 6.723475412724005 4.885492064073329 9.05135774363269
Al 6.748650698334599 7.5989329782182 8.481529420791327
Al 5.226275735871109 6.440178349887977 10.584858689117011
