13
Energy = -36.40671378 eV
Al 7.943950225012803 8.05731226241386 7.032101900632432
Al 8.546491495024481 5.501839149743043 7.9178221806672875
Al 6.246093859396664 9.025894665523504 8.920517928823822
Al 6.884801779054674 4.551586082195155 6.166647303915599
Al 5.767290981242418 6.418040948250981 7.712203613526194
Al 4.14210685242403 4.448883440482135 6.641091371556349
Al 7.427010187286222 6.919012372581307 9.746087414674651
Al 5.331231972815969 9.030768985641608 6.501245622468334
Al 3.8359567342659937 6.969464051844883 5.787389852723022
Al 7.649021086620867 5.217894210572948 3.409425415131602
Al 5.1465676622878425 5.048132728665459 4.190506392968157
Al 9.06948061950883 6.206821891211994 5.406454196379891
Al 6.511517118754184 7.10586978456811 5.070027380227496
