16
Energy = -45.15338609 eV
Al 6.405534628370635 7.314675095089774 10.716060545105435
Al 5.377955371168225 9.330117009376243 8.723955375029817
Al 6.159509599356407 8.546608424265495 6.198382930266714
Al 7.608265607042895 10.572959719446219 7.489811992534454
Al 3.666222984139455 8.116397707763083 7.0750170166405
Al 9.469642372955832 6.106646670627046 5.093630458268494
Al 4.798485564248775 6.2807368228780005 5.49319098022184
Al 7.27622054429029 5.981618703041733 6.564825169951096
Al 7.721479056105414 8.10581997504011 8.52080879965909
Al 7.603741329399107 5.2007898737296765 9.039728849243332
Al 5.348472462003018 6.458094162331539 8.343940413537979
Al 8.777031844297351 8.634731526867492 6.0489590921964425
Al 9.006883315638897 6.9015757761910885 10.547353768962136
Al 9.814389050760235 6.698492042551596 7.959331812438384
Al 9.429611736997833 4.247353071564229 6.977295211711844
Al 7.091559463364581 7.041254208773447 4.094609329896952
