18
Energy = -53.06555368 eV
Al 6.2796163593828265 3.471497140745541 6.587609536932394
Al 3.4226694477190196 3.7166553119255177 5.882835782320884
Al 8.6356342599483 4.195294321787628 7.380660979087518
Al 5.364897282385674 4.027648764827535 4.0935014360071875
Al 4.3619605065622675 4.642677514443604 8.135512522391206
Al 9.37765190199081 5.804999183511963 9.274283548390006
Al 7.5276545263916645 5.341984239930902 5.14863466732174
Al 6.720583480776431 5.962778903831986 8.151466480221519
Al 4.986066992685354 6.193530737542009 5.9446635878841985
Al 8.311595543182031 8.19411091872847 9.048194475250586
Al 4.164833873995813 7.1616068633821985 8.431423761190727
Al 5.735048790546487 6.443773097641634 3.3167930542309607
Al 6.04582415379119 8.443682747933599 7.240970852421135
Al 4.831743963676984 8.590491000215469 4.5562729718329145
Al 8.925899139043908 6.847014920340071 6.77753483610712
Al 7.441232319882353 7.910676543115151 4.847693590119404
Al 8.450681853325612 9.58477883279023 6.79194566930381
Al 6.441847955855389 10.492241308448747 5.415444600128093
