15
Energy = -43.16710953 eV
Al 6.455031362105537 5.977586425271781 8.578734728636421
Al 6.933779844224066 8.329146964199191 7.5802552480076155
Al 4.482756366746501 7.351625315719891 6.809703303942214
Al 4.395334467299134 4.727138023148712 7.273755052048296
Al 7.0294014949561445 3.753295217747018 7.293222261925771
Al 6.798471640566072 6.064761313589413 5.935447989477706
Al 6.567016204379353 8.569155639870692 5.0112439129307855
Al 5.014302770375471 2.398828469386824 3.265343483518707
Al 5.295486350552026 4.922614862777609 2.574946166291957
Al 4.5008044055355425 6.966131267243876 4.169113456850875
Al 3.689893577555906 4.4679618571561655 4.712020158774309
Al 5.157521317803111 2.500891515052157 5.893713981148378
Al 7.062731350251332 3.9899497954188443 4.494730850219184
Al 7.184059151031483 6.5982981442049535 3.3481255994304218
Al 2.296188897225095 6.24539438981965 5.9224230074037
