15
Energy = -43.31509389 eV
Al 6.008924470560111 8.107062836864149 4.422894493029679
Al 5.960122086211229 8.86411226729856 7.186704891103899
Al 3.8843386286811596 7.44437607627239 5.960224988774409
Al 8.302907447873864 8.039153886130416 5.869536653355192
Al 9.659407145419038 7.09303066219261 3.65804373231672
Al 7.4572609336886595 5.651962610142724 4.113877770853104
Al 4.823654035684041 5.436346407422677 4.388860645761298
Al 4.692334937972588 6.764811447117945 8.522151939278755
Al 6.28084810193322 6.344474104401746 6.407198407076531
Al 8.769630636456721 5.419366154519573 6.586732985711772
Al 4.306203579759293 4.647920068128328 6.942179835825667
Al 7.825617904783236 7.278284600067931 8.411949111304663
Al 6.1288800871340765 7.876199556017718 10.470976014200224
Al 6.717385132527455 4.806810867379181 8.53262615112065
Al 6.681646438587635 3.7252500233160983 6.0252039475599
