18
Energy = -53.4297162
Al 6.368010816675226 7.322908998933067 3.5595352117657435
Al 6.195620463472344 6.043764718961811 5.913893793309107
Al 4.125664653068441 6.114607810803976 7.7542171333538885
Al 6.310786011720947 4.64678381844686 8.16516532451213
Al 4.936829048056331 8.342324600905409 5.696379717168753
Al 6.365450297810903 4.5944332172837745 3.660108595075725
Al 4.061463792923951 5.9849511214488675 4.292486119096795
Al 4.933039196435714 3.7367060683384814 5.865814705744013
Al 2.4166601418629963 4.67968663336575 6.117647736955391
Al 7.697816539100285 3.790284855444693 5.913723466064289
Al 2.419007267094188 7.421778536240862 6.01050616732759
Al 8.425071106411723 6.1001682340037116 7.46657750423839
Al 8.547432487418753 5.987784254053256 4.473296991600792
Al 6.313419139840928 7.60295603056385 8.056215534083327
Al 10.358409981801753 4.717681220508154 6.125419562032218
Al 10.36094151106094 7.374449877301072 6.023417077697174
Al 7.701977238951684 8.28823298774453 5.747391949539531
Al 1.3411447866570005 6.129241496016735 8.036947890800002
