15
Energy = -41.95813522 eV
Al 5.7251082223447884 6.585757067990298 8.214385397968561
Al 8.624830309137606 6.841329087657561 8.599326410696154
Al 4.623543672166649 3.861076476680388 8.311308223913533
Al 7.28486133218185 4.473964586727229 8.3687952310206
Al 3.4944024973402312 5.9199748889570385 6.886769191383145
Al 5.844945273247397 4.476460301370871 5.958261250095833
Al 7.913242600770331 6.017623406551746 6.106988071696055
Al 5.342949378236916 7.350408331082586 5.6285501552738415
Al 9.608289179989756 8.113755014880798 6.33283229671344
Al 7.112769232379093 8.616063103836874 7.148486356915156
Al 7.703121750911824 8.22693108057986 4.37170207226826
Al 5.281677032613883 7.685977963958923 3.0488214101954103
Al 3.957268875848498 5.43752975990663 4.102434774076991
Al 6.789018042109949 5.595500875757159 3.6927540296879124
Al 3.344567902505885 3.4482434729326177 5.879180429879899
