14
Energy = -39.90045611 eV
Al 4.798753181640793 6.509064395335422 8.361678779767225
Al 6.3891138581219815 8.61422980853965 8.826157282600077
Al 8.685119480865707 5.21431447905131 6.867050082589654
Al 6.268907056711919 4.271885828893865 8.114735203469447
Al 6.885008390078388 7.18699257201163 6.6491801560563095
Al 8.63651876397173 6.737020683723146 4.60124652309151
Al 6.42031232452361 2.5659263159486714 6.142282036454041
Al 7.0637240196132405 4.569781939650191 4.5907152839510275
Al 4.220385247636042 7.898481681983549 6.102521271564186
Al 7.63029342057776 6.3245517824132484 9.134267687900449
Al 5.959091793366521 9.96586544333201 6.702041147159039
Al 4.957239643894539 5.259723012962123 6.035109856267223
Al 7.314584535253573 8.997742733805085 4.7631399786693365
Al 5.779390258378679 6.892861296983858 4.118316685094078
