10
Energy = -26.69204063 eV
Al 6.837768036903745 5.625012321998115 9.286305943341803
Al 8.069794464147154 7.4988273769949805 8.08636833373783
Al 5.246466413326362 6.926841604591367 7.346402453012724
Al 7.308681981601344 8.544259229113075 3.949830552658656
Al 6.515777923330878 8.871660482192143 6.3499236321608805
Al 8.59777918117774 6.974851700813087 5.485369615488018
Al 5.793723345462343 6.542012209691906 4.679182925538913
Al 7.253244214236229 5.106902262840736 6.529239515711451
Al 5.101467580514748 4.330934034752163 7.877020361155383
Al 4.282202551495581 4.585604469208162 5.417262359390199
