13
Energy = -37.28278319 eV
Al 3.9215854494025297 5.676598134692747 5.120015303586431
Al 5.715008027012987 3.8364956174525537 6.507487954398826
Al 3.9593591007437197 5.366449576910099 7.73548787397835
Al 6.528830347629748 4.926229050550692 4.1996275761883535
Al 8.273015674878833 4.580155148274379 6.201322467248172
Al 6.8744154962239215 5.204607164983812 8.514234790728281
Al 5.449910715272183 7.302035224356214 3.7239186902097696
Al 6.030475604667785 6.66612246478438 6.388137193353314
Al 5.185687119185646 7.315028519477524 8.876932821581905
Al 6.517054939506867 9.066034173351873 5.262252922533758
Al 8.187581678204568 6.956542866736617 4.750475312504191
Al 7.081410836047921 8.764240134149645 7.80698258562782
Al 8.769378007499839 6.833174865745074 7.406837394715778
