18
Energy = -52.62059492 eV
Al 10.72639857075466 7.721759507266432 5.134846870526944
Al 10.163780529440308 9.753317479991614 6.825836769355561
Al 9.887056185668744 9.531415914195964 9.419794553537281
Al 9.435799561503485 7.382837554741114 7.729154464450375
Al 8.558196435847162 6.133056497577938 5.627661632439595
Al 7.949614011798981 8.79267791355523 5.49811868228436
Al 7.972089915754866 5.314961474636743 8.460565180072846
Al 7.630089345293382 9.80005515733945 7.886893629158918
Al 7.76465684249277 7.906014637902939 9.746535325752427
Al 5.192262094491749 8.913186582161229 8.770766995876402
Al 6.707745628792548 4.43462962223852 6.150135568061698
Al 5.532310793944653 6.579451998787829 9.875633694715054
Al 5.425533200849571 9.413980549646235 6.184567707933339
Al 5.8951805627325715 7.2346019715462715 4.682031842216242
Al 6.501175058959181 7.124876085176679 7.273243372078245
Al 5.005735622718034 4.816603081226686 8.141487818430514
Al 4.286470458238736 5.271085217512279 5.31992318961846
Al 4.372441494774029 2.9099419446754142 6.381394451830487
