15
Energy = -42.9205868 eV
Al 10.17621116984633 6.730198968132513 8.65729020047423
Al 7.740047824665405 5.570450724178448 7.962350480417453
Al 9.172366326791598 7.694536623747829 6.2908198354975084
Al 10.02005232676023 5.1131713557566965 6.510911330257604
Al 7.880093152786926 8.212836993825016 3.9876948845263454
Al 8.004969866270443 8.338462516628814 8.656468418206059
Al 7.408600029157472 5.909166449390033 5.273432308714908
Al 5.979327561761594 4.030116441383811 6.283149645251403
Al 5.969840290541036 6.887641895422696 9.540914742685242
Al 5.1680246471582745 6.579138498827267 6.960231197276234
Al 5.177917758065416 9.056483391562827 8.360552892363524
Al 6.761458203801985 8.840007107348665 6.347972559193747
Al 5.321418114033655 7.5498956966973365 4.486131440217235
Al 5.373908063276958 4.520414876314958 8.704794297758013
Al 3.898689042627162 9.098886672804138 6.067863079860786
