18
Energy = -52.52616867 eV
Al 9.577692436462927 5.906903248264747 7.361103005885691
Al 9.509704134231907 7.475597183532294 4.863795557229266
Al 7.503815969796653 6.680853542503006 3.0607561133013435
Al 8.36308264004196 5.099539517708533 5.06151455912868
Al 5.975578434718956 4.523604303622505 4.043423161672089
Al 7.106684088321913 8.99833637337104 4.416439739729736
Al 7.811805514982388 7.937341107403004 6.821578431126645
Al 6.9300643495359715 6.263892926251028 8.630969764954848
Al 7.341294878042934 3.9632378451723156 7.174549958656797
Al 5.622370055529833 5.871843297703237 6.286120149219564
Al 4.891729489042601 3.2405186969819098 6.222959759889293
Al 5.103264591129175 4.127554636487847 8.882152405947641
Al 3.354496468170823 4.946528043832169 4.5260385677481585
Al 5.247015159984431 8.497726938457149 6.520743133920913
Al 4.996084114297659 7.191650908668625 4.038163854108762
Al 4.260556904831165 6.792659910093582 8.450645754861434
Al 2.987335703305212 4.823922518154391 7.20035192836788
Al 2.907021245957473 7.247929357718058 5.976726415454813
