11
Energy = -29.63841991 eV
Al 3.9754769755690313 8.700234924287173 5.8461944824769665
Al 6.006072192654731 7.1530772191062635 4.976541967481033
Al 6.339447484167859 9.628086251292155 6.2416092318901555
Al 8.186930522194109 7.94923223110636 6.75810263626074
Al 3.251840574839671 6.204638771999594 5.847463707222619
Al 7.957575274567066 5.654328277586818 5.41771264505112
Al 5.480749298128289 7.333710430634693 7.6174862217743255
Al 5.451479447986221 4.901010037834417 6.405158364906896
Al 7.398012723120868 5.821069141947722 8.171028669064746
Al 7.608757427367888 3.4236051287349634 6.9262362492852505
Al 9.849242941369923 4.736592447435643 7.298050686552363
