18
Energy = -52.23983936 eV
Al 9.761809126877408 5.254929982620112 7.153986660300316
Al 4.995372337203631 7.533072312139004 6.423413124838137
Al 9.449787837867365 6.830946903910436 9.31314229370341
Al 8.506268827398527 9.000080261062703 10.191272154186686
Al 7.1362921357680005 7.808037158917598 4.6136767405465235
Al 7.663068067103904 4.963846254074422 8.971431712768707
Al 6.239014079303563 9.88037064896362 6.3470503178558175
Al 5.702984479095421 3.692744757791046 7.499018114205177
Al 7.040263916100057 7.943808144688074 8.126666658033953
Al 8.533861662230875 10.147799264366208 7.877299358242344
Al 6.906757406579844 6.8834109117702615 10.571337043633108
Al 5.1615599784603186 6.037444131179535 8.678526797211106
Al 6.621459472034654 10.2188571667197 3.72886171536931
Al 4.248370938347788 5.086723248186977 5.812750077884374
Al 7.095262319805191 5.7704664768201965 6.300427329587561
Al 8.162618230302677 3.3025570524674746 6.926800688008619
Al 9.274557995023148 7.715041974505781 6.3577595212982665
Al 8.769353488931559 10.174494682391844 5.269252513854267
