18
Energy = -53.02927643 eV
Al 7.180781807556497 8.519326984733897 4.925790758412626
Al 6.669224438530667 6.935405326605342 7.042038674798129
Al 5.190553400070297 3.2448737667662293 4.963399232080631
Al 6.018054095088279 8.322536174142497 9.323639261856325
Al 3.484883823324325 5.14909606467356 5.959444395255256
Al 10.307123165634074 8.453673242035 7.516451576681017
Al 8.58273445761942 7.164226270260664 9.059005648532708
Al 5.243486170452555 9.218908288205398 6.89347637375285
Al 5.746738619211117 4.284649025701557 7.282387919675099
Al 4.739013218446548 7.436597979006036 5.050972240062996
Al 4.4763411737091126 5.417811204624627 3.42307166576465
Al 6.483028975447392 3.827684104080098 2.7140172194481575
Al 6.403002570712275 5.652878017304709 9.40012436621075
Al 8.349603503930114 4.874822770188711 7.445551691110827
Al 9.133955805774967 6.837637902009429 5.759324970913358
Al 6.989398014439614 5.483580958854958 4.823887424028507
Al 7.845920127633098 9.424899316057767 7.49161257698773
Al 4.163213901608032 6.758449873939183 7.932861273617189
