17
Energy = -49.67035983 eV
Al 5.845951779946697 6.08690552495425 3.302219182436374
Al 8.237530238599064 6.10715826421811 4.78488983239985
Al 4.178340293578557 8.267266074467463 4.058604033654638
Al 7.057031695463633 8.559714113314152 3.782472288345108
Al 6.001506924878311 4.303409522382019 5.346649893142854
Al 3.6874802938581683 5.685038524908319 5.141349935868719
Al 8.551869093962768 3.835878815663702 6.4350377677810355
Al 5.958418583259001 6.9393362870943145 5.804080128443245
Al 8.11053802868616 8.475909714949381 6.326477485182263
Al 5.571081480608818 9.579051353316958 6.03083486510563
Al 4.880223720153666 5.572072139234493 7.843282582467602
Al 6.862540225483094 1.8643661852003837 6.346161003558145
Al 3.6641314538698775 7.762958315364547 6.909737284806447
Al 4.615419925348123 2.844973806087707 7.342382422755159
Al 7.740324378908046 6.153218280283394 7.6341945683881045
Al 6.868736410571669 3.711619116169038 8.500689137416424
Al 6.029554347859473 8.111802837427462 8.271616463284092
