10
Energy = -25.68103836 eV
Al 7.748567105134058 9.80051721728791 6.028876164089704
Al 5.23924954918398 9.643419234048576 6.07692357325594
Al 6.775824091031371 7.335770674848496 5.663663875729434
Al 8.539216972066368 5.375412791747828 5.781678108589236
Al 9.41332368295424 7.797191261805773 5.835780023299287
Al 6.848769557294999 5.700492899035347 7.779318734019074
Al 9.493691920079097 6.069854167321922 8.073769289208322
Al 6.080762425557001 8.342023020548979 8.155943513501805
Al 5.371879173957963 6.629316046793645 9.971582118263111
Al 7.887256493670061 6.704543657490526 10.03100557097323
