13
Energy = -37.02373701 eV
Al 9.201702778200312 7.598665715800874 6.6011479861318545
Al 7.473090687960272 8.0086147804777 4.534159189186489
Al 9.110767997948418 5.214359996796977 7.645999344205872
Al 7.646779214069754 5.575246694411341 5.498150449991466
Al 6.937147680175512 9.087726773475701 6.938184346310904
Al 7.068830512603783 6.776785709888306 8.175838845506986
Al 5.7019729925093445 3.888127888429951 4.969701724346085
Al 4.650433905014048 8.114546156312953 8.041024575932747
Al 4.920646593791101 8.299066364714998 5.34091970060404
Al 6.570886900612838 4.145225925084893 7.572467475688941
Al 4.82650558926192 5.7052438410838215 9.019298698241558
Al 5.586623357978421 6.193787043324769 3.7613570248958608
Al 4.806665121152811 5.8946564414755995 6.403803970235347
