15
Energy = -42.26396661 eV
Al 7.08974079673429 5.126300244872744 9.117429219197117
Al 4.655442840635711 4.074935172460648 9.006093749834411
Al 6.292172884130052 4.150570224170508 6.775519488522539
Al 3.2556473491508067 5.0546403459674485 6.995353805413519
Al 9.059912283893873 4.851014733446644 7.367911110719676
Al 7.925248778821022 4.914727527193899 4.837690433563777
Al 5.10836508187055 6.691498894135592 7.969583495423855
Al 7.4883826984268795 6.923794480680448 6.981433396125143
Al 5.37193695137038 5.914770568356801 5.13946719827873
Al 9.801796266314462 6.977526339903615 5.725312466371608
Al 3.2615869954694334 7.443275440882104 5.909878180234126
Al 7.393442197775513 7.41337367464065 4.060929719964278
Al 5.751378871161877 8.769335969441011 6.2682314841231825
Al 8.367021354763116 9.220450567871886 5.655808513804058
Al 4.838194609125031 8.157364888307988 3.8155959206108063
