14
Energy = -39.56242186 eV
Al 6.417117409598046 6.455463617792666 4.794314632114388
Al 9.042211320562004 6.454916293704186 5.061167740160034
Al 3.8029132192943695 6.457128342396435 5.160472477416851
Al 7.733367755787841 8.720490006766967 5.103563795163016
Al 5.103259118166542 8.72001343672977 5.153391863596962
Al 7.725905399564502 4.176274232806617 5.06849356549645
Al 5.1153906783632275 4.182134851507417 5.116682711211695
Al 6.440604013212723 8.036427460791765 7.4786086443238515
Al 9.044614180556904 7.923860034952676 7.491597817232916
Al 3.8306876187728442 7.935512086352126 7.578146069687603
Al 7.841195900283998 5.613053402573087 7.431328259295973
Al 5.0644947424389 5.626361379508199 7.4940624585747235
Al 6.448169836562065 3.403162616662982 7.493962274423498
Al 6.5105930212971 6.415726506727201 9.694731905763232
