12
Energy = -33.07054158 eV
Al 5.666645685719024 5.367154072894604 4.93938529370454
Al 7.213730264451564 3.4868629252360734 5.77661067547817
Al 3.9256434301797234 7.378451154436369 4.9900520243868876
Al 6.363802467915612 8.019701527493194 4.4255208631116405
Al 5.778862019361842 4.944581390123715 7.719643616506662
Al 8.007342011966315 6.39474337489877 6.01412798854979
Al 3.48037790009762 5.517590292827903 6.71178257474706
Al 8.38219291074029 4.434763268154722 7.864971216190289
Al 8.406162567958063 8.936343269489715 5.620555444324554
Al 5.604615916947187 7.6464643889198225 7.112367075134673
Al 7.650757320415067 6.726927899028905 8.79029354721455
Al 7.519867504247473 9.146416436495459 8.034689680650175
