16
Energy = -46.99602088 eV
Al 6.4129626453517075 3.133313245264511 5.874617773444477
Al 6.9215642002352125 7.129688489259451 3.8040669165736802
Al 8.160778991477512 4.35732178985768 7.634977732506265
Al 6.494824728120047 5.781052577756352 5.997747710168461
Al 7.02994977469112 6.915861445088286 8.28896792898982
Al 9.726295464529606 5.458830111723454 5.8997162663292935
Al 5.590623658894892 4.517699737732517 8.218973837851198
Al 3.113081528377282 8.92565106140784 6.23160614270552
Al 4.394379295778869 6.807980417402861 7.601197431940794
Al 8.460258806499034 7.697412418509192 6.043187492165367
Al 4.3211690991394605 6.951829018592302 4.605284427393117
Al 5.478736426743669 4.73449843413139 3.7145768618111275
Al 8.072293026411293 4.519083051775203 4.15317820015713
Al 5.970367725873117 8.509218398604423 6.141157117142296
Al 4.024971723118743 4.476055669878356 5.9963151424034455
Al 2.1690475444969595 6.425808772755547 6.13573365815696
