12
Energy = -32.95599988 eV
Al 8.687606892382334 8.509554131443311 7.153348345789982
Al 6.1745485264230116 8.832564808767684 7.371391568633242
Al 9.779782956810186 6.4279959247694025 6.1705404179485654
Al 7.241849710946777 5.970816958906813 7.472194122176643
Al 7.128291547116248 7.386137470376981 5.170096678040112
Al 5.127685927547424 7.0884473273276205 8.924043262811557
Al 4.2748793406413075 8.921400396297084 5.59080256321232
Al 8.155683573530625 4.778148403698134 5.161852729706131
Al 4.711835553188585 4.57964659775157 8.460760909572317
Al 5.872170721546616 5.256832042233549 3.98922159358095
Al 4.845275083198199 6.399795771264082 6.213929904362043
Al 6.00561889641488 3.853888896910231 6.327046633912344
