19
Energy = -55.59060468 eV
Al 4.3562526886707955 8.991472557885421 4.270402830566831
Al 5.1277165067873085 3.9525556704407676 4.332948698752927
Al 6.8053629077193465 8.005992082042054 4.670969171394948
Al 4.554706699751545 4.130768481157283 6.845658715113381
Al 9.126370808010824 5.375171618220327 7.592501947070034
Al 6.982622898141323 5.208856533422855 5.755236102226034
Al 7.448707013549968 7.4864451009508315 7.23883172687337
Al 9.09262210457392 6.73397355545761 5.193549591856078
Al 8.86387554202845 9.53222666615095 6.009100435346317
Al 5.082218977660196 8.94988950062147 6.745070593788575
Al 8.777737889966392 8.819704839949273 9.265349782416026
Al 7.1206788804094785 10.27334829732575 7.881768584038005
Al 4.457993885549477 6.4440125161423465 5.132427969771276
Al 4.1877203042259366 6.572313270660375 7.805737316623448
Al 10.477165511340646 7.925794047874311 7.2437566253833445
Al 8.057667163808834 6.372396260159223 10.059151211038468
Al 5.998771176507008 8.046847791457054 9.300373178531757
Al 10.610434611643306 6.61511342477353 9.51046900076537
Al 6.395522648964355 5.151355289011434 8.482362522427449
