12
Energy = -32.47845523 eV
Al 6.677565387905037 5.980231616055929 2.864051414851209
Al 9.085941096694604 5.622865809713974 3.965828141566327
Al 6.984621610604019 4.212668836429059 4.934002441111976
Al 5.21322167993089 8.351530282862015 6.336602940740225
Al 7.277480131116859 7.105737607151546 5.222626662501999
Al 4.838289342617871 5.902043369748137 4.810176348737255
Al 5.780395647287595 4.79168589523261 7.120235256571438
Al 3.7217590386371886 6.455477051533384 7.2295757944602625
Al 8.717422395142465 5.277978593346288 6.645969073034695
Al 4.91452999205229 8.616695681431176 8.904836891001375
Al 7.068617482111617 7.06537347509463 7.90356212714397
Al 5.189383901582577 6.069381823412346 9.472248262961061
