12
Energy = -33.14719253 eV
Al 8.4752109390585 8.461020305815012 5.765614094920101
Al 3.8534862456656485 7.448113842525486 6.518747040921685
Al 4.63938276274896 4.951919118895487 7.3523216551469215
Al 7.6698448598623585 6.354578500463776 4.19819151665664
Al 9.069868504155036 5.923612189744002 6.630278534025729
Al 6.891084851129001 4.520276930150783 5.978755968617906
Al 4.931424407824659 5.754305752276402 4.645282611733786
Al 7.197141086017331 5.056898487289104 8.578976929247748
Al 6.454381948777111 7.027324341226394 6.674819806555992
Al 5.313965334881923 6.998506505971622 9.054946419301682
Al 5.8076384159122485 8.35240698778445 4.485960839644882
Al 8.170257093031028 7.624723578346532 8.589791169428342
