12
Energy = -32.85826235 eV
Al 4.2921525872472035 5.761464450887938 4.19884223943461
Al 2.7913248424400403 6.675193513463356 5.981543913363232
Al 5.331337471431124 7.806528630824588 5.77307471297729
Al 6.807183720902857 5.585299004366539 4.6400402869936945
Al 3.587880737961246 7.1365601196161 8.40470234311601
Al 5.173897101722002 5.317806414064249 6.8580841730842925
Al 7.869525589023464 7.671231099526254 5.942554934900506
Al 7.640950036254121 5.355835576382474 7.348211396981899
Al 9.339864487790837 4.963141435940911 5.069029769894722
Al 6.202896239454458 7.534618765228511 8.296482335332005
Al 8.741250861229291 7.653575704506265 8.588036138364478
Al 10.23173177222223 6.548740732871835 6.9093932032358545
