19
Energy = -56.25912438 eV
Al 10.05096028117692 5.535121878773804 5.450145968435892
Al 9.191131199769252 4.056134982031359 7.741873659621355
Al 6.912190845383288 2.617646730146463 7.582766778854955
Al 7.797832024159495 7.0843973312079545 4.6533604136834725
Al 7.499091390328561 4.5560018322956894 5.730349605549395
Al 10.236135529035133 8.139694606993501 5.5590440670639945
Al 8.644114615146675 6.757116440457612 7.42223626938005
Al 5.542427395199913 5.293975732661903 4.212131790352128
Al 6.871052281455716 5.170642333860919 8.618163230831325
Al 4.831067991505795 4.109394209198406 6.726516470231811
Al 8.135903333356364 9.240374408024032 6.582033785706757
Al 5.864291564754306 6.705495881834948 6.5056504011683725
Al 3.3356880422555832 6.129756398859595 5.726958169543729
Al 4.284972742368456 5.816181272495189 8.781847140700195
Al 5.230781618962312 7.8695637038443484 4.123535895990122
Al 6.527421017890358 7.940507504305863 8.645126957257308
Al 3.8935939022085666 8.181448358996155 7.845705943595876
Al 5.612171967506656 9.498975787616951 6.283607462895632
Al 3.048254839649319 8.806653188508424 5.318028571251163
