14
Energy = -39.83845288 eV
Al 9.714407880719497 7.11126790925041 7.6138705434400675
Al 7.928333726046843 6.417971957974577 5.754493224176707
Al 7.612822322114124 4.238747047739824 4.203843920506002
Al 6.3276369251955975 6.41446304476462 3.5416204972213907
Al 6.409755639382964 8.660285003459855 4.89920276147018
Al 7.956434183373697 8.950366742187345 6.928387076429869
Al 7.206036307901846 3.7834822359855567 6.739968093015343
Al 4.071332105326768 7.484870255267418 5.111755963503061
Al 5.294548729766462 5.222137982760654 5.641824548492504
Al 7.510297440376944 5.841674341802094 8.393590133079627
Al 5.605352186367103 7.518833049960033 7.37098269751203
Al 5.067932939233781 4.803261037749366 8.23206489782198
Al 7.196201380253698 8.296959669752948 9.367186277200004
Al 3.184815180275912 6.341586667681236 7.287116312467318
