18
Energy = -52.05074483 eV
Al 9.299849723394 5.205691936799689 4.139322669213507
Al 4.882641447380471 7.740949033517324 8.181094979928448
Al 5.616868391287193 6.926672079940801 5.8539067311698
Al 7.3114614380016265 8.488250515805301 7.299067550826329
Al 8.014606265960076 7.558209312155485 4.916316298026795
Al 11.615227670338914 7.2205905952985985 7.231477043654389
Al 10.736539984431792 7.309261325040868 4.698325805561039
Al 9.462194957628771 7.665911377352369 8.7504980235799
Al 6.275736240299145 10.051293854927037 9.10127373696046
Al 9.789980281457522 9.156494239072735 6.339878782881842
Al 6.524002949338854 9.547372644093345 11.842142732140909
Al 8.748905880463305 10.658662351367811 8.173005115095725
Al 7.076184817271726 5.788584641436686 8.091545063917385
Al 6.972785409278869 7.408881215268858 10.10646266475206
Al 8.715571848626873 9.440709069001816 10.511875533833432
Al 4.515695019991488 8.56246040798919 10.602403742667299
Al 9.384899855263441 5.8466007319081585 6.784306208018096
Al 7.163516622313775 4.824342407842634 5.597001775866581
