19
Energy = -56.2089252 eV
Al 7.286266943822421 5.044123043750232 7.9369571755292965
Al 9.460767297421576 6.187226932547003 9.126047127305043
Al 9.940006469306406 4.80238244136815 7.066113806720584
Al 4.758772937511837 4.073978449614978 7.925737723958558
Al 5.101169756899337 6.77588324022927 8.538538312674843
Al 8.140207699735237 5.114136106391396 5.2025950797613
Al 2.982295518030318 5.78339617459953 6.980330170450421
Al 7.438774424940734 7.803146804113764 9.302560416617057
Al 6.0724269508689215 3.4490628120099145 5.730358816441079
Al 8.740339345145363 7.329158440971083 6.7626497046685685
Al 5.673120968066765 6.144053296087872 6.075449590988376
Al 3.76905953099278 4.604727096789353 4.844557007034875
Al 8.388003963940909 9.769090296690004 7.868521006787156
Al 3.653294888207804 8.17665119936732 6.31033417562199
Al 6.0372127600620376 5.144042050538773 3.4566523282246906
Al 6.170019240316168 8.740256490062631 6.795491387147021
Al 7.151926996564742 7.596681711984368 4.331382201045055
Al 8.347233582154116 9.717547217669097 5.326165251223885
Al 4.398342155199982 7.253697624402866 3.9288001469875162
