10
Energy = -26.5414839 eV
Al 6.463880866301703 7.603362072586431 8.865234487922196
Al 7.752147100249449 6.505566808832605 6.8975984377232304
Al 4.093840728535345 6.702004794231024 8.389923430276156
Al 6.102031004120256 4.926485656672256 8.454706255181208
Al 8.89443430389868 7.285626664748317 4.562528094329267
Al 6.823698409014209 3.66581712315694 6.3613123499625015
Al 5.230700999669064 6.236927368889905 6.0449535487322565
Al 6.09027121772574 8.904341433694356 6.691974470821193
Al 7.152814381578094 5.253798672111551 4.374110423311353
Al 6.399494625390495 7.919383041559649 4.360972138223933
