10
Energy = -26.4775101 eV
Al 6.727973566557939 7.799053317832393 9.126534094803553
Al 7.923632127277667 7.27253565801272 4.668915416318345
Al 5.930100216287253 7.83399961227348 6.62674217231587
Al 5.228853721531549 7.638778304460546 4.103830385089558
Al 8.68697065814354 7.37610786867962 7.196688943935973
Al 7.770558361587804 5.38925007589254 8.882327065275991
Al 4.3128082994210954 5.63253198028306 5.803982777690919
Al 6.251916174374055 5.216319701815631 3.888665735536082
Al 7.086012472074245 5.137084859302277 6.368762975122639
Al 5.081174402744116 5.704338621446735 8.333550433910464
