19
Energy = -56.33610623 eV
Al 9.175063494551145 8.98569009951163 6.445802530270431
Al 7.238420642133394 8.34884199150857 4.86496666519551
Al 6.895264199852794 10.29402017429264 7.192059497579329
Al 8.891785903604834 6.2590603237203455 6.189253394951765
Al 7.315390024735578 7.8027793724864765 8.238388813500256
Al 7.337506263430016 5.860990777904274 3.8661087598658264
Al 3.481008725945029 6.230213900685078 6.278120826373565
Al 7.4225318976852 3.90679429039018 5.819044900027334
Al 4.880860775777485 7.3259092304520195 4.177082813173288
Al 10.14496810905315 7.450630742098801 8.447554615585911
Al 2.9414194715317117 3.5184183102171303 5.819105637584319
Al 5.252457292698169 2.150798884481973 5.48838163890821
Al 6.230777348770732 6.337806650311917 6.266658705942289
Al 5.0255029324497755 4.686021327824424 4.4666051197550605
Al 8.880657199503501 9.864533216630596 8.969975903139543
Al 7.441966365671625 5.11889564962105 8.3125486275945
Al 5.084808130419162 4.176573741151241 7.364022329394847
Al 4.896632840325157 8.622828788869557 6.679998521586791
Al 4.971098199231798 6.567312345212951 8.622440516941468
