14
Energy = -40.02773325 eV
Al 8.691108363085789 4.760693400648643 6.6342745600521775
Al 9.026024825898059 5.900104057512339 4.2882419742832765
Al 6.6056863593133786 4.832311811353327 4.925407070830688
Al 6.186316616679429 4.582688126958785 7.608372055854642
Al 8.519396535807154 7.39424543686358 6.565052558907941
Al 6.86670705141451 7.520493501642663 4.549405905521386
Al 4.163119628331953 4.092387424473239 5.8672726467609415
Al 4.424874783285056 6.389447345903233 4.616402113775081
Al 5.466443391429068 6.21551259057073 9.737270609026424
Al 7.940718777467806 6.114927826059767 8.851996763392608
Al 6.386667369308516 8.180185927360709 8.086440732100531
Al 4.421519977916236 6.473771923642359 7.2549097146541275
Al 7.331863954662892 9.780430206607734 6.09329381361142
Al 4.930896463451738 8.724144518454072 5.883003579279538
