12
Energy = -32.21823102 eV
Al 6.368023472889815 5.162921766927589 8.119395848656897
Al 8.689084919959429 6.504007200217802 8.057352425414017
Al 6.389826045887107 7.793229074393817 8.025615765663751
Al 8.632221886926786 8.776069972438265 6.67890275094575
Al 8.689084919959429 6.504007200217802 5.300453076477485
Al 6.368023472889815 5.162921766927589 5.238409653234605
Al 6.389826045887107 7.793229074393817 5.33218973622775
Al 8.434526803436507 4.169203248954381 6.67890275094575
Al 5.0707666139982415 3.2341145996662144 6.67890275094575
Al 4.305408081632353 8.731214271415075 6.67890275094575
Al 4.334859014509799 6.135929738022083 6.67890275094575
Al 6.475181707638972 10.179985097774711 6.67890275094575
