17
Energy = -49.25047816 eV
Al 7.594755720566725 10.35235271005711 7.431241951875079
Al 9.908015395828828 9.122293350474823 7.39487170964844
Al 5.573577903288753 8.345435918142421 7.219916094372799
Al 9.472902093418362 6.566516607278322 7.821794648605425
Al 5.349542336992483 7.49018924542957 10.080266690550568
Al 6.346461889432059 10.352269015664072 5.189550750544071
Al 7.66796352427144 8.216515508652703 8.975905859305973
Al 7.902057504250586 7.932932718935597 5.918231452434411
Al 8.918745579604309 4.029560327745185 8.219597207423776
Al 5.560305985018827 8.063667916377993 4.418872064889349
Al 7.5186271304015095 6.527739719980053 3.4667356911495553
Al 4.0842757067031705 6.390295970039438 8.00994724144557
Al 6.787132570879596 5.7992132584243015 8.270216983210105
Al 5.734178081672056 5.878162205841446 5.781888775290613
Al 8.400981245608957 5.320193665720457 5.678560948432932
Al 4.550113803066028 3.9201654619247592 7.648133100361488
Al 6.878134300864397 3.420046909425673 6.701674120945059
