19
Energy = -56.08074514 eV
Al 6.810777559577395 4.2790613337972045 9.079515024137681
Al 8.170329827607434 3.3364874972614373 7.0984896672901625
Al 8.660316771697895 6.310462963915166 8.619148935766704
Al 7.255714687363573 4.319839330709052 4.74174262298955
Al 6.443334403305955 7.421137659818016 9.370417927108104
Al 5.291018331143739 3.648963373704119 6.693587032858925
Al 9.440532663449906 5.533341975480864 6.288155297141895
Al 4.547040422343396 5.499189057768442 9.047230723129939
Al 6.523397282465179 5.954199973189563 6.843960564676177
Al 3.5899798436529826 6.099640929146845 6.702355357303305
Al 8.02767773710839 8.10790121634167 6.752552939087508
Al 5.327912683786901 8.444704887223393 7.172759167923766
Al 4.811348344032877 5.244905951823233 4.530540429003475
Al 2.2885394460211153 6.208648109415062 4.367213242249682
Al 8.601063608547665 6.808799215212693 4.197315477690368
Al 3.652240144858543 8.419476217629342 5.194957618567965
Al 6.261702456878969 7.901311033812535 4.702265755791275
Al 6.6911948091791436 5.955118363318453 2.571375552183067
Al 4.417150135787297 7.276841292117703 2.9027763364809243
