16
Energy = -44.92485461 eV
Al 9.922910401086234 6.027745047348435 7.04237068408872
Al 10.337157810599063 7.3473904000025225 9.238950746278142
Al 8.396754485223449 8.358349285555594 7.222971636871784
Al 8.248912119744885 6.488271331063849 5.032006251909836
Al 6.194709431013793 6.808096568140006 3.0357303304588292
Al 7.576060167181962 4.7468731993854405 7.1068341986517485
Al 7.814248839624166 6.618319747720657 9.223127528918916
Al 6.874705033492502 8.81850644596063 4.8248819914051735
Al 5.094043482640918 3.485136842530731 6.923102599042765
Al 6.065958146012171 9.783557393205758 7.093688547916495
Al 6.120051771682841 7.046225327044173 6.696481135131834
Al 5.849338772319337 5.037282954166765 4.9215170600415306
Al 4.320370374071852 7.588581047870395 4.76222681292154
Al 3.70674374699048 5.911601158358475 6.7033327482515555
Al 5.444125270436362 5.4803520332023465 8.70411090449505
Al 5.540687283516244 8.145869666346027 9.08130210906356
