14
Energy = -39.93299404 eV
Al 7.35038977048408 9.581604803770295 6.863382139008242
Al 8.841908650953826 7.678999701730132 5.475629169331608
Al 7.474959022044567 7.154696205411507 7.859150771678304
Al 6.059904444534164 7.829918043391264 5.384227480951502
Al 4.999676078985937 8.443036741481743 7.877959116671268
Al 9.500977612974303 5.607538327220577 7.229234580304561
Al 5.674855644166059 6.366636464864746 9.603573219553803
Al 7.281072959128781 6.650358367162654 3.3865845110729826
Al 7.461469891406457 5.26609250835142 5.611397046451619
Al 7.1908289750720975 4.42191968709234 8.267127174517048
Al 5.01180422078771 5.744384824989882 7.14242236190817
Al 3.5004474119779654 7.396256183130076 5.770236507919298
Al 4.9659300687973085 5.458801404966086 4.380762095515686
Al 5.692607921257998 3.406589409008809 6.155146497687016
