13
Energy = -36.1980539 eV
Al 9.894644824489422 7.361786323262254 6.6531347127670335
Al 8.501178629777272 5.0934697776989 6.344225227025472
Al 8.657168061385788 9.672198470308903 6.73804861780559
Al 7.408635411844254 7.511602020132705 5.328266456699336
Al 7.537327645730902 7.346787969783026 8.000157301277207
Al 6.6190401067800915 2.9406442305278895 6.474647002504171
Al 6.608501768462748 4.9510789185053765 8.259395597483627
Al 6.023154007109542 5.389857755426934 5.3074633693066655
Al 6.006124526366777 9.358230425177535 6.801129341467804
Al 4.701147202592549 8.006073366361703 4.860563927937461
Al 5.015535200422577 6.880948874108356 7.3273827038028765
Al 4.276060407513948 4.113878227541058 7.024931889049663
Al 3.260388113999004 5.8823495476400955 5.389559759347681
