13
Energy = -36.14359444 eV
Al 7.220921574067808 4.327462227949639 8.585865049693805
Al 4.945633630744871 4.195681632297494 6.848375976018562
Al 9.22643383630735 5.506695854864811 6.988113284089959
Al 4.951970100329051 6.003036972152543 8.90937818633473
Al 7.378681837938816 3.9094869059514474 5.76182041867429
Al 3.9676170496029224 6.747166052250142 6.383111099948053
Al 6.689264788022712 6.29254261303988 6.912712601601712
Al 8.196689493592281 6.342331871253929 4.55447027399538
Al 5.624484946237956 8.545149455206444 7.655769131334927
Al 5.627430048526947 5.551344498788924 4.600827241861656
Al 8.201095922786584 8.355901678423788 6.437394374265233
Al 5.921182947487349 8.081567865636627 4.8946664964233815
Al 6.5497044947077665 10.642743042536194 5.9686065361098946
