13
Energy = -35.76848807 eV
Al 4.636936249428171 8.607968735404665 7.407304747443305
Al 6.889751689519956 5.554334344404511 5.456507605203522
Al 4.578594591760664 6.889751689519956 5.419332927942004
Al 9.142567129611743 5.171534643635247 7.407304747443305
Al 6.889751689519956 8.225169034635401 5.456507605203522
Al 9.200908787279404 6.889751689519956 5.419332927942004
Al 6.889751689519956 6.889751689519956 7.853646492384662
Al 9.142567129611743 8.607968735404665 7.407304747443305
Al 6.889751689519956 9.743709641229716 7.731473762321514
Al 6.889751689519956 4.035793737810196 7.731473762321514
Al 4.636936249428171 5.171534643635247 7.407304747443305
Al 2.6333283790399156 6.889751689519956 7.4346389453335755
Al 11.146175000000001 6.889751689519956 7.4346389453335755
