11
Energy = -29.35833509 eV
Al 4.853499053586459 4.7724524939922475 8.691608173333863
Al 4.43382585627767 8.014362777884187 6.283671455442041
Al 6.552681976793963 8.447129274018701 4.689146224608986
Al 6.482444357915314 6.507955044907343 7.443030375081674
Al 5.869802104450853 5.786417217268761 4.959119111914618
Al 8.459405237569136 6.710482890774603 4.736773192062194
Al 9.063597957842074 7.349812452321652 7.216373454669049
Al 7.087139794840722 9.144465993107243 7.166041329700652
Al 5.829729016985565 3.6552801061860136 6.531949083315559
Al 8.20176928258914 4.587882204412235 6.360538360344485
Al 3.7143529830823603 5.572007238627888 6.469996718324639
