15
Energy = -42.32611204 eV
Al 5.819023306588636 3.401012302559336 7.26118902448459
Al 4.733563069111301 5.9299327531563915 7.154723378494196
Al 8.457721162852238 3.584493471389517 7.034196262791826
Al 6.799984054098131 4.858604222804145 5.2690409937429905
Al 7.061503266420504 5.689153178923292 8.174285533840628
Al 5.489890988445879 8.133233837077007 8.513739175196152
Al 9.059135678795796 5.995731280046865 6.24467103946102
Al 2.2680004106551483 6.132825143636955 5.443813008351483
Al 9.135187293960193 8.58857340451614 5.582126252999396
Al 8.171640006068646 8.170215178978093 8.011614540712623
Al 4.15214994674029 4.207358303577091 5.17426107408784
Al 3.810482098027003 8.23543850801646 6.233967964533005
Al 7.850787505806381 6.874493363001671 3.931350300271535
Al 6.52473159656399 7.920330033237783 6.010152264018813
Al 5.010082416948428 6.626002604524477 4.344574238620661
