13
Energy = -37.61465375
Al 8.547054076762489 6.7860811391121745 6.349669460832328
Al 7.85968735434109 4.144638210668084 6.649374312135371
Al 7.798987118247427 5.41795575831715 4.084569575207202
Al 6.933057972792355 8.108703453917574 4.56194855999184
Al 6.819031599088087 5.833266273859259 8.550083093607102
Al 6.230048657697856 8.398144396647508 7.19884721125093
Al 3.505028637882897 5.274653431358357 5.721738523818671
Al 5.8318864328496245 3.6605248569700746 4.85242638574435
Al 5.127759471018632 3.945483810361507 7.4907886783494
Al 5.235699046915257 6.2220407356727225 3.507357356038696
Al 4.198799906672384 7.913425227195129 5.407869820554983
Al 4.263647290342642 6.64621356953279 7.977593699975577
Al 6.028010641194362 6.027567342193022 6.026431528298413
