17
Energy = -48.96596628 eV
Al 7.9374628546029005 3.5822598456078842 8.606475978859851
Al 7.150492695953357 6.253687558703972 8.289224405482154
Al 6.888329830248984 8.609511120506237 9.706123186498985
Al 3.710437044921206 7.68806679912493 5.524039924370441
Al 9.785319796757063 5.368150189781967 8.227729112809136
Al 8.504481513169967 10.07554444514388 8.147226781574863
Al 8.459372332694125 7.845873271866889 6.492171089212832
Al 5.7678644171507285 9.012198502581121 4.544359973493243
Al 6.340637458672297 6.575947055573503 5.434870747557808
Al 9.332819276450182 7.712390493287348 9.075919071189368
Al 8.450295078698145 5.027092796656314 5.971901734030813
Al 6.564876560406307 4.003923609234274 4.304525751966961
Al 5.970444619947968 4.145689183085742 7.005813607080544
Al 5.7853981152119 8.637709325236191 7.298429280585777
Al 4.156421594113197 5.010873353472476 5.141672739256148
Al 4.542511633201871 6.3062074026793224 7.626194169724922
Al 7.444676682355074 10.400034135011134 5.878056323499971
