12
Energy = -31.91138136 eV
Al 8.02175248360382 6.652736321453517 5.405581746222032
Al 8.050102793311023 8.001103095811605 7.770905620829109
Al 8.050102793311023 5.304369547095571 7.770905620829109
Al 6.652736321453517 7.987693997807315 10.053160473471483
Al 5.255369849596009 8.001103095811605 7.770905620829109
Al 5.283720159303216 6.652736321453517 5.405581746222032
Al 5.255369849596009 5.304369547095571 7.770905620829109
Al 6.652736321453517 4.320273753361007 5.653745350991131
Al 6.652736321453517 5.35241083043391 3.2621191163785173
Al 6.652736321453517 5.3177786450997155 10.053160473471483
Al 6.652736321453517 7.953061812473122 3.2621191163785173
Al 6.652736321453517 8.985198889546027 5.653745350991131
