14
Energy = -39.64820947 eV
Al 5.145931992151201 6.019662252784336 9.501456600276212
Al 5.107196432920265 7.792563881341585 7.633348215303412
Al 9.61580122747616 7.066208652859627 6.940415688194813
Al 7.297197179541921 6.0173292282040975 7.81078022432911
Al 6.089130571503301 3.6229184032565622 9.163290382142801
Al 7.580850568326348 8.637272890201945 7.0257987882384425
Al 5.618123181265221 9.512940029251926 5.533724743591895
Al 6.732796392050449 3.6088577425448167 6.622798287653291
Al 4.600158241461405 5.163959784056855 7.017610527287388
Al 4.124427742546917 7.2415334584238575 5.238899752362921
Al 6.282279265808346 5.819410013563154 5.069449440875098
Al 8.734089621526746 4.983388827804942 5.590378058675118
Al 8.184925512702653 7.466964787459595 4.531507937855257
Al 5.88827062963448 8.048168607161562 3.3217199121289664
