17
Energy = -48.70196745 eV
Al 7.833988495574648 9.29255664738835 3.99560720227437
Al 9.568298263051624 6.421624628483284 8.364132690025318
Al 6.875362929588898 7.126253838014065 8.386911902948784
Al 5.87005764335068 7.666784516010546 4.494937465012229
Al 4.078872377588371 5.163111880471455 7.197792820552603
Al 4.0864672424477 6.887216683561446 9.30989553125218
Al 6.3454332875299055 5.480721534346862 5.922179999499011
Al 8.385503937453867 7.1132604334051805 5.899561563347101
Al 8.862171361862679 8.921355889207137 8.448271229082264
Al 5.818568617933593 4.925975329288986 9.295279985643235
Al 6.7509487495130065 9.257858853742864 6.728927875486653
Al 9.334325597700905 9.712000597464622 6.015116827561231
Al 5.861457994214097 3.0679684643631298 7.323236486534318
Al 8.085585173529303 4.459967168382318 7.679802659121926
Al 4.614739050841784 7.826362753867673 6.9130850682533245
Al 10.988296508793375 7.782807400862531 6.605106056058647
Al 3.8564542745678656 6.060696930527396 4.7198510335009125
