15
Energy = -42.38774976 eV
Al 4.03506636118446 7.9272076902499 4.278520180190256
Al 5.903449126892756 8.738426425795792 6.051319440157399
Al 6.564384143903262 7.778367584516911 3.3204742017878437
Al 8.262277647934098 7.60197738658 5.34152425590461
Al 5.113492367812927 5.561942089971338 2.8191335181384405
Al 4.244509951781366 6.985715399384232 7.170385974724793
Al 3.4044806206479716 5.498272636205904 4.908577180056288
Al 6.129468306582189 5.996888815770125 5.311570261868511
Al 5.4810012560172785 3.5287639213417625 4.539990686329837
Al 6.969597280885882 6.969861296103904 7.723692738953039
Al 4.270816161459294 4.309326979957522 6.9677536880811095
Al 9.054941307382304 5.585813654685139 6.77388162238826
Al 5.6422624018229905 5.045800925761797 9.061144400022062
Al 8.267487548330726 4.84732167486263 9.190059040967967
Al 6.916620828940496 3.913130410229589 6.800086998597741
