18
Energy = -51.70407867 eV
Al 7.626989334154574 6.1552740889915745 7.8845611718037425
Al 8.784538692869907 7.063391259873835 10.167258876180354
Al 9.27179311118612 8.730195798867689 8.010608006146471
Al 8.629133679277432 5.149338757642738 3.9793804927856242
Al 7.885733497852521 9.478703049122858 10.430903535323019
Al 6.860141150854319 6.971285303634412 4.396174655460482
Al 6.538580884733138 4.709351094289242 5.952437109089369
Al 5.262112223480107 10.231636055634524 9.903325120469164
Al 6.328157177499633 8.094272875864727 8.833128032369947
Al 7.973684053725138 2.7826831934625593 4.87126391038915
Al 7.408391544559755 10.656332914137428 8.092667399798476
Al 5.095206454172267 9.99093731042565 7.009701724445483
Al 9.279935294836442 4.4549355977388725 6.628605505166069
Al 9.320798520175758 7.070410422239706 5.794086204260554
Al 7.28926587577448 8.76523775115696 6.1952600982520085
Al 10.45186165458853 6.236000280977009 8.197447755582628
Al 3.571618817406707 8.404336760990859 8.471648023608198
Al 5.179017256086745 6.959926481358288 6.7313231054625815
