11
Energy = -29.53785128 eV
Al 8.288699596322086 8.39624753325767 5.5518451408911105
Al 8.095306610609597 6.867747897397503 7.775441850315448
Al 5.710032715635234 8.69879363762193 5.4440295223777015
Al 6.88545711454242 6.172504933964154 5.36455954241548
Al 4.2823162326779824 4.1480071594217085 5.400285287979443
Al 7.412747087475377 9.879779416383823 7.675146094923254
Al 6.670194142490276 3.4014770030984436 5.746389062624808
Al 4.2108295379399 6.6559262430085555 5.795860422018763
Al 8.497029299564016 4.3716393598306835 7.30190563923069
Al 5.672040022668312 7.755608339792171 7.931908416239579
Al 5.775347640074945 5.152268476223503 7.5126290209834545
