13
Energy = -36.42034178 eV
Al 7.859054576727462 7.859054576727462 11.495728676681491
Al 9.31065600000003 12.226390966676941 9.31065600000003
Al 7.859054576727462 10.76225742327236 11.495728676681491
Al 10.76225742327236 10.76225742327236 7.125583323318574
Al 10.76225742327236 10.76225742327236 11.495728676681491
Al 9.31065600000003 9.31065600000003 9.31065600000003
Al 12.226390966676941 9.31065600000003 9.31065600000003
Al 10.76225742327236 7.859054576727462 11.495728676681491
Al 7.859054576727462 10.76225742327236 7.125583323318574
Al 6.394921033323116 9.31065600000003 9.31065600000003
Al 7.859054576727462 7.859054576727462 7.125583323318574
Al 9.31065600000003 6.394921033323116 9.31065600000003
Al 10.76225742327236 7.859054576727462 7.125583323318574
