18
Energy = -53.10541356 eV
Al 8.59979378853945 3.967740999128386 6.13537551283259
Al 8.055819818586698 5.195326836772611 3.776473377125
Al 5.924820625618515 4.394324678415099 5.095459948116191
Al 8.57655509815032 5.52418481581135 8.840156013918488
Al 5.987915896152342 7.017519844430266 4.068868543291278
Al 10.11063865295429 6.3414596981864 6.896966829272288
Al 6.423025753744591 4.160327947123375 7.761917476279379
Al 9.521236388773112 7.2300564237764275 4.564187002028443
Al 7.379468759129838 6.360094152280545 6.258209111157438
Al 8.22883801182851 8.323575238931133 7.766544794947877
Al 4.379131535398728 6.046662260726422 6.491188626794121
Al 7.7572303283710164 9.015966668334764 5.075208101395092
Al 6.1755416244813865 6.842776615326833 8.722915121824988
Al 3.512992048024107 7.70708142775688 4.419914454261155
Al 4.174164520777497 4.674305502904702 8.917781653244045
Al 3.5590214327975325 7.155844483535431 8.872231566590935
Al 5.647211404811144 8.521716473577415 6.563630215779228
Al 2.9920674480525777 8.526509069173473 6.778444787332254
