15
Energy = -41.89211345 eV
Al 7.87145359773785 4.957251275174203 4.036667635452966
Al 4.588155444629446 4.855688020379586 6.2601339626755035
Al 7.728296579992927 4.95451287049173 8.680888691830601
Al 5.426070138415202 6.32585327868956 4.153995982056033
Al 7.195956907351596 6.304101100435276 6.341168801054434
Al 5.295307771830712 6.323562877359659 8.415880223463297
Al 7.759010819051296 7.637061425402874 8.68340682461712
Al 4.620954223628633 7.81017831063533 6.263009442472671
Al 7.901143071494935 7.639603954169748 4.039166666612655
Al 5.610244755263567 9.073900471611877 4.0114042366075395
Al 7.171392158228794 8.912856107210947 6.341730356132063
Al 5.470803576846415 9.071575984134714 8.57206123048645
Al 5.408226611769707 3.5719528528628794 8.566863593948492
Al 7.113300630122246 3.6963861965104257 6.336826426708542
Al 5.548839073019345 3.5746706343139842 4.005951285264567
