10
Energy = -26.48240703 eV
Al 3.448212569074094 5.822192756393146 5.558181432511835
Al 5.700555181781678 4.7356354619701015 6.19508672097828
Al 5.023466262672101 7.08736877645234 7.548024803675492
Al 9.350667693222272 4.652701041259174 7.326055218179423
Al 7.133198933245378 5.860308452899449 8.175309427621658
Al 9.560286988150283 7.149226839486033 7.470303108133781
Al 7.3277872246517886 8.271976784120632 6.8073027624463105
Al 5.865360082080821 7.166748874641791 4.833521108033644
Al 7.981393620131352 5.934123642594944 5.438001920694134
Al 3.6138787059171404 8.324524631109298 5.653020758652493
