11
Energy = -29.64412077 eV
Al 8.635849090682894 4.3888051863126885 6.608714902855152
Al 9.116586281677986 6.904648781877727 7.215413417738236
Al 6.152501784263885 3.8681666623603124 5.910167889307216
Al 6.670840323846081 5.9955744094387065 7.812291529247627
Al 7.110200132332039 6.262272854894419 5.162299410833228
Al 4.750404676274984 5.301496227785924 4.0176639492617605
Al 7.550483327628022 8.386798304904973 8.962784606054008
Al 5.015953327260317 8.146375804858454 7.810600828235259
Al 7.198206331933708 8.592834063733333 6.314014274343359
Al 4.935909417657273 7.869496080088909 5.045191408029692
Al 4.368718469124084 5.789184786426472 6.646510946776248
