14
Energy = -39.38275629 eV
Al 10.334245999999998 6.599821316487087 6.599821316487087
Al 5.294527869693942 6.599821316487087 7.971755317302198
Al 7.905114763280228 6.599821316487087 7.971755317302198
Al 6.599821316487087 8.949232329338145 7.973213995783465
Al 8.901985666516596 8.804505327967254 6.599821316487087
Al 6.599821316487087 4.250410303636024 7.973213995783465
Al 7.905114763280228 6.599821316487087 5.2278873156719765
Al 5.294527869693942 6.599821316487087 5.2278873156719765
Al 6.599821316487087 8.949232329338145 5.226428637190708
Al 6.599821316487087 4.250410303636024 5.226428637190708
Al 8.901985666516596 4.395137305006916 6.599821316487087
Al 4.297656966457575 4.395137305006916 6.599821316487087
Al 4.297656966457575 8.804505327967254 6.599821316487087
Al 2.8653966329741705 6.599821316487087 6.599821316487087
