16
Energy = -46.17862936 eV
Al 8.859886813054427 9.099484017740528 5.391008723624649
Al 6.718086714763678 9.353803633991687 3.7212535101464943
Al 9.60315360662459 6.709229299561773 6.231584407925008
Al 7.436889821603877 6.82875009112837 4.680654150357646
Al 6.263715923427772 8.91446390566532 6.36434080153105
Al 7.803916507536572 7.779159052368768 8.142747084642886
Al 7.79067881771813 4.363723494809176 5.6789894359638335
Al 8.469997485535158 5.215562855031872 8.141453839544146
Al 5.3285407939909 4.831015142080911 4.655712571991316
Al 5.011548325896093 7.97271643103978 8.494402067624813
Al 6.48797070277348 3.518296907576152 8.193084140368603
Al 6.228067803104378 5.897906607876947 9.600608322547224
Al 4.1741051634366855 4.062822116537881 7.14801392980668
Al 4.856283596544934 7.478110584595122 4.5646066107835015
Al 6.094329674301703 6.063708010090084 6.910870752091946
Al 3.4629003574649553 6.531058945104312 6.654324721079886
