14
Energy = -38.49809429 eV
Al 4.106419346809139 4.996384818557833 3.199665307667656
Al 4.12071124998725 7.570183649621861 3.189917394900811
Al 4.4689646332036475 4.88956526163226 5.872268744477367
Al 4.48437710998879 7.693041738132614 5.861937888554725
Al 5.031961090574379 4.9870160678412665 8.477857904910241
Al 5.046560954820282 7.606883724540187 8.467718974840986
Al 6.568847580843316 4.948104187467901 4.086736272825329
Al 6.583363493124256 7.595160503366197 4.076940704058304
Al 7.074230553907053 4.954190124962559 6.743778073645097
Al 7.089288571052864 7.603694611165934 6.733541080235319
Al 7.611116487830047 4.979148813892816 9.388315153968588
Al 7.625743372577394 7.591287959934022 9.378049270239181
Al 9.359615555500849 6.268101229101175 7.479549423361617
Al 8.77380568630672 6.262242996309221 4.988729635975932
