16
Energy = -45.17168163 eV
Al 6.243884457165783 6.134118221157523 9.540629288363748
Al 7.0351854734229455 6.110071206172627 4.800497665786672
Al 6.514612151669744 7.921104586146942 7.264402567299934
Al 4.976004462990519 8.034261874594092 4.802081970466405
Al 7.246569736893967 5.1849673507425535 7.262963627004478
Al 8.789107617638654 6.709958787063322 8.901649956306416
Al 4.790865543969246 5.956468660309592 6.324485668413608
Al 8.499427477027275 10.36403543725105 11.142187631152435
Al 7.474348802596804 7.979828120261866 10.909877728323215
Al 10.684516887998887 8.424857105302976 7.855172652091159
Al 7.473750454157009 8.734187358768809 4.733923383438299
Al 9.266543488621126 9.86287779721962 6.192525200459435
Al 8.170222142081093 9.552499390691683 8.589660223303216
Al 4.678473927701031 4.4115131235959115 8.396967752147228
Al 9.02790728683992 7.061511230567746 6.262490813609482
Al 10.193667145985735 8.537019922213169 10.357083282756617
