16
Energy = -46.5979724 eV
Al 9.534257136039443 7.937905664841775 6.190195253862542
Al 7.686773132874724 9.168674158303409 7.625205670246788
Al 7.99178123173996 6.586745892357097 8.878803712499705
Al 9.138411446009746 5.244426178019347 6.950982561826898
Al 8.647599288055492 6.431618211961969 4.016827536435341
Al 7.4728149072987815 8.841664697907317 4.500462489622091
Al 7.078391206643522 6.8795402617309875 6.32986466386988
Al 5.5881030129614855 7.688609543469974 8.531729515159384
Al 6.140180186308257 4.836736539953725 7.705621969434219
Al 4.314990667866739 6.493771277259723 6.377194808573062
Al 7.340163476922092 4.417297220101965 5.176992545392431
Al 5.789339313494252 6.534154160967879 4.080347764083712
Al 5.337132659694747 8.910600253947356 6.013084202062866
Al 3.4567717949720986 4.05730561945433 7.3634799486030715
Al 3.722837282502767 5.917386520757924 9.146812614182798
Al 4.783193163350698 4.0763037057004246 5.1351346508809605
