15
Energy = -42.03434513 eV
Al 6.48442515806277 6.48442515806277 6.48442515806277
Al 4.96855350928415 4.96855350928415 8.00029680684139
Al 4.96855350928415 4.96855350928415 4.96855350928415
Al 8.00029680684139 4.96855350928415 4.96855350928415
Al 8.00029680684139 4.96855350928415 8.00029680684139
Al 8.00029680684139 8.00029680684139 8.00029680684139
Al 4.96855350928415 8.00029680684139 8.00029680684139
Al 4.96855350928415 8.00029680684139 4.96855350928415
Al 8.00029680684139 8.00029680684139 4.96855350928415
Al 6.48442515806277 6.48442515806277 9.66740676
Al 3.3014435561255415 6.48442515806277 6.48442515806277
Al 6.48442515806277 6.48442515806277 3.3014435561255415
Al 9.66740676 6.48442515806277 6.48442515806277
Al 6.48442515806277 3.3014435561255415 6.48442515806277
Al 6.48442515806277 9.66740676 6.48442515806277
