19
Energy = -56.2183276 eV
Al 9.229146644954959 9.255474531821596 6.8596904673893135
Al 8.277329564232078 7.77390437860243 8.983879585062537
Al 9.271751604399318 6.32515397577688 6.956085945149425
Al 6.985399443395325 7.695252231569357 6.542752123658432
Al 6.532870370811605 8.997460969485077 4.143658343404712
Al 4.865073752439934 9.353450112440372 6.135550774643785
Al 8.973483653138517 7.622887710796793 4.634808903128356
Al 5.802962813515229 9.15328267347304 8.577964267348161
Al 5.839173131668503 6.842670042490833 9.964127523299863
Al 4.539134745491294 6.963623214049652 7.536958956027538
Al 4.511670649323475 4.668101097859473 9.136464401733651
Al 4.963959656337112 6.874017122873322 4.871570747226368
Al 7.001218531825382 5.344565368963575 7.98169027507076
Al 7.41658477021065 5.260014694386947 5.326783176331995
Al 6.958721905313319 6.603032112246923 2.9804834761350074
Al 4.739473816750404 4.694913955789919 6.283073075517043
Al 5.918761338110034 2.8327403153018613 7.8449148064187275
Al 5.382455979254119 4.50028413189741 3.4953252677785547
Al 6.306048094260296 2.7543918256056688 5.259438350106464
