11
Energy = -30.06944868 eV
Al 7.942502404500145 7.563455345039008 6.978111999433115
Al 7.292999600668897 7.640741136960762 4.1272433810561395
Al 8.83892896065071 5.77641561052505 5.0961524941723475
Al 6.7963274066414225 6.689298426354229 9.307168173350805
Al 7.290898089288035 4.989276273503238 7.209437258144661
Al 6.554194773118345 4.714151840366617 4.4049079135826
Al 6.294147432861651 9.423697945780665 5.7594409562685165
Al 4.898745990429873 3.9433227747438058 6.2746121798470424
Al 5.5385860248170955 6.696999930025917 5.992363398388305
Al 4.656448704843505 5.566479694483868 8.31360646356505
Al 5.399425050588517 8.499365460625302 8.04016022060001
