11
Energy = -29.67350454 eV
Al 8.111037234473443 8.439075375760373 8.709842967619267
Al 7.427021699585113 8.127902577236616 3.71043327792219
Al 8.001516656862155 5.837525061995747 8.783026850197007
Al 7.151044421160936 7.400927535489819 6.351741389847311
Al 7.586574620836173 4.743219125956219 6.449511384556033
Al 5.038847874403829 7.217373334362332 4.208625085937677
Al 7.311102366801527 5.541253038649815 3.9811542822534736
Al 5.708876919090358 7.483968232184781 9.024760270083389
Al 4.5148891488560965 6.99713645386724 6.754136820404312
Al 5.115857207920035 4.771174082139254 5.312730768611012
Al 5.533231850010753 4.940445182357832 8.214036902568738
