12
Energy = -31.98899133 eV
Al 6.737209692283639 10.294654 4.8643319154252715
Al 8.145849561905086 5.413005220642041 5.354476891940521
Al 8.145849561905086 8.06141416392524 5.354476891940521
Al 8.117448549101054 6.737209692283639 7.680263965395073
Al 6.737209692283639 9.106089827742169 7.418111643505685
Al 5.328569822662194 8.06141416392524 5.354476891940521
Al 5.328569822662194 5.413005220642041 5.354476891940521
Al 5.356970835466225 6.737209692283639 7.680263965395073
Al 6.737209692283639 3.17976538456728 4.8643319154252715
Al 6.737209692283639 5.44256047131974 9.751596819761339
Al 6.737209692283639 4.368329556825109 7.418111643505685
Al 6.737209692283639 8.031858913247541 9.751596819761339
