17
Energy = -49.80503291 eV
Al 6.492124647924869 3.0276438190120825 8.225275847056043
Al 8.244608315279 5.082567399092214 7.647847535701927
Al 9.60159078015152 7.2971397766526565 6.614532627774557
Al 5.631730263419431 5.698570207450104 8.496599268289621
Al 4.066045682335882 3.7028828626418475 7.338219008611792
Al 7.614530046001674 7.326645663254461 9.078009003142961
Al 8.375403347284553 5.482221745452144 4.922894331460892
Al 6.252889441963654 4.307860109775682 5.863156778197815
Al 8.325789260326463 9.393074689992194 7.693932415632459
Al 6.888590663301872 7.165662578704491 6.429079761950714
Al 5.227334053934985 8.393218641740686 8.00955332511422
Al 3.7829595004644756 4.225721117965655 4.700486531198087
Al 8.119168439270084 8.028666582404522 4.161707907544692
Al 7.02823748817294 9.980405382921163 5.568363055834794
Al 4.141048588115909 6.397795619389204 6.40747567914451
Al 4.849635655075072 8.643941374782543 5.201190216672515
Al 5.83649308381812 6.324161685608009 4.119855963512486
