14
Energy = -37.81361134 eV
Al 6.559537698631017 8.490441216494842 6.559537698631017
Al 4.628634180767193 6.559537698631017 6.559537698631017
Al 5.222478873641374 7.896596523620656 8.873482133066219
Al 5.222478873641374 5.222478873641374 8.873482133066219
Al 5.222478873641374 7.896596523620656 4.245593264195817
Al 6.559537698631017 4.628634180767193 6.559537698631017
Al 8.490441216494842 6.559537698631017 6.559537698631017
Al 7.896596523620656 5.222478873641374 8.873482133066219
Al 7.896596523620656 5.222478873641374 4.245593264195817
Al 5.222478873641374 5.222478873641374 4.245593264195817
Al 7.896596523620656 7.896596523620656 4.245593264195817
Al 7.896596523620656 7.896596523620656 8.873482133066219
Al 6.559537698631017 6.559537698631017 10.831734
Al 6.559537698631017 6.559537698631017 2.287341397262034
