16
Energy = -46.08344271 eV
Al 7.6922539395970135 5.597790955185315 6.3881580113206375
Al 10.090949215747536 9.972693563507253 7.738157280390683
Al 5.69355298243639 7.446988269879631 7.709394941667754
Al 6.7420686754228285 8.059709406553576 5.334316339322632
Al 9.074682579671343 6.871857582927667 4.4298297636214095
Al 5.064272165760661 5.712871949657315 5.708926290703086
Al 6.8058537668375285 5.768545927378034 3.6961722307118903
Al 7.984814791249841 6.197584497973126 9.006385139763577
Al 6.567381527806952 8.29281872086227 10.16454917518393
Al 9.453592243963055 7.362693128271192 7.129255797852619
Al 4.821794920699607 6.330890684465748 10.05945429696472
Al 9.139142222995046 9.38874469606897 5.333698737014195
Al 3.4515410559825677 5.9325332710514465 7.820964959242728
Al 5.936236689761384 4.739013035694555 8.204393120192828
Al 7.50370004530415 9.248262921668589 7.619980442041641
Al 9.134452238533745 8.59766913502485 9.731001844431228
