11
Energy = -27.53291554 eV
Al 4.019519272182337 4.458430181152796 6.610500827887075
Al 4.633822893338408 7.266076953770766 6.48324916150946
Al 5.5853578120165945 9.740378759964523 6.395335432465266
Al 7.339390365443678 7.769421003773394 6.46709225993161
Al 6.50233196571137 5.369288893196761 6.5735355673832245
Al 9.273490457643028 5.938475521923058 6.562480165190056
Al 9.921319526974074 8.455270380713186 6.447132054904167
Al 8.094663434477878 10.244188107059356 6.37467368790708
Al 5.944127665299732 2.7372437077397413 6.712961619242672
Al 8.348994128307677 3.5423637166306228 6.688516634867124
Al 2.1369977725437312 6.278878096361678 6.484537996039846
