16
Energy = -46.43670371 eV
Al 7.87809619332474 3.1645599732906384 7.2501682976361
Al 9.89209287526938 5.954452387035183 6.012646644994882
Al 8.592531209713412 5.404367961325602 8.273410019066393
Al 7.201915047274712 5.376549361782112 5.771203463981566
Al 8.419703319817193 7.476033429817995 4.51973018313779
Al 8.171827598100915 7.717613593027802 7.268936475282791
Al 5.726772599620075 2.79725847318514 5.902932287854291
Al 6.568284712718518 6.957000243148995 9.389517576703902
Al 6.275400910277615 9.354047649711392 8.449171190893411
Al 5.726865144423174 4.832560676633322 8.017223153871429
Al 6.8473755215400836 9.364032851337392 5.836251246197184
Al 5.792140210904574 7.096992509299141 4.312506736997661
Al 4.464345870439285 5.032415164602817 5.566696242189316
Al 5.2814997896766975 7.24084875325672 6.997025639846101
Al 4.321033507465115 9.256273713167356 5.42476643036416
Al 2.960456293494016 7.095334063437761 5.128155215042675
