14
Energy = -39.6730864 eV
Al 7.545160339466276 7.910421602890875 2.9197883130801405
Al 7.4024594503543755 8.095800560491893 5.646811092440158
Al 5.3645960594589965 6.780479934238726 4.224569764811116
Al 4.741575288161584 7.815676726805715 6.830011389850402
Al 7.77893510636665 5.588376494305865 4.47329207126839
Al 6.432709235700436 9.435047912257781 7.797266253242342
Al 3.3799037817065263 5.92819532374875 5.77709303909888
Al 8.632563234556411 8.342482224771077 8.055391092699958
Al 4.25278140765345 5.380692193126054 8.284395825381248
Al 6.444680252007285 6.891564387277012 8.761405755273218
Al 5.832678464459298 5.0735036372619655 6.1826338381907116
Al 8.039400523471977 3.6416471403746353 6.261416332993728
Al 8.51646643882144 5.9404393697371285 7.260899012431562
Al 6.64680080868951 4.186382883587138 8.535736610112355
