16
Energy = -44.89008338 eV
Al 10.094992643936484 7.908676583632532 7.344886777617996
Al 7.260316644887218 9.231961776563484 6.995709336540128
Al 9.589730916064514 9.73095796501946 5.5669465594470235
Al 8.172817875232125 7.3585514200489595 5.286263294537561
Al 5.968983722875293 5.002248469072141 8.449361795541698
Al 8.401260208764894 5.870669012505737 7.587652843797067
Al 6.9244495542326225 4.6580096904840556 5.81732143647418
Al 8.712380127156138 11.51807488415328 7.265622882131412
Al 6.110748662167311 6.632928003414638 3.918774877380267
Al 4.436433600099811 5.046518660882121 5.020887527852801
Al 5.711952404353453 7.1126216494529615 6.638173695113047
Al 6.88837630659682 7.6288793046200025 9.077308563646435
Al 7.729379072332983 5.405100651081318 10.286383831060514
Al 8.864043798387492 9.66079628536536 9.085150901383203
Al 3.6432571429272147 5.507771731923267 7.424031304152463
Al 9.473755535212769 7.19592900954105 9.888730490835705
