16
Energy = -44.07034315 eV
Al 7.551192126320593 9.065236150483186 6.032097630678227
Al 8.37106890832233 7.477208272713403 8.037633833312633
Al 8.74891572199773 6.684617994327968 5.212261113383047
Al 6.44207621024307 7.943579371170543 3.854641389653693
Al 5.935005957852181 8.58682703099026 8.280462650338487
Al 8.601667044551034 5.029425907968813 7.677763230991544
Al 4.7610491087816555 8.860856837043084 5.740596174508023
Al 6.647059894866616 5.4959360539833 3.4769515527581087
Al 7.9879404554985785 4.001418840770327 5.266495270463014
Al 6.303079717141165 6.303280102084532 6.3029100793873685
Al 3.7785086244881487 7.1500630056358645 7.5677638934776725
Al 6.378562071793817 3.52111564221689 7.51678995494481
Al 6.059728701753458 5.887629156539662 8.964719669946373
Al 4.100214594888015 6.344633057517719 4.73425503412635
Al 5.203222179814427 3.7970372301322777 4.982292141722457
Al 3.9807870407221517 4.700818853948339 7.201750794849941
