19
Energy = -55.56321694 eV
Al 5.2597001752597805 4.644551258468184 5.7054645001959186
Al 9.342585594500306 6.32761038155604 4.920187085685869
Al 6.613552952340121 9.613185277134026 8.131865914668799
Al 8.075206236518008 8.36377416737014 6.0802962930363655
Al 8.770983873329227 5.768063742822381 7.428804531857652
Al 8.22934637026566 10.023619823160407 10.164776365541037
Al 7.534620116577339 5.47627195840831 9.86307089178903
Al 10.669548460109336 7.877173119710911 6.772692814396412
Al 7.245902821119089 11.032332711657087 5.946912057022396
Al 6.589275932216755 7.921692524802496 10.181626508841513
Al 6.600598501342518 6.6458903271842 4.816555321548512
Al 3.857191315417601 6.877489036133015 6.097295064179999
Al 7.925065833430633 4.136876772082633 5.330198634566731
Al 6.741849049991424 3.96900881511067 7.8260286779855965
Al 8.995328137659635 7.807524261902341 8.934642643683336
Al 9.2695187178941 10.184958184514265 7.587325299193398
Al 5.465376392699417 8.983956809092312 5.802238100889078
Al 6.154357022394468 6.89675359864964 7.681516149445116
Al 4.169993583301484 5.041944478270787 8.153154213803473
