11
Energy = -29.59382205 eV
Al 6.458345020093464 3.980943828548498 5.125119986003706
Al 8.619797419992093 5.40310306610648 5.2541105913324095
Al 5.834167720024189 6.163523734923791 3.7684919907106402
Al 8.15979223555967 7.2444521362681344 3.474485422210025
Al 7.108863444632476 5.531373882860408 7.443744860650074
Al 6.8998204534875045 6.247121723869152 9.999376533903908
Al 6.985448222656998 7.722005647956125 5.816226693197863
Al 4.7318475615974265 6.077447863605886 6.0951922524581175
Al 7.205336706209405 8.284134286879606 8.411238748919063
Al 4.681966392048504 6.260611847045173 8.672334743568431
Al 4.821167488500432 8.591834646738914 7.446230841847788
