16
Energy = -46.90735741 eV
Al 8.521507148476513 6.728086308638631 8.489264240426433
Al 8.866383131288032 7.343546002564408 5.862474747970226
Al 8.496692480047265 4.666119754481212 6.631552860077721
Al 6.679525129848631 4.482768432778714 8.64853745886335
Al 7.195864252495143 8.9332788027363 7.474801176364987
Al 8.486698808248516 7.768175285007952 3.195868937103227
Al 5.790790361449509 7.388082138403166 9.225119421817286
Al 4.688785107369271 5.209848180342557 10.203714968540218
Al 6.509315443994286 6.442362644187296 6.798743908296334
Al 5.8239537820113805 3.982195609906453 6.057700946794681
Al 4.101290333181458 5.553776835812483 7.572527970112109
Al 4.532403708082667 8.217790420946447 6.901896846789437
Al 7.293550530284563 5.498213168521939 4.381798839356906
Al 6.3962617981801495 8.436690411528565 4.966692682050036
Al 4.6173969704348234 6.234553226463356 4.955885007180952
Al 6.002708593951246 7.117640357023977 2.636547567599396
