16
Energy = -46.45934221 eV
Al 7.091083255267247 7.537629183857467 7.9151945783604045
Al 6.053599022005369 5.5662627956907835 9.468930063060188
Al 7.0123035817537565 10.259253439164773 7.632172523780324
Al 3.677193224194732 4.0393111648147455 5.7653362332580596
Al 5.864693920206167 5.312765861793982 6.757219616164535
Al 9.076636270139502 6.733412982337581 6.165802932769317
Al 4.349183818023605 7.017224206121973 8.136282641368716
Al 9.36083030237026 9.019948168212196 7.5695401632006485
Al 6.013131496631916 2.7950005671338016 5.759322546410228
Al 3.969624383012528 6.6558772563099415 5.345927961337401
Al 8.166272236321896 4.967743482334778 8.064129270198254
Al 5.249114273600285 8.767462768227034 6.238626648939143
Al 8.008986223114144 4.501115470575231 5.284221018824943
Al 7.846299165407317 9.087592793566623 5.36684335868729
Al 5.560427595130061 4.7907685155546424 3.950705566946377
Al 6.717292820750634 6.965302932233871 4.596416464623589
