14
Energy = -40.91051535
Al 8.204077342404561 7.038584648513077 5.882085147166087
Al 7.917657240474195 9.324170963327697 7.619785952640997
Al 7.919840919621181 4.595624003636495 7.215902130513607
Al 6.5888183955024875 6.838682854452507 8.220669825393978
Al 5.709852551341189 8.408061759681498 6.008775127462018
Al 6.508417377718591 7.115779614197377 3.6604664883923843
Al 7.848978939484464 4.755317036585222 4.407879837499305
Al 5.892168562895156 5.787075814392046 5.9141523509837315
Al 3.5983291056133537 4.519816573404783 5.92240066990754
Al 5.2632749295629635 4.441902725086917 8.141028736599838
Al 6.042716900176687 3.1733490779503435 5.80122153196865
Al 3.9099834357855427 6.801762382171398 7.419709665546263
Al 3.8644451668172928 6.946116257919172 4.607361981736666
Al 5.185872934960995 4.708190091040126 3.6329943565476013
