18
Energy = -52.38502227 eV
Al 9.364906595916331 7.213675438906866 6.5333415284166225
Al 8.414848848521821 5.328818454499033 8.361766742343
Al 8.549041938005573 7.9589589299052 8.9159670025875
Al 8.544319477313268 4.7256486066182966 5.643470602640759
Al 7.487086476512549 4.570788891605229 3.183821790038346
Al 7.44779367452515 7.0145514707126875 4.577533028287383
Al 5.145268781355455 10.31549056305536 6.203205265561698
Al 7.391961576339296 2.9818506847472372 7.191302481819038
Al 6.667430880951395 6.880574136598388 7.114918749820938
Al 5.249632802204566 5.928488881444259 3.2464967759537786
Al 7.516075371793254 9.275753670844336 6.307533786216419
Al 5.730096639215204 4.559540728851035 8.489628598087009
Al 6.272965162286448 6.862185192841962 9.779248572926258
Al 4.044388197848739 6.317528405317085 7.326394985866111
Al 3.191627438610672 5.458794211375286 4.824947710988686
Al 4.924172442472548 7.86508937211504 5.25602319939975
Al 5.067557558258509 8.740598812494563 8.277718602233747
Al 5.790598988767705 4.788040025368171 5.698348192042244
