11
Energy = -29.15683842 eV
Al 9.212254479421851 6.365184388816173 5.710661983074546
Al 8.084323709547602 7.171236875398888 8.330243058500223
Al 7.612471528617285 8.445288723611355 6.07990475617345
Al 5.446739661404713 9.937204810821179 5.641330526766776
Al 8.825567196207246 4.560383799918789 7.4436674342607185
Al 7.122712824655041 6.472076131488954 4.11252402995562
Al 6.430596777984258 5.749895973761853 6.652258902163344
Al 7.156256265144519 4.916264220042714 9.340448273610624
Al 4.957422043554864 7.38906649790728 5.164939363714395
Al 4.860478360400929 6.061545282306827 9.00682870142327
Al 5.534795109310844 8.197616468113315 7.757147729941874
