18
Energy = -53.04040754 eV
Al 4.233074123783966 9.243223210748344 4.761779164749986
Al 6.784969169746308 8.442755331071199 4.425130393044972
Al 6.738027811656755 5.178209418128599 3.452982721232951
Al 4.55137329861181 6.766614326489125 3.9351680293222566
Al 5.843089453042745 9.252993535761382 6.848115927464794
Al 8.73995033979586 6.765691104683885 4.593853451366752
Al 6.410480694926966 6.230218104903917 5.919262422742185
Al 4.096735451565014 7.133274095196883 6.7820400947438895
Al 8.269460630455352 7.678442756745704 7.0998848417261895
Al 8.648206385915918 4.758167770762565 6.215093203494291
Al 5.969669297044761 7.240821034093783 8.683241940381889
Al 7.347642091871242 9.64005450258961 8.955431791825482
Al 3.9576985270018707 4.728629213756504 5.499079140348715
Al 7.876907494759992 5.2794499304348035 8.760868125681439
Al 6.263150153292437 3.4476232424021656 5.5290235435621025
Al 7.5125456080939 2.8625865108582773 7.773699529582859
Al 8.428083854386967 7.5595013190085485 9.915999025377225
Al 5.336908134223659 4.79971711254065 7.85731917352783
