16
Energy = -44.74699257 eV
Al 6.071542914951752 3.9019254001340564 5.395256792357328
Al 9.115483167718219 7.064082878642431 9.893950617550747
Al 7.686297610420904 5.959733890382371 5.009361482712672
Al 8.775351316142931 6.0240194057317105 7.450702350859212
Al 7.470068946379493 5.048174308973535 9.693294876018404
Al 11.04442377424461 9.745915803971881 6.58285738960588
Al 4.391954077625691 9.581305714766389 9.571709654414885
Al 4.613328403071439 8.016091801378817 7.418414640634295
Al 4.986311312443429 6.453656806733176 5.18835074715479
Al 6.262986573339949 10.162126352338555 7.843079506823923
Al 8.61890227730675 8.94480378031053 7.8482255166651855
Al 6.811498944052713 8.331767754246325 5.956741997920763
Al 6.156445748117088 5.729790095702122 7.4927204348052525
Al 9.5003221491922 7.837318973202262 5.478652103559885
Al 10.984056895210502 7.5307094582633445 7.9222119218121785
Al 6.6046780363736595 7.7561755520511895 9.257259867666416
