14
Energy = -38.87216632 eV
Al 6.646687587508093 10.384362999999997 6.406952954381974
Al 8.015708664008857 5.312716438447911 6.033857894992259
Al 8.015708664008857 7.980658736568277 6.033857894992259
Al 8.311111798815869 6.646687587508093 8.322102185663946
Al 6.646687587508093 8.818713562708918 8.490949600094297
Al 5.277666511007331 7.980658736568277 6.033857894992259
Al 5.277666511007331 5.312716438447911 6.033857894992259
Al 4.982263376200316 6.646687587508093 8.322102185663946
Al 6.646687587508093 6.646687587508093 4.025172175363757
Al 6.646687587508093 9.306887180379817 4.048649468015968
Al 6.646687587508093 3.986487994636368 4.048649468015968
Al 6.646687587508093 4.474661612307268 8.490949600094297
Al 6.646687587508093 6.646687587508093 10.355714002000505
Al 6.646687587508093 2.9090121750161857 6.406952954381974
