14
Energy = -37.8537856 eV
Al 5.202935948559324 6.603384232371251 8.379013078945764
Al 5.208904225844529 7.908431478654898 6.015265199354197
Al 6.603384232371251 8.983835090359147 8.047936064555255
Al 6.603384232371251 5.21236423794683 3.6085014747752746
Al 6.603384232371251 4.222933374383355 8.047936064555255
Al 7.997864238897972 5.2983369860876035 6.015265199354197
Al 8.871909995345206 6.603384232371251 3.702719573847719
Al 6.603384232371251 7.9944042267956705 3.6085014747752746
Al 8.003832516183179 6.603384232371251 8.379013078945764
Al 7.997864238897972 7.908431478654898 6.015265199354197
Al 5.208904225844529 5.2983369860876035 6.015265199354197
Al 4.334858469397298 6.603384232371251 3.702719573847719
Al 6.603384232371251 5.323545057614454 10.454989010032776
Al 6.603384232371251 7.88322340712805 10.454989010032776
