18
Energy = -51.70292234 eV
Al 7.978249534917301 11.383707861688665 5.848208008810384
Al 8.905394162973101 4.608116511405701 9.275842125146838
Al 7.158736003989838 5.111877274887318 7.399098635516705
Al 8.604800136351038 8.88085246460482 6.996481378833227
Al 6.0622080554358115 7.631744845930162 7.482279262785827
Al 8.939600062462175 11.316405386523918 8.2340333758136
Al 5.670011150826994 11.265155302496016 4.592936552067158
Al 9.772494176132463 6.39826905187181 7.170856938521861
Al 7.077702436631475 9.628745324374995 9.4085133771598
Al 7.98563562984926 7.1206667499923935 9.179183151603151
Al 10.700335389055857 8.08223546775751 11.828001176106875
Al 5.943937707682194 10.323975466414506 7.20284931183272
Al 9.990514250273334 9.285992547817333 9.44132743724917
Al 6.529961522456293 8.829099516695793 4.990834715609225
Al 7.880663033914637 6.709761138071842 5.426438168601943
Al 8.117932443904945 8.504043479987075 11.510538292849906
Al 10.748423763964379 6.73107415870285 9.561917753074649
Al 8.987966167418268 5.966454983998011 11.476591651640378
