13
Energy = -36.29811768 eV
Al 5.320387773300589 8.892067442667075 7.0311502386642575
Al 5.320380882574697 3.582641870095382 7.031151387118572
Al 4.923857114205934 6.237357527516954 7.410425325219644
Al 7.6297679959070335 4.8376786023808265 5.999029039013294
Al 7.62977144126998 7.63702152274698 5.999022148287399
Al 4.149570542722173 4.917116379300276 5.224348261412704
Al 4.14957628499375 7.55759408191637 5.224355152138597
Al 6.939749598961797 4.9551969445743085 8.597802942137337
Al 6.939754192778934 7.519480211467312 8.59779719986576
Al 6.367292319857534 6.2373586759712705 4.000295995029485
Al 6.263342093836763 8.866438262913679 4.19458664751997
Al 6.26333864847369 3.6082744952113446 4.194579756794076
Al 9.18877024094737 6.237333409976455 7.581015481992013
