12
Energy = -32.10711691 eV
Al 5.153698218523722 4.953176266934148 5.050225069517063
Al 3.781262151089108 7.197524747663088 6.107381637080263
Al 7.793877019145037 5.673323971089119 4.389671118608273
Al 4.515966802628686 7.9760026380222 8.574962555590242
Al 8.265020596601786 7.718140824240028 6.177244967701358
Al 8.437584361108645 4.912168429284891 6.870921676212891
Al 7.219246227729875 8.412522183738707 8.693638048770877
Al 5.944130962401769 7.458696986751804 4.504290889252988
Al 5.961336835949111 3.5773721238959304 7.274050693176305
Al 7.291439947154558 3.173287010262985 5.053432842614753
Al 5.86839884049398 9.038681611505009 6.458954771879931
Al 6.1511166911918815 6.284135079247142 7.227508903241971
