16
Energy = -45.59947048 eV
Al 5.734945597866337 9.565065467927978 10.674694165219286
Al 5.037792973924044 4.705928906110162 5.812611160084207
Al 6.669775542640189 5.9181609520078275 7.6437235615637995
Al 7.442662304477107 9.957857792815988 8.61194612535614
Al 5.330650753131579 8.404160184689875 8.199894203442964
Al 8.298878265861719 8.826424649326901 10.980064030137166
Al 7.5914222857138824 8.394329356238723 6.39905038884042
Al 10.423344796597892 8.137194642273553 6.921599089368643
Al 9.17636798320098 6.026007569639628 6.176088618127636
Al 10.110583368807427 9.451128025371998 9.232985463540496
Al 6.538449703469178 6.960677723950969 10.118066745356142
Al 8.783556337936833 7.193290287900168 8.752920454257051
Al 9.298912819511473 10.559271500864915 6.814604047069384
Al 6.9862652458306735 6.492341651269952 4.644399693689212
Al 4.866443226274439 7.298316593659619 5.951642570486509
Al 7.537172641235364 4.073199019101683 5.725523931492151
