13
Energy = -36.16970419 eV
Al 7.618812625903369 7.296800140095457 4.252172499886634
Al 9.52367860538212 5.730054820048664 5.869334306508108
Al 7.148088691652399 4.799859800942823 4.894883426700009
Al 8.012694087331896 4.123121778316327 7.7708208224310145
Al 6.610898176023141 9.11610013412309 6.1257654798819114
Al 9.161666998601236 8.373087888742978 6.211843939595864
Al 7.309789376776707 6.639937573261575 7.092260718246638
Al 5.253340013856357 6.808689390131078 5.299398642030995
Al 5.465088664459059 4.430215708439002 6.850619861145623
Al 4.01191817101073 8.935571502699819 6.612685754442906
Al 6.310042892698202 5.609541969236065 9.328240800338017
Al 6.0282364102917585 8.286440144953325 8.721095388659354
Al 4.260170568130665 6.539435865582484 7.727392311042328
