16
Energy = -46.03929345 eV
Al 6.953828037369298 5.523634213087416 9.22561317510656
Al 5.849916349820175 7.754314500018759 7.426437651569832
Al 4.519773481402889 5.474916802913846 8.304522475338354
Al 8.427944371574037 6.673056448757908 7.452095713392911
Al 3.4894700963942045 6.572573833986176 6.24667816101912
Al 6.052703193210732 3.198416778022156 7.7959984841611
Al 8.532740457408654 3.9735452847250023 7.4258464983959875
Al 5.250826473488724 8.023421069667728 4.671526500649487
Al 2.7939641385100846 7.427245774684979 3.81944067512828
Al 7.715480735412008 7.745643257037827 5.268426441319018
Al 4.061279911492807 3.7434368720820075 6.205835511023769
Al 8.712479517944717 5.083081715132906 5.060926237746502
Al 4.7784561645657835 6.981286141238073 2.1595073652894956
Al 6.257918746026363 5.373034537344361 6.103225792150682
Al 4.281069787914444 5.086959817855583 4.019114833828988
Al 6.880919678628957 5.91924878986001 3.398383410377497
