14
Energy = -39.06322667 eV
Al 3.058768638145855 8.443276236258235 6.591407838829027
Al 5.40523120226479 5.588064487261534 3.7294376522874306
Al 4.147353962916665 6.215965316572518 7.869005581678703
Al 7.383902729952734 3.922494745222218 4.4752256969769855
Al 5.466357610286114 7.705241615011154 5.61111202141891
Al 3.2840213991288008 6.122611545894192 5.298215045993576
Al 7.656076578040626 6.534020813717416 5.168752803317819
Al 7.7888077200783306 4.256413514105589 7.1366689208565965
Al 9.32353464444292 6.485375662848117 7.310159307263617
Al 9.763417245451775 4.844112331687396 5.253897008800032
Al 5.331724762950511 4.500065674164381 6.2969944402676346
Al 7.705226842123305 8.624837956099228 7.082633187761525
Al 5.224795776358465 8.693619778927799 8.127483819775362
Al 6.715835944427796 6.325653830677168 8.312532908518856
