14
Energy = -38.63449747 eV
Al 5.809171094062262 6.745528414624053 8.499526454278817
Al 8.663872472579502 6.893934393101409 8.779644257179202
Al 4.817170830260358 4.214106765333938 8.736536492726962
Al 7.407019541799492 4.562859233174738 8.615032296821585
Al 3.589285019690613 5.725765017628881 6.989278216079377
Al 5.835520811013082 4.428127866557923 6.213902045862005
Al 7.983446599991294 6.028990381401824 6.3468356641533665
Al 5.410866455972391 7.532174993538237 5.966253433137746
Al 9.654681191494744 8.082083081026349 6.540073983512759
Al 7.2098081011867245 8.786893302938681 7.461570454171806
Al 7.7682652382834565 8.240900046384397 4.688269317296742
Al 5.514670604961892 7.899411155536324 3.339731375180713
Al 4.107915147769146 5.817339897207416 4.388151644299556
Al 6.8004026640345545 5.613981176099738 4.007290162670992
