16
Energy = -46.54565755 eV
Al 8.585437101827738 8.946720468604527 5.844356376441747
Al 7.1192240424156195 3.8916844660658447 5.368146364805572
Al 5.3149089738623365 4.513831844454524 7.1875258845292
Al 6.405555913106594 8.26746486932567 4.119537103442342
Al 7.843817304801149 6.394246676341144 5.893019657499684
Al 7.253555965245299 5.631808016010257 3.42736918829442
Al 3.9961265632044394 5.436645896511832 9.359102412613822
Al 6.260023271706095 4.1689082453733715 9.869171810507376
Al 8.027928153288551 4.83524700335848 7.909807756293866
Al 8.64652049160146 7.62648295476398 8.099852457011306
Al 8.99492705285652 7.567143494370984 3.658308946608635
Al 6.1646615228488955 8.502093686995597 6.895609807630007
Al 5.13185595774026 5.951308361039127 5.04626777876669
Al 3.9031800490096966 7.0026355648118 7.269690039894489
Al 6.256625376836671 6.839914337866986 8.873661404272566
Al 4.097374940145573 8.425586794601816 5.180295691884344
