18
Energy = -52.35744008 eV
Al 8.677953834409728 7.443921885706312 5.558434124774244
Al 7.440504288615322 6.640456302615233 3.192581412514445
Al 9.295370148923501 7.83813959817691 8.156005825351572
Al 8.32319534286699 4.887207082282132 5.331866691414351
Al 6.346670626133966 8.961191501858906 3.875472295504357
Al 6.722391490034814 9.03588895797363 6.531376519104744
Al 5.9744438606416415 4.538488460054404 3.6572586770145326
Al 4.553256368914774 7.016831888218854 3.0971184056989736
Al 5.785621144327238 6.667959829732606 5.394921582542972
Al 3.6033582059107863 5.025319593320619 4.749257305170458
Al 6.175859902867456 3.854663548348307 6.349080809017059
Al 7.125570616728197 6.199206699215609 7.496136585422401
Al 6.898487243610575 8.349574044809373 9.203941895404531
Al 8.271473574309205 5.914955132250781 9.850204409385482
Al 4.5746808553265685 7.984338532283662 7.530952858600739
Al 6.5554163528928955 3.921060483402071 9.017643408744187
Al 4.207154769604313 5.425720420593344 7.3303485370624495
Al 5.428645938687438 6.246073540318643 9.669670463949481
