15
Energy = -42.11483275 eV
Al 7.375819572366833 8.470118402190334 4.849553745967982
Al 5.680061643019832 7.783355587540157 6.843076899569485
Al 4.891827658939572 9.387694435149605 4.841843214691864
Al 8.250344385454088 7.481178635681931 7.385321915691322
Al 9.534795092885087 6.992498345609536 4.9395161334940125
Al 10.7293495363574 6.568387015710223 7.192765212485258
Al 5.20438051584518 6.839427535485507 4.027640689388298
Al 3.205432546220325 7.56738686897262 5.825871776158359
Al 7.251466120301164 5.539694916891706 5.216781301586585
Al 4.666940607234683 5.248238280128087 6.099283060923217
Al 8.846913536894949 4.807178106676747 7.240859941212347
Al 3.585512604051172 6.548850287596161 8.222678162949236
Al 6.492541642486469 5.838268900099813 8.478102070586422
Al 6.552883382038241 3.5213828800913727 6.998368536767359
Al 4.465275202812592 4.125492379356087 8.600827605374787
