17
Energy = -50.31016891
Al 7.451502203971422 6.094113552772329 3.7932409512460197
Al 6.04601949798423 6.04745720196178 6.046192352405313
Al 6.016401992613333 8.209530761272807 7.589130002292037
Al 4.636728178482499 5.9992324768687375 8.294084685961613
Al 8.289470035649126 7.494004804008633 6.053156277265494
Al 4.627057830640435 6.046637648816987 3.8013907314860793
Al 6.008697335200316 8.244662570478082 4.553092654754141
Al 3.747321828074381 7.401086810306445 6.064852024699588
Al 4.651413472551948 10.084563044094274 6.0946341244510025
Al 3.803053305690122 4.597471298402606 6.034376603282746
Al 7.274631265682117 10.168249230658454 6.091480481993759
Al 6.0828752836241655 3.85049579980029 7.5428451453591885
Al 6.076075776884224 3.8793110586094692 4.506624383658019
Al 7.467357854714309 6.046190410597363 8.286925490251937
Al 4.820662569501212 1.9216642915448392 6.0090763375019405
Al 7.443552108545934 2.01116481418972 6.005280941761765
Al 8.346166977724804 4.693151743151623 6.022604329163503
