11
Energy = -29.6637742 eV
Al 9.215615238281863 5.160718153836906 7.531943069035856
Al 5.551258373679695 5.133689702418295 4.769298109633461
Al 6.758028906501415 4.183469139675452 6.958607370921292
Al 7.80342976732473 6.405967447960578 5.431273976246343
Al 7.630123463165021 9.221881294809025 5.200698298668274
Al 7.161515871595486 5.661420980679877 9.23000156728351
Al 5.662356403264499 6.605720140942909 7.229672378993883
Al 5.3550685110880565 7.80666325598688 4.857160550226435
Al 8.1765412300454 7.789460299370541 7.57837296243248
Al 5.755141929826222 9.275210249689483 7.149483192035398
Al 6.388947634628797 8.20030031493723 9.51746154405309
