12
Energy = -31.76647172 eV
Al 6.782711385132883 9.979990999999998 6.585923325317123
Al 7.4874316721994845 7.580574685921152 7.940353774535521
Al 5.569241893593246 9.244565148022666 8.816577076303453
Al 7.602604757040999 3.927281502611579 4.355269574330791
Al 5.569241893593246 9.244565148022666 4.355269574330791
Al 5.684414978434761 5.591271964713093 5.2314928760987245
Al 6.3891352655013645 3.1918556506342477 6.585923325317123
Al 7.602604757040999 3.927281502611579 8.816577076303453
Al 5.057563575611234 7.751058175545438 6.585923325317123
Al 5.684414978434761 5.591271964713093 7.940353774535521
Al 7.4874316721994845 7.580574685921152 5.2314928760987245
Al 8.114283075023012 5.420788475088809 6.585923325317123
