14
Energy = -39.03441177 eV
Al 6.287048863121402 5.060145629582996 7.925530255981251
Al 8.913540848000448 5.19829254368455 7.62488121694203
Al 3.942812262989944 4.673495232231046 6.930399129923256
Al 7.422469893398262 7.355877014817176 7.155787107237572
Al 4.703974280014587 7.2442702089141955 7.269770573966596
Al 6.162437086014326 9.626888411550732 6.640149217754106
Al 5.231577187302063 2.328810736523834 5.811636469858851
Al 5.907838431868958 5.839660409658754 5.086085737579421
Al 8.655897303018083 5.954394132898358 5.04860755322097
Al 3.158426603876033 6.349940653323564 4.9683149653391245
Al 7.4086838668253 8.206421426823402 4.549490347193262
Al 4.720280492400125 8.368167727628645 4.820840107755689
Al 7.410779351148134 3.7199918750233962 5.815026311803218
Al 3.9949753986516554 3.9943855690595806 4.274222131801727
