13
Energy = -36.17864482 eV
Al 5.674219288802285 8.727480334042804 5.038167210872909
Al 8.17111821092982 8.212431915521295 5.948717799071734
Al 4.070230992882409 6.702138135931052 4.23883069106665
Al 10.653134716398226 7.291128827900217 6.675258692787644
Al 6.589899407537336 6.095387007986268 4.75903611359626
Al 3.63069904777759 7.69261991666177 6.682919204291586
Al 8.393139445836727 6.362963705688821 7.9211916226234536
Al 6.09083630211489 7.328403837789446 7.372523818038135
Al 4.7241780920155705 5.146152664087292 6.398650377767519
Al 3.932703339883601 6.267682791301586 8.84296911779147
Al 9.140606296430082 5.619689679773704 5.295448656452482
Al 7.298637920694456 4.188175763420353 6.537968254303029
Al 6.13539262919628 4.87054111039423 8.793114131836111
