17
Energy = -49.74411671 eV
Al 8.054942298398839 8.422901499402423 7.527936406920464
Al 3.403146648766666 7.999107897290447 8.141691505165747
Al 5.652600680935191 9.06969415994511 6.495935309659601
Al 5.874728896131925 7.670819000939387 8.94233212727836
Al 7.8524617667190855 8.109802897031813 4.896705223380762
Al 8.0604253118731 6.008670457174808 8.775185090586543
Al 9.38375535750268 6.359804775748282 6.38185618414859
Al 3.098413709320357 9.390640921558342 5.904403141733526
Al 4.07596348573859 6.985640979707151 5.406537991009547
Al 4.252125604069761 5.545728265843634 7.833273392114832
Al 6.561135554404841 6.416737696744703 6.568781224581705
Al 9.267092969906175 3.876811990115791 7.524613628040417
Al 6.369971369581089 6.135837295690469 3.8806338506118063
Al 6.522994092102471 3.98285278526903 7.727910693561894
Al 9.251791930692798 5.8498475349726835 3.733465289656294
Al 5.062718475411024 4.471369645568837 5.489134476270118
Al 7.755731848445503 4.203732196998007 5.269604465280438
