15
Energy = -43.06862482 eV
Al 8.000179513160631 8.312971198280684 5.926744136804215
Al 5.376592563048032 7.467523153807079 5.568198744317807
Al 7.391900001450544 6.727943542163472 10.228610450683135
Al 2.7845941747699037 6.42773150733232 5.391903931942948
Al 3.950194930293889 6.298660408361106 7.639360593934972
Al 6.307984218975934 7.886675927286331 7.95757852414545
Al 5.147078233397058 4.6906680754905175 5.744112756720452
Al 10.351809827350664 6.485415505605559 6.1207901173659875
Al 6.400930156155402 5.1643747064843675 8.049051766720103
Al 8.797397614151894 6.797770892177231 8.098886560391334
Al 7.768719441948122 5.523205687294446 5.861845564010343
Al 4.308202230194598 5.920540249306974 3.4569398038107697
Al 4.902346014015705 6.426234782863204 10.00543128840797
Al 9.235978877510286 6.95228180139053 3.917372470223101
Al 6.786401215424849 6.42831157400399 3.543482302368775
