19
Energy = -55.97635076 eV
Al 3.084930734356494 3.7459136469653846 3.570681440858678
Al 5.334910595148789 3.3412274529779045 4.998205318604069
Al 4.9626504859597915 3.474583989083166 7.648667758539509
Al 4.810005859467436 5.801029979238376 3.669079867868302
Al 3.1952633932243555 5.120260795720208 5.879595213234651
Al 7.665127112531296 3.7716151440870918 6.707139020263402
Al 7.502457034455461 4.958282359006094 4.278831260219075
Al 6.731123613011026 5.202614523350053 8.841449421276462
Al 5.8455106182237655 5.6934418041828225 6.272327833454258
Al 3.993022378980471 5.9859784924893376 8.228004357995205
Al 8.376068314514546 6.561896809939641 6.3821855019234075
Al 8.616172690594924 6.989911147019752 9.017904549041171
Al 4.196327373318556 7.711568741041552 5.785026084422404
Al 10.351997066868723 8.175225747052393 7.24216563845156
Al 6.696100567667433 7.508882139166002 4.471149810389728
Al 5.89080195451414 7.765579863656944 8.031016750618925
Al 8.734984477102135 9.2412999757561 5.225724199767808
Al 7.975571363614111 9.251956983050071 7.77405480146063
Al 6.056165564531539 9.725137467721579 6.00117303522362
