16
Energy = -46.42490227 eV
Al 7.697624271692435 8.599872071754215 6.1797691079551695
Al 9.726525544763213 7.6761034422207945 4.852649317191345
Al 5.678954752830962 10.229301437310445 6.29910541159334
Al 8.147711549142793 7.579964166314331 9.066984427578596
Al 8.874082156804011 6.150397640437243 7.063614719573136
Al 5.200922973874898 7.585014456697018 5.455205001207838
Al 5.062321257152159 4.927473352963327 5.2718475216824885
Al 9.725121734674248 5.128785562481686 4.703416696610587
Al 3.538174911980062 9.04140434137536 7.019642998684005
Al 3.7837228516317127 3.9893698608945245 7.582969462923022
Al 7.278591661128918 6.285969321350691 4.6773248983586795
Al 5.811924735813355 2.743132370130616 6.915756548443699
Al 5.791590095193288 8.132029438220304 8.211841181635714
Al 7.719146821408638 3.9135948172732373 5.776962156688122
Al 3.6702717527509034 6.484752286821512 7.320472523916243
Al 6.306317035433083 5.545839540028499 7.615442132231963
