12
Energy = -30.06197407 eV
Al 5.05039577781398 5.053847204325739 3.817663443798791
Al 4.979323131415369 4.976855218116857 6.3519960576259455
Al 5.063459236959989 5.055041784632937 8.886570048759559
Al 7.636263370832879 5.056486992655191 3.8106305291220632
Al 7.721139165044343 4.9794726648951855 6.345996663951052
Al 7.649077858829566 5.05854637922646 8.880396126657834
Al 5.049005799001434 7.637063235028994 3.8180972546057883
Al 4.975988538703832 7.7182622699248675 6.3524881107942175
Al 5.059613581592296 7.641320910459228 8.887649359201234
Al 7.634594752818203 7.642768040834139 3.8092202436435474
Al 7.718018733919387 7.720915244721618 6.343814563146669
Al 7.6454493597227255 7.641749361832667 8.877806795725267
