18
Energy = -53.06100313 eV
Al 7.4682527251074315 5.904338076038543 1.689149317275993
Al 6.067453546042404 7.401984678220217 3.450262065768319
Al 4.387573441867863 5.851201135585787 5.068349419413402
Al 6.646154101967774 4.628528460768127 3.9500547464433224
Al 5.037652462082915 8.487763529312886 5.826578854039507
Al 8.741797732414692 6.643003759021193 3.969320738759718
Al 7.685940872797529 8.931246159553478 5.240440386550811
Al 6.80835813437808 6.515808134197355 5.952411779209378
Al 4.717693574064217 6.488568162152719 7.650300587344612
Al 8.69662208536061 4.6003801590456135 5.84231402586034
Al 4.534708239722109 8.58903679828838 9.42781333215346
Al 6.027171033077264 4.110040110675788 6.610765064776342
Al 5.582104275354606 4.521950193561036 9.3636174719191
Al 9.328900678755724 7.22376145105199 6.571896067060484
Al 3.758168699196168 6.19106346156979 10.301270670943202
Al 6.505911951442399 6.9224013702883385 10.048709184728468
Al 7.9248065362072415 5.626159849130815 8.207685012014176
Al 7.080729910161797 8.36276451153908 7.829061275739892
