19
Energy = -55.69042685 eV
Al 3.758550793535597 9.72589403225115 6.856831622272471
Al 8.37467838982761 9.257383789974696 7.398861019530737
Al 8.221201513977176 6.546785014859683 7.1700022631196925
Al 5.723829422472854 8.930882951310265 5.055815680855272
Al 3.748083775611906 7.182841656053522 6.2495731568789346
Al 7.9033044002586745 10.555118623263718 5.04094540664535
Al 9.592980740545666 5.3779269726220695 9.302014846868662
Al 9.761204516782774 7.932303225138481 9.122793417174426
Al 3.854144406816271 4.604737563441563 5.944325316472038
Al 6.08448533299395 6.339887017373408 5.1947923592487095
Al 5.873490153495247 8.05922500180534 7.770291378654332
Al 6.239032369322321 3.717986554724574 5.481165269213183
Al 7.334328622335512 4.114751383799642 9.506473444695178
Al 8.358812464971235 3.9047126803760497 7.06042668487236
Al 8.534608377405165 5.268536905944706 4.747583369402421
Al 7.195277740563115 6.844704434658461 9.661703532186095
Al 6.158408392148175 10.691719735759781 7.075616696304852
Al 5.684249976758781 5.339856237205738 7.809701025496009
Al 8.286064884090067 7.927765585661705 4.804874872372889
