11
Energy = -29.70344396 eV
Al 8.99047520188205 7.397472829393978 6.310375344136924
Al 8.400836401072603 5.19800374839258 7.8638814549009854
Al 8.196562636819085 4.977142848970687 5.126903294621491
Al 6.793582473539855 9.138715613921674 6.322780934572908
Al 6.212288080824779 3.846334940433795 6.659025957182027
Al 6.492945619152538 6.490606985042065 6.52458605915072
Al 7.523436484219033 7.778680403367846 8.614835651318227
Al 5.487890892472784 5.233837892136299 4.393837504967263
Al 4.623034751465662 7.7987122078649 5.135007830949866
Al 4.801613248440677 8.043562340303925 7.875224095618524
Al 3.984795670144508 5.604391650206217 6.681003332614507
