15
Energy = -42.63931402 eV
Al 5.988666391300903 3.836202684317118 8.345304083500734
Al 7.610616346224742 4.963057963715258 6.4762004114498515
Al 7.529950925051521 5.866900653276039 9.240846350623116
Al 5.285436951053584 6.419567096696756 7.690086323596604
Al 4.879311925591869 4.701873724033694 5.734778909888664
Al 6.816917759642888 8.401225450198668 9.318130726051677
Al 7.708453999985166 10.17539201822304 7.445624352861254
Al 6.825468591001191 3.901934250358186 4.045173717836028
Al 5.215795120603397 9.0182770889964 7.215264194138551
Al 7.706475358400683 7.535397549746933 6.889027900255132
Al 6.837502389326628 9.289175785219633 5.0301598059527475
Al 6.411919603952557 2.4831636642088597 6.1702026255782885
Al 7.329541975300247 6.607920222001301 4.392596255525057
Al 4.835842208023135 7.306650928084884 5.219070594567805
Al 5.135236025914432 5.659411382563508 3.0020352026619697
