10
Energy = -26.32734553 eV
Al 6.299343676841649 5.435254456610972 7.860667779470378
Al 7.380576933553671 7.857959695457611 8.396998827680722
Al 5.662554897556533 6.746411594525392 10.208766797281182
Al 6.751955444614022 4.42512542455047 5.38261725217993
Al 8.162338963049253 6.50769742155813 6.290320050112938
Al 7.905066743205819 4.538810324142615 3.0587934655513718
Al 4.870176073144886 6.317331698273523 5.859115027900756
Al 4.705413712053893 7.908200978799049 8.054224429286444
Al 6.391745845397962 8.485976953007507 5.939307877205648
Al 6.878948761253208 6.785352503745635 3.95730954400137
