15
Energy = -42.49150241 eV
Al 6.1831021213697115 5.195812261085891 7.519368738362535
Al 8.920669057851258 5.075413376949033 7.357998800561192
Al 3.4455521320752136 5.0754818877731305 7.3578660490680265
Al 7.61696227863988 7.374036233618527 7.1283133685109865
Al 4.749330516417843 7.374098172720045 7.1283268792679575
Al 6.183180782027999 9.642964112249603 7.23220649640476
Al 7.517372322489017 2.8660039592046354 7.449918271873199
Al 4.848790647557836 2.866044790210193 7.449838852444753
Al 6.183213127495093 6.760562588052947 4.467472100683478
Al 8.892276945169614 6.7159230859786065 4.851758563492888
Al 3.474152589754218 6.7159455501298115 4.8517144677022515
Al 7.565326844241447 9.006035050903364 4.923756538463449
Al 4.801118074801858 9.006048991615693 4.923693410953604
Al 7.528457474245897 4.536527928277607 5.052649595983125
Al 4.837916289571365 4.5365235118480305 5.052539366845173
