15
Energy = -43.07736132 eV
Al 2.60315100236227 8.780984947299595 7.973953678094967
Al 4.009908252618509 8.267093446105196 5.821169204903326
Al 5.616664571170366 7.515617002804771 3.923861404528999
Al 4.993046960828479 8.00078314239672 8.73583548568892
Al 4.549639157168835 5.635595610267652 5.688520495448562
Al 6.481299054616013 7.428299059719817 6.567082909257731
Al 8.122535455504043 8.015907974379477 4.5597093272827545
Al 9.075839617436628 7.870482748444229 7.088554489735459
Al 6.934188205777014 5.349999690563569 4.602730839260386
Al 7.50856905824505 7.299169115694276 9.118864408349326
Al 5.59923849545395 5.42637909159465 8.381584254715769
Al 9.458374473315029 5.7898319886537815 5.362941972755378
Al 8.054756054173035 5.222201106474489 7.543824061853254
Al 6.04539948705893 3.5772912718973493 6.51780797106948
Al 8.451635041381337 3.324608690814054 5.617804384165307
