13
Energy = -34.35804993 eV
Al 6.512019422643695 8.305976936786298 8.510163812447436
Al 7.826879945572379 7.850044985214066 6.107233076476252
Al 8.435078054107569 6.512019422643695 8.531637320767022
Al 4.161901122962806 6.512019422643695 3.9897263486051653
Al 4.588960791179822 6.512019422643695 8.531637320767022
Al 5.197158899715014 5.173993860073325 6.107233076476252
Al 6.512019422643695 5.139571032719367 3.746957348125633
Al 8.862137722324583 6.512019422643695 3.9897263486051653
Al 6.512019422643695 4.7180619085010935 8.510163812447436
Al 7.826879945572379 5.173993860073325 6.107233076476252
Al 5.197158899715014 7.850044985214066 6.107233076476252
Al 6.512019422643695 7.8844678125680225 3.746957348125633
Al 6.512019422643695 6.512019422643695 10.670350502838245
