10
Energy = -26.54587852 eV
Al 8.272335552999625 5.489726772926927 7.73990302474143
Al 7.295611766866492 4.785834512521341 5.4016923192522475
Al 6.869204672020636 6.844886290732545 9.31606548304918
Al 9.268370505648504 6.696163084269764 5.6921104570274235
Al 5.511622966196706 5.383229618697037 7.235293009420737
Al 7.420234938986295 7.117587620993912 3.9067339273549466
Al 6.73578053690847 7.57841943653386 6.505148582468822
Al 5.158791343556266 6.037010278226732 4.528512011032835
Al 4.570799594652059 7.56425276105497 8.556320415630534
Al 3.8990985973211396 7.504740099198975 6.120071245178559
