19
Energy = -54.7333672 eV
Al 7.356056955594178 6.386204039449979 3.620301392099559
Al 4.928653254087614 6.276887190041037 4.702573762086625
Al 6.566697643929844 8.805549044247131 4.420388037366354
Al 9.09630656475705 8.740952588828364 5.147559451149331
Al 4.576516851123768 3.5453008447626937 4.229426920583244
Al 2.59776199992904 5.024853583390224 5.144127601495872
Al 9.501752374899386 6.114692326161002 5.1160044514464005
Al 6.983855110617256 4.322230113305652 5.35700532139054
Al 4.502367317327262 8.72593101441073 5.957202392215735
Al 6.94603808925961 6.771449930447149 6.425808550371498
Al 4.457790352552905 4.133939215865694 6.858758161560106
Al 3.3105868031868755 6.627383608492011 7.117175560295719
Al 9.061115044349132 4.737662291833891 7.279807163765625
Al 7.415341368523627 9.34633270817506 7.303892090466354
Al 9.393388497574195 7.455496515513534 7.5968769154922065
Al 6.730574611800787 4.004787739406185 8.178684607979571
Al 5.392319411416654 8.016944353727633 8.36131249618923
Al 4.750637600791548 5.518688751005808 9.137304477957677
Al 7.4660518570972485 6.4785258497539315 9.07960235490577
