19
Energy = -56.2615734 eV
Al 7.1930299292307565 4.123288591949825 9.441851693230289
Al 4.662590175192825 4.3469406290141945 8.104356428548094
Al 8.670005426771894 6.518178109868621 8.93055974861825
Al 6.7221793016262374 2.8913543334383696 6.975880174773877
Al 6.899937425282178 5.569443021041265 7.025987205813964
Al 5.855304018378398 6.630903027037508 9.235367488937026
Al 9.180790683673992 4.224748805951043 7.466104708162593
Al 8.073272093334834 4.151043848737317 4.997393013359158
Al 5.197802667006762 4.380120134844212 5.293190097608142
Al 9.238560211425671 6.571726957391608 6.121244450447692
Al 4.5561669144943435 6.768154084430604 6.769517996192142
Al 7.164987926441258 8.186780219555493 7.3277839320218945
Al 6.943470161372717 6.461724136737982 4.453320967201941
Al 4.192027544480627 6.545158418715751 3.8919373976820153
Al 8.418011464421195 8.838377928114953 4.78377315430161
Al 4.755610975284579 9.585573694679448 6.855134091807725
Al 3.030102740455642 8.391512941090864 5.274456187640934
Al 5.7037095585790345 8.760908870355719 4.458054592154058
Al 7.070208031905974 10.581829496403703 6.121853920857513
