19
Energy = -55.41895742 eV
Al 5.058245763348809 7.616517139630905 3.271702002760843
Al 5.599572944152034 5.045827554048854 3.157118033100843
Al 7.665532824367444 6.792660669598425 3.8542575934738377
Al 3.365043924635569 5.71612199408973 4.983734485134366
Al 4.117669686400233 8.522055078537429 5.524627038820741
Al 6.953746057100342 8.85334892251668 5.296812146888493
Al 5.1968025252771355 3.2464446024506377 5.034354775707267
Al 7.7425031257099635 4.395755161777479 4.823951676075701
Al 5.784199275239831 6.143713012724762 5.8437065737285305
Al 8.257050494163565 6.548699831146809 6.638137826715076
Al 8.634364313947351 5.184103534537904 9.049143774182824
Al 10.10748133289063 7.2874876836553915 8.299871040778168
Al 3.6322953578396495 6.738772843950048 7.4771065338693745
Al 4.265775199642841 4.132166234384949 7.30204702060651
Al 5.769361983815544 8.388679731840336 7.716678333900688
Al 8.484136407427734 9.225946021146788 7.426187782679791
Al 7.121577621997356 3.8801765781622732 7.311682064187105
Al 7.6056795711075 7.662741214831476 9.460328106408962
Al 5.8550176085453405 5.834838208577588 8.744609208589475
