29
Energy = -88.75400724 eV
Al 12.058439762781385 6.565047961550728 7.3960312038752045
Al 10.51676936684889 7.399856269030569 5.265926623836738
Al 10.275289522648153 5.410408313047706 8.935032317278319
Al 9.761781076647969 8.001762939204731 7.8230847783713395
Al 8.565759526661214 4.307138601270795 10.68927831676375
Al 7.747122772493264 11.096896602714835 6.962340803373084
Al 10.402651453806516 4.70157283744212 6.2385778419774205
Al 7.813825879075748 6.546500830977832 9.167605637408883
Al 7.220996831070762 8.566342824189164 7.645080385098354
Al 6.121207887143458 4.526590872038852 9.690290518166355
Al 8.140916389725184 4.008675797862738 7.895696532904329
Al 5.762829758017912 9.861243466520312 5.464209457752654
Al 9.610768551206558 5.376673159955114 3.7662741964557003
Al 8.234819314087266 8.819722484443966 5.066085673119746
Al 5.187786105027829 7.1440533701345235 8.600874111870196
Al 8.190692146436696 6.287619271635324 6.28100500250594
Al 2.4758243938106523 7.027050132121968 8.726440758568032
Al 5.3452483257524355 10.374521146741431 8.137785024695173
Al 3.774484959605862 4.784761660464998 8.70637778013391
Al 3.5733148809344724 9.199032367247893 9.59191581102422
Al 5.762396816176196 4.777709712988457 6.823295404758582
Al 7.991549693291425 3.762868256121124 5.280067311347915
Al 5.724432637351174 7.213772780478918 5.7434068172275525
Al 7.012904915942198 5.821020607424157 3.6927387911991354
Al 3.3223242206030896 6.0007728890780205 6.302909185668951
Al 3.464792825110518 8.75776829499745 6.844031787688132
Al 6.150230754293363 8.28250916925939 3.2415783992101375
Al 4.428971741853549 5.518689813882321 3.9344234945913503
Al 3.6172211509244527 8.106841727649035 4.309396484936025
