23
Energy = -68.71957723 eV
Al 3.6886030452495344 4.904970926913839 4.676372861666138
Al 8.270892659503014 2.6128990543858386 5.732946809823804
Al 4.396960004514107 3.5034518171873286 7.245351813701468
Al 5.947974978516657 3.65818136252336 5.09121191690381
Al 5.935466381501335 6.122965148280185 3.968828692484648
Al 6.042021434305943 8.779250978049136 4.2295605072937565
Al 8.123464006361585 4.250175120853773 3.5648571937265
Al 7.789955668241848 9.159135789924363 8.524428535204665
Al 8.173829672523631 5.332191563577784 5.987068656705524
Al 5.557725924320325 6.096929767414151 6.885029794339982
Al 7.763353781047268 7.729657531247635 10.825717309090008
Al 7.968337775684681 7.871858579029604 6.109154957433416
Al 7.031821033225772 3.9115162407094624 7.985389772296907
Al 2.7852366776707407 5.62820188752988 7.03926933659062
Al 3.389962502190778 7.889844157117517 7.969338841817668
Al 8.47401574926447 6.846459983508356 3.589132458243385
Al 7.840456124320111 6.353796371835524 8.469070930400937
Al 8.556426184323634 9.419092946202234 3.8479499275945632
Al 5.5275501550642545 7.902518595729767 9.407788487187714
Al 6.1373902103938995 1.497457200059313 6.986263913095402
Al 3.9569158580400563 7.5349938931475355 5.280210672094717
Al 7.664610898840317 10.48468983412028 6.090055189955471
Al 5.566124896590061 9.097622264702906 6.932967427812222
