25
Energy = -75.54373144 eV
Al 5.871491689483805 8.450079980619826 8.690766401585659
Al 8.20649511613106 4.759381719829264 9.022758537578936
Al 4.280300182319475 9.532114117479809 6.806976309207864
Al 4.46230023189315 6.687615354841461 7.268001169679924
Al 6.344928998661191 8.556746582301487 5.508272932509035
Al 6.720043399672013 3.3361791471137634 5.017189165070968
Al 3.8095917481229074 7.736318112544399 4.838967455446474
Al 8.653457860056271 4.664154974474361 6.38212359442844
Al 8.481244364338794 4.683915659034288 3.6136604602407703
Al 8.414101638870513 7.173286267593168 4.906794520656904
Al 8.541523434290697 7.429172670849825 9.715818664460489
Al 10.739276899091264 8.302814258252042 5.683381105611993
Al 5.962926721227906 5.94711393699736 4.9819102599978216
Al 6.831398506630032 10.74764111919355 7.041897346687509
Al 6.539578137260468 8.115852232544297 11.441337062851204
Al 7.634848837279183 10.096263803086178 9.836831382706528
Al 7.533062720229491 5.635784677906379 11.443054013626453
Al 8.64387877751227 8.847037096220152 7.5121451980248946
Al 5.017847736267929 11.073194419329328 9.116841891410145
Al 5.637800527893593 5.879290233503653 9.552468758565986
Al 8.660775658072179 9.96334986614327 5.112107059395225
Al 10.689682447805623 5.736848197360666 4.8765257466796506
Al 5.853959628297093 4.31184331981151 7.364438087851286
Al 7.196961206188547 6.646714726509951 7.347133064450002
Al 10.074556562324693 6.4893205563804255 7.720632841195976
