21
Energy = -62.72078498 eV
Al 9.129604655539625 6.144437554632677 4.086697897994619
Al 8.614715948052183 6.250863962855179 6.82041473604552
Al 9.413906214466477 6.341718647165344 9.417001605233557
Al 8.972024313333385 3.8271444566681847 5.606794496663208
Al 7.723115442081219 8.095211725585536 5.304298541211352
Al 7.611669464309551 8.119268681152716 8.711819085152133
Al 9.128063638108028 4.030587240242313 8.24464262392544
Al 6.700487510733404 6.941039594817749 2.860477149140601
Al 6.743903707542347 5.0464143122367435 4.80741099828105
Al 6.849618126364839 5.470816561946488 9.337531227545405
Al 5.375370006315308 9.509798434120848 8.840852207732187
Al 5.9176349748347405 6.756562030746411 7.044168112827973
Al 6.174805851348687 9.47978925191621 3.598709461285596
Al 4.661686109188356 7.114283137519783 9.525297184444861
Al 5.621925917700802 9.438429093850688 6.223081232661792
Al 4.30653506866892 4.836802003137867 8.363533734398144
Al 4.70988913509477 5.105294890268434 3.089289222567754
Al 6.593516582099771 3.9943668080907266 7.1582373249902345
Al 4.674547918217313 7.379404651531601 4.680102451558029
Al 4.175568698748482 4.9660237005897505 5.685469766230353
Al 3.4050632921497983 7.655395835822058 7.097823515007213
