23
Energy = -69.72402125 eV
Al 10.654750109836622 5.941529975674631 8.772627944714946
Al 9.6491918977114 5.326239109433635 6.347248858433762
Al 9.319511125215417 7.8439711599022806 7.354887134161776
Al 9.101464266825221 7.611485933215802 10.05400465116033
Al 9.091786127134817 7.237789558356708 4.638396896665292
Al 7.888487640866637 5.637041738366607 8.612374010848207
Al 7.553216798134778 9.271908492978818 6.063526469472207
Al 7.403673495737076 3.989167394893441 6.246989057767246
Al 7.004808722810331 8.464411721173756 8.667103312927892
Al 7.02041865214402 8.202898074401876 3.38988266651787
Al 6.872006762336107 6.727951433356306 6.275079273809484
Al 6.0977046915884845 2.987062288904535 4.115296522622132
Al 5.329640578171928 9.857687522690535 4.603210828311476
Al 5.9323351835008 3.930439387611959 8.588925236704918
Al 4.986884951235484 8.927541920947197 7.105253716888572
Al 6.684386024651427 5.530615318822006 3.8042953776454294
Al 4.942001367027934 2.6324392510720873 6.463199208513885
Al 5.199708188618591 6.4684407500090435 8.445587613230305
Al 4.660602154181567 7.299592675607677 4.449089490220131
Al 3.36120189748504 4.483615662147647 7.851515044987051
Al 2.8780171349135357 9.25752890889869 5.401841226534339
Al 4.725420361017569 5.0024365904460835 5.561028906926795
Al 3.1580346484966078 6.883457910729923 6.703889330577183
