26
Energy = -78.24274937 eV
Al 4.744996767745397 8.605972602149127 2.7700954356370584
Al 5.294060239244106 10.802108556626564 4.389055889744108
Al 2.890038440251131 9.190874879552817 4.963011824765404
Al 7.578248899822323 9.19076065134375 3.7105458181379394
Al 3.7811371509620266 6.603467173991459 4.4927398249783534
Al 6.446187675371665 6.643121554340776 3.550427841689001
Al 5.510053277589749 8.437851069275087 5.419560922371222
Al 4.365071426263896 10.230747142005768 7.168633322351833
Al 4.568818890829929 4.002073224151756 5.156465291637516
Al 7.097827889205832 10.35250118782061 6.439890077720315
Al 9.26779689005221 6.366000929496125 3.9600049101717176
Al 3.5857940000559823 7.530568138310239 7.187403122096529
Al 6.012378891590793 6.144969674337108 6.251323247385024
Al 8.168901095872961 7.905493640622559 6.115336523189161
Al 7.375825818884227 4.240770562647629 4.469584001517189
Al 4.1723812345941855 5.020324516246042 8.022088179250758
Al 6.9696636820651525 5.848738771517796 8.864745755622904
Al 6.519059460367583 3.831675024367491 7.01217935748682
Al 6.234946802976932 1.7850761648772915 5.181379901811301
Al 8.794291690996983 5.316233238927078 6.658485927296948
Al 4.2469329260389586 2.371763246471075 7.33220720888474
Al 6.172974788812081 8.315084040577714 8.094874054488244
Al 8.825501533984255 2.4943017447078035 6.1735740417468
Al 5.788178474701714 3.4856642764419594 9.604806391796709
Al 6.78023449420516 1.4483919899241957 7.965289574701901
Al 8.523909908318169 3.5550966638250223 8.78149846843756
