26
Energy = -79.34648114 eV
Al 9.045476704632751 9.436765528435641 3.2055286550473125
Al 8.535321580562679 4.483507228404119 4.788562909021683
Al 9.91746852007649 7.445077227477877 7.9284942306353035
Al 9.922485017587785 8.487975772508667 5.5422896925019165
Al 9.306536969419867 4.889336829578332 7.382457295851027
Al 7.501786380872847 9.803796705628049 5.479400726964134
Al 7.734142322117739 9.02372196968463 8.001876180229823
Al 8.667340853306065 6.747448924198898 3.6465723209662713
Al 8.851199515510153 2.3676458209806137 6.659743112512122
Al 5.649538120046765 10.71688196219051 7.358203546481261
Al 7.679597378887015 6.503013991745356 8.982846172250943
Al 6.449219021190719 8.24559541304718 3.474640108899425
Al 7.786399822768077 6.92503391184347 6.197154661864106
Al 5.56829611196277 5.8406301565118826 7.231200538258128
Al 5.194156507346407 8.263703435322824 8.610141180374924
Al 6.4279838676679875 3.402254076115851 5.905115872300062
Al 5.315444051038768 8.305875684133259 5.952626850390733
Al 5.991302653798964 5.724777374095419 4.533837813748226
Al 4.016249449749518 7.368512525187207 3.4956164544838337
Al 5.497116469724206 5.664727005990499 10.070485579328764
Al 7.076383032666924 3.8579003789781567 8.490576908300289
Al 3.3184806495544206 6.479932294226668 8.741405485719854
Al 3.9733120996942835 4.0107352667647795 5.610416106442642
Al 3.237669188012741 6.613266641248498 5.875792275286831
Al 4.361494285836136 3.7678089710742193 8.49137884655905
Al 1.9841805276602207 4.632656006320446 7.3522175772743825
