22
Energy = -66.60135127 eV
Al 4.218219028624703 2.843342588361703 5.801531598806619
Al 3.8292574263178483 4.653942166871857 7.7525020307125825
Al 2.9616518300561157 5.213428384831068 5.300962643777987
Al 6.375034177512189 4.005658652762723 7.202060730797547
Al 5.574706680428091 4.760600323375022 4.553530506036592
Al 9.01665235142085 3.37112118599438 7.354747532864868
Al 5.553754259442883 5.95218631394252 9.192002451150492
Al 3.753454236872837 7.205901975595684 7.203265499834902
Al 4.38560794478326 7.238126397506884 4.428282357088213
Al 8.136331735362633 4.972003538667365 5.360573273246683
Al 8.1074149805049 5.330261112414409 8.91883991466304
Al 6.367944553704373 6.807594780735952 6.4062687909291745
Al 10.132708029008393 5.746080560250784 7.146298073633826
Al 7.442452335326548 7.334373033006412 10.6056154843838
Al 7.008699735084567 6.645193399936892 3.512097447679346
Al 6.045450546066094 8.466457618215436 8.531418410145015
Al 4.754350420390323 9.4071888430634 6.385837331882639
Al 9.069217211375953 7.486518303336318 5.473278175495251
Al 8.362156505309764 8.976713405972959 3.4692060339953352
Al 8.612350515883813 7.878297928163185 8.170905410019843
Al 7.415682033992381 9.438586476500078 6.269159975326977
Al 5.890825046391134 9.280344594355487 3.9755379113894844
