21
Energy = -62.99020132 eV
Al 9.730332984065933 5.398532482926496 8.20224798308395
Al 9.431808329049597 6.897195904506808 5.981781124154146
Al 8.714780240783261 8.170417968063987 3.716073809539201
Al 7.394213079554631 8.830582495836392 6.04839481904759
Al 8.071111903576947 4.334740234107069 6.403354831399369
Al 7.944736580600847 5.501669664906565 3.9946437989805714
Al 8.606710185629698 6.389717804018532 10.40296117045943
Al 7.944836506923191 7.500197745545519 8.152646645991481
Al 6.717832900911613 9.98492251061359 3.8302504737869203
Al 6.018635874766184 6.2270628759216455 6.311944753266215
Al 6.152424131144999 7.348510069587536 3.4325038043694502
Al 7.059555547522342 4.841246374946525 8.887496779228298
Al 6.094876072243661 7.128997846911335 10.180341029945819
Al 5.5954916959326 3.4988667648640948 7.234970846659953
Al 4.11114818619113 5.975401741323368 4.2877874253083075
Al 5.873866660648599 4.044050013184663 4.6250534040378275
Al 5.429665650479626 8.376219865327274 7.899344798242909
Al 4.740402260335745 8.755984018067497 5.28979543493494
Al 4.446475442116803 5.69482461486607 8.610331893072326
Al 3.2793657660996485 4.4698939359751115 6.355273397111121
Al 3.1480488367753607 7.137283903852927 6.659120612733167
