20
Energy = -58.92299935 eV
Al 5.670860518931291 4.635123738001115 3.175883805255174
Al 6.276640682979425 7.321235948677293 2.5237967349206647
Al 4.121313457437455 6.632177146878951 3.9581097368050155
Al 7.969296954328764 6.065540469253782 4.035246508084386
Al 3.0165201161745503 4.046086519668625 3.847660607705351
Al 4.912427395843433 2.367549930947544 4.587855056272439
Al 8.616589232746799 7.387768303030437 6.337294557772302
Al 6.225156709085759 8.212540283062543 5.157004462701276
Al 3.1780985394562906 8.415984787256127 5.618078240586599
Al 7.576039433369725 3.232372836258798 4.345540616336177
Al 3.8620430844799034 3.949684975094879 6.516428169913881
Al 2.1186691771340675 5.801765429103765 5.6457001612358235
Al 9.261836231865326 4.643148665106218 5.839777638407577
Al 6.407731833556702 3.00022387445495 6.814020036639467
Al 4.981162103029457 9.196790839174053 7.341981728443314
Al 6.5656265410725085 7.345663145722137 8.21298017726352
Al 6.087228803115379 5.5365585383555285 5.865512715155466
Al 5.294792727024679 4.549068397527041 8.737538778297395
Al 4.00317804816709 6.574673636613324 7.490265128717062
Al 7.866850866271179 5.098104991883436 7.961387595557046
