24
Energy = -73.16976201 eV
Al 7.205798616969131 9.157709510642928 3.838131361417336
Al 9.683824543137096 9.038215138345935 4.739462326595932
Al 7.151838319786401 4.461132162514527 4.1769542793330645
Al 8.462330481445557 6.707839390638706 4.373226145915288
Al 5.824702572212105 6.845839969798951 3.5510496219452423
Al 6.525468731125217 6.076142427909129 6.152874156745602
Al 5.266995291083725 8.766461503358048 5.638123454512829
Al 7.8663935392426065 8.712494223932604 6.617874344463336
Al 10.282205192370974 7.128548883455156 6.465738434426015
Al 5.648219420742403 2.1473059076608156 4.144746800143415
Al 8.989709801017224 4.760189675992302 6.264327395990159
Al 4.423905794175486 4.506229933643085 3.692005408309111
Al 7.333235166243822 2.5909200169298696 6.201037720578228
Al 3.333809596236719 8.089414998127504 7.446177505301806
Al 8.468982007836532 6.647216871799722 8.366345708155622
Al 3.831436534193815 6.271084644676877 5.56026948170139
Al 4.952852033373695 3.8303645741926293 6.242628827447008
Al 6.898471950031659 4.254825862403549 8.205568513382127
Al 5.9774396901761495 7.643456545806878 7.99124077328016
Al 5.230709267767303 10.193302626502629 8.172341545600894
Al 7.391834340269599 8.884507963884056 9.86874726320959
Al 4.34448078628331 7.729236624465921 9.964249171184424
Al 6.494597362072782 6.0593070157810915 10.153763063998266
Al 4.417450891341742 5.504945456671834 8.179808625498037
