24
Energy = -73.12783731 eV
Al 2.509838404330043 8.600229411131775 4.5916873317110465
Al 2.497622895079185 6.636953252536969 6.408626819475534
Al 4.100440316115946 4.511199361608105 6.074318247116689
Al 5.981124989609962 4.771073137309769 4.041243781910552
Al 4.448668515668381 6.745930960238451 4.49130124952934
Al 4.989225684457154 9.44400736238465 4.023341136190086
Al 4.363649391708653 8.58529266065733 6.583514709441478
Al 4.177315982140229 6.517140492811981 8.445703340246196
Al 5.377673241971798 4.003789379209712 8.443693513430892
Al 8.30576660694323 5.513655923680709 2.8198714814487627
Al 8.135925463287586 3.1687001416891456 3.9434807163655288
Al 7.043252999102318 7.490449562527144 4.1426585580005115
Al 6.6143606861672435 3.226427082517446 6.159801147029673
Al 6.204347470844911 6.170365534010344 6.650099179093505
Al 8.748579005948656 5.289616977410847 5.48950124259443
Al 6.2042320872389425 8.32993027951689 8.395795859850676
Al 6.526869759339174 6.0060914157931915 9.771246860125013
Al 6.724157363396583 9.674186794760352 5.946385667240658
Al 7.9995557813237985 4.584046929022784 7.989767701032757
Al 8.46649862340277 7.714907891766134 6.470459690288307
Al 8.677248255834318 7.7076724285301985 9.240296920350637
Al 9.2770900763468 5.286354776928029 10.237081522579818
Al 8.423708052557526 9.965552312073326 7.970237311942147
Al 10.218464582279939 6.072042166980003 7.6855022481009
