22
Energy = -66.41164281 eV
Al 5.035409376193871 6.002318186863954 9.147274811471267
Al 8.732123242118167 7.569671541556478 7.386780540319307
Al 5.12000829262611 5.8582269908889515 4.782641373791974
Al 6.759694187254743 3.7342109781943145 5.535403823272982
Al 5.300035985195686 8.164977556465363 10.805750102936248
Al 6.622515296416729 3.4435129451081745 8.23099257338135
Al 6.283740998699388 8.51310840456033 8.243133107505933
Al 9.248879329422875 4.694011555981345 6.53033737406207
Al 9.329545452187181 4.226046347187065 3.847509571122244
Al 8.640542796925056 5.015231728955312 8.9849100911645
Al 4.124638745383723 7.199218284295279 6.834200711921482
Al 6.768480322306226 4.809889958649519 3.0979584859387663
Al 4.40121143841021 9.938092064162658 6.532886752474191
Al 6.705731156326303 5.96504855995666 7.057156901932789
Al 4.443239235222008 4.540476063934509 7.039477356962653
Al 3.645171736296624 8.968634381820843 8.88087580880087
Al 8.257857012042143 6.544476130870765 4.844060066535719
Al 8.739515646196926 6.355028645136021 2.185562527647082
Al 4.300281570266848 8.475277638591463 4.332552940786663
Al 7.496971278801895 6.994588348574412 10.081383422681029
Al 6.382874054061749 7.563588425376935 2.958241100398347
Al 6.6683770718312845 8.431209487056467 5.667754779079367
