22
Energy = -65.59065189 eV
Al 5.279473905966338 5.381409044403468 7.471345562270853
Al 7.381853171584485 5.417668013084806 8.995445732707008
Al 7.263791073282842 3.230056533052028 7.484735914273976
Al 5.696362418424703 3.938137815316212 5.274403357792165
Al 6.103965459133444 8.671808208575742 2.871149131603952
Al 7.087916927762768 7.608569237459023 7.068985879650628
Al 7.897483194272279 5.340743325903826 5.933384281721925
Al 8.157178542516345 7.804173441372374 4.482520384456674
Al 7.204469915448918 11.368801152941192 7.282138698942333
Al 6.423114761635521 9.62752696102291 5.362062107453304
Al 5.786863714397282 6.546843490042635 4.478448139566131
Al 4.258972027732085 7.70396783048821 6.47320878093259
Al 5.109977858306372 9.75996477007172 7.830973583656322
Al 9.796213020194479 4.796726234479988 7.856722769019379
Al 9.60591189885672 5.396284235321866 10.518869680284853
Al 7.6868306153543315 7.314261388687547 10.88191952308165
Al 9.940115349453526 7.024122062009401 6.287986880979561
Al 9.390620145771686 7.434809067502384 8.764354794039695
Al 9.039069966607874 9.451903708696255 6.769199655724415
Al 5.474379602789332 7.362390449390024 9.22250074961963
Al 7.445222165759379 9.366803319543429 9.205563421271124
Al 3.4318746367820077 5.326968728984833 5.5345357622730935
