25
Energy = -75.31037794 eV
Al 7.115738698766501 5.300251698724832 1.6424754805019255
Al 2.929235417978106 5.632681375623361 2.8149696445688304
Al 5.146196268112466 4.097013782151781 3.2367444710142896
Al 3.703395022934405 2.01078183306288 4.084963637620771
Al 7.716239521124481 3.620201011578406 3.867054906140067
Al 7.9140650814200155 6.301602278381119 4.166899581616041
Al 4.610908006108157 9.196309662452036 4.095869063691203
Al 5.385018832216973 6.751051002222172 3.294974393100093
Al 7.269739345761717 8.861304429320715 3.591572663464421
Al 3.1495187012234136 4.291854754295514 5.219738440595348
Al 3.381866510256621 7.033466119460616 5.166673760183873
Al 6.211000291782765 1.4767616254169231 3.3660810721784316
Al 6.147277531369157 7.998189287552731 5.9982690179394424
Al 5.730399767821578 5.416350206993788 5.779715929018363
Al 3.7230205193433865 9.456109393705297 6.6166787933912925
Al 8.25447925401587 4.244427459404025 6.2999966738908215
Al 5.661942669529034 2.7967515480126326 5.877407143986822
Al 8.650944895309937 6.962022312469122 6.608275669742851
Al 3.93982013618641 4.296483602330397 7.714866556302246
Al 4.181292162998531 7.041494494942061 7.750465782403811
Al 1.7069769514576922 5.871728369509807 7.016219741708322
Al 6.478109634112747 3.8368870519530667 8.224365249432756
Al 8.9089610444087 5.09338724424873 8.763983184219919
Al 6.679970007843238 6.572574971078433 8.287443289573385
Al 4.9552993789989745 5.391730136191088 10.065711504795717
