27
Energy = -82.50159676 eV
Al 7.956664956370012 7.180781519344213 2.97441201519866
Al 7.945126829395967 4.454241398128247 3.693038274880919
Al 5.421315543999412 5.51340815367342 3.4852005181391927
Al 9.767485676469708 6.3526990761989754 4.990585170302961
Al 3.0484763813170237 6.862527267441672 3.612857539174681
Al 5.569025034836241 8.113650376185813 4.011489423378955
Al 5.874208649404563 3.8380264902244394 5.585272362313758
Al 7.108280298148571 6.245300371332767 5.4963021859301655
Al 8.514370802475797 4.040427124877392 6.286944833253973
Al 8.045660508453224 8.74819209741169 5.2352017898477445
Al 3.2368844158653647 4.477221830869492 5.08990481562588
Al 4.301401438152364 6.625448069786533 6.05841686918525
Al 10.735833176625217 5.189175470410023 7.533038630608584
Al 3.247417875163088 9.204519922037983 4.9617292408766325
Al 4.126277464313164 4.151933512393037 7.648361212985194
Al 6.418759514168925 2.701376766346979 7.942922192242842
Al 8.935339044172952 7.294944067202248 7.481652260679485
Al 5.64334982901741 10.025037493894915 5.92370772912576
Al 7.84613555202434 9.816974467405457 7.710586667641062
Al 8.748211607235989 3.401110562164489 8.91856317623926
Al 6.242009329736581 7.788458674560378 7.318175174302288
Al 4.49344844327803 6.543094151749774 8.916496269425739
Al 3.6299835837873604 8.744391159492203 7.565315055802559
Al 6.858297330261203 5.310370808850228 8.229717912158792
Al 9.204001909883633 5.854019312483916 9.78739667886872
Al 7.124027309405486 7.507086472068772 9.876772359548317
Al 5.528503486272536 9.586079373698361 9.236435632495908
