23
Energy = -69.66078373 eV
Al 7.186474541068576 3.7010631580072997 5.340877460632778
Al 4.57022550632316 3.0365863732976113 5.868304845152587
Al 6.192981391990691 2.9480547776992525 7.946387109946619
Al 5.206170035997266 5.264483990326513 4.334467628032653
Al 7.670089696206598 5.150208205955394 3.05438802447884
Al 9.57635766411118 5.255216088064245 4.874174870200194
Al 5.601953637574504 5.420725348898889 7.091705386799367
Al 8.415727425063755 4.729483876059221 7.466205926150472
Al 3.056950065822125 5.1709315808379275 5.957414524715949
Al 3.7453296869923327 4.196850489567946 8.757961394022306
Al 6.276719190409014 7.3661843158104165 3.0330591714894943
Al 7.350144290438129 6.613740672800081 5.504296683065845
Al 9.166242740627121 7.892520845594296 3.8351492978572357
Al 3.73684605342121 7.571857210559106 4.449738811303359
Al 6.763005450741308 4.870808362264833 9.660142693301815
Al 9.862080359250623 6.984304817640372 6.845483411697742
Al 3.734261463098373 7.3699298798694635 7.2295676943428555
Al 6.0606524744347325 8.957150264643827 5.115813624511874
Al 7.463957626002726 7.153245483708996 8.239314650753316
Al 5.068631590889411 6.852959394272504 9.43549225823879
Al 8.28753731325734 9.04903569112667 6.511236053260043
Al 3.717514956671032 9.768482689297873 6.078511962757156
Al 5.713495045477548 9.225194886505584 7.867524727661774
