27
Energy = -82.9351061 eV
Al 7.634803800953879 9.915115099152459 7.315787918237856
Al 8.140329257990985 9.613179622185042 4.514451068654412
Al 8.16293932919017 7.583125666931329 8.508801506754956
Al 9.83296052942519 8.099347730901156 6.22284843299845
Al 5.503378306570723 9.59547378370813 5.641160603269266
Al 3.5883395086141774 7.3375140044580105 3.1906417204085726
Al 6.179062524429574 7.821010590913978 3.42705225325189
Al 5.547636003321881 8.133933956486267 8.07837225220832
Al 7.278313573661387 7.557864838570033 5.8973148209926745
Al 8.749212065392923 6.96236676861028 3.63282580135385
Al 2.975444504868701 8.952822200849655 5.193387950958557
Al 2.8764779215551783 7.9106120249553635 7.586706956943529
Al 10.44383794213751 6.076932089287295 8.017658286992901
Al 4.69090404718313 6.794334726501475 5.718119454519812
Al 9.16148242434911 6.0678737675986945 10.50044132725529
Al 8.982926369217981 5.382380223797572 5.770696021992006
Al 10.147916260027547 3.4166273124449216 7.19782634166944
Al 6.56335936992693 5.560952240002746 7.274233516945881
Al 2.106469362045133 6.23252214965035 5.374908030037645
Al 4.0447439750157095 4.832211710112061 3.7704591094387556
Al 3.986285132822287 5.679451823036831 8.26019209292846
Al 6.3538276254512915 5.987131123007373 9.964948111296206
Al 6.6512631015903185 5.19600994788835 4.422921408868724
Al 7.41709876910876 3.120855718117043 6.386874543585148
Al 8.258661002862496 4.247122020895375 8.830041116628616
Al 4.615986061216018 3.9719069658136674 6.137075405388532
Al 5.6226050059523045 3.467585669005843 8.680517721301868
