27
Energy = -82.5107663 eV
Al 9.631440555033574 4.214157031013161 5.499177817761562
Al 9.999745653044076 6.265331423859692 3.9796011578933372
Al 8.203486677518084 7.546777046173291 2.701663909973544
Al 7.286319680376807 8.45705488038354 5.085300140403539
Al 9.419768012699032 7.054975509227505 6.464162547714201
Al 6.550926610516978 9.619226090543625 2.5428101880671083
Al 8.13156428694134 9.292863161040211 7.641370325037228
Al 8.73550527159542 4.874625794381561 7.99774020041694
Al 7.442912872521712 5.689024446473629 4.7572086839478445
Al 7.0596902181292345 3.2311242092192702 5.773979571943635
Al 9.255394390118141 2.261363191565269 7.33287843547469
Al 5.6722138152199175 6.839735825248218 3.04086248413142
Al 8.794581903326312 7.161566368803831 9.290888172938113
Al 6.947017915481134 2.947800160861319 8.529956369057318
Al 6.917383451868273 6.7036958767205395 7.297888438541036
Al 5.010901194541612 4.371934056495552 4.253059319779145
Al 6.278536482984204 8.258937803844079 9.452488028324831
Al 5.036380560757716 6.751506737313829 5.542056043406946
Al 4.644205270284784 9.17125579732815 4.372726510581566
Al 5.472213573056111 9.04654794808187 7.019524618724377
Al 6.314331445710673 5.40547229954947 9.561312215680706
Al 5.122799469104912 4.4074326179273 7.1269245554840515
Al 2.8047720821868514 5.355268305748036 5.9896763200183125
Al 4.198892004382666 6.52728753855538 8.143993331983607
Al 2.969157776127647 8.300065126214685 6.296582660208636
Al 4.291332816720396 6.978520264079253 10.814584510062945
Al 3.3683279325638433 8.826252412159173 9.051385365254053
