22
Energy = -65.43456195 eV
Al 5.03072017633466 5.783415836684341 6.691208400245575
Al 4.569035691846318 3.2213544595400134 7.704431249445329
Al 9.351634435038507 7.453653837416474 5.670289501752083
Al 5.8782144103271134 5.143512114202728 9.340841351805942
Al 3.252525723915977 5.2630051958012345 8.831879634460652
Al 7.223531675576513 6.895397836834261 7.699522121782097
Al 2.893843537282054 7.468326102935585 7.466777547515022
Al 5.53072764319661 8.402137245717942 6.1725401713516925
Al 9.557491790244184 10.292527256890072 5.066551981248137
Al 9.6477828243819 7.275020049747148 8.500451688599325
Al 7.164619324771637 6.127141500094965 5.034673975993982
Al 10.490670233535688 9.364873121456183 7.281572562678052
Al 9.569308016204964 4.9900086085576545 6.516180712281592
Al 7.758905048978612 9.434956483656572 7.046237341203913
Al 3.316098236257295 7.196814763361717 4.946493922939773
Al 4.761983074536489 5.164498397463975 3.8368399236880983
Al 7.523317630224243 8.889517708008075 4.239152835054767
Al 5.412496382768269 3.168416055874443 5.2298331557869995
Al 8.477028299234634 5.136373913386467 9.322251779146832
Al 5.494648418078415 7.674948517198412 3.4438379146133933
Al 2.885916557739768 4.542786754002378 5.839817289338078
Al 7.212459389083745 4.11427276072711 7.121573458626124
