20
Energy = -59.64989025 eV
Al 7.518634723702867 4.299147648671603 7.691616400281442
Al 5.397892042130652 5.802834363841543 8.864323921839667
Al 5.091078898110115 4.76979536352549 6.52066500941933
Al 2.879405170098263 5.986807158179179 7.834058244507606
Al 7.245054859073416 4.794393541219052 5.0031665034899255
Al 9.670219408052546 5.462388862928512 5.769986419236242
Al 4.76957209416579 4.653704615969672 3.6813223783511546
Al 3.5633100158161017 8.025989916210984 9.459123610861345
Al 9.377441340699846 5.480978293063746 3.1094577585154477
Al 3.079016640085465 5.957751096967636 5.225258739457192
Al 9.763928747826732 6.4090034672815825 8.111875924464707
Al 7.181679964400142 6.784928463137048 6.9857089044707426
Al 4.504934682935161 7.932807090628423 6.932791140732622
Al 8.217228542102875 7.535281493414319 4.604549816192694
Al 7.794818644732502 6.270915269628927 9.754422119827156
Al 6.779269509921072 6.015846996379875 2.5914493189169425
Al 5.558431474003127 7.166550754542995 4.710945783581307
Al 6.712567749975905 9.212813216230671 6.102473946451556
Al 6.203308195141373 8.572654939069748 8.961765035379749
Al 8.70374247221762 8.876942624300419 8.096574199214462
