26
Energy = -78.75892708 eV
Al 9.35096814174015 5.204570579237176 5.856542527054142
Al 9.251506502686482 6.1597354088136544 8.406174119323945
Al 9.329487578260874 7.910592499436478 6.4099689776216575
Al 6.684442495153191 6.044386895347982 9.434667365344671
Al 7.543598463312551 8.373715500566627 8.336459217706658
Al 9.572194173703796 9.680648210979886 4.412785253740812
Al 7.104097622123772 3.9110514025063936 4.915078961746122
Al 7.5231044220787835 4.1389664034116045 7.548246319416946
Al 5.765248479734222 3.5291086966198035 9.365504595411766
Al 9.313003286348637 7.0987700363894675 3.800889424262901
Al 7.907454588088392 10.37108344449506 6.363498785473214
Al 6.847181832895259 6.582240607210004 6.171255667891784
Al 6.035442270359442 10.553193581913753 8.261456963555027
Al 4.911247876368519 5.355150914280312 7.45451670824719
Al 9.056150621313106 4.577417745880663 3.2529045324998815
Al 5.186044936490276 2.8235181318346783 6.486172731703427
Al 4.87358552821151 7.876106134286493 8.488168839661396
Al 7.116086661011869 8.669756587713941 4.213426607848428
Al 3.959701771639211 5.6288114277403745 10.041406144790098
Al 5.321029317120661 9.113480969571299 6.12710813737063
Al 3.298172795901368 3.402988656649233 8.384736694491508
Al 4.637575236623303 5.106725659733897 4.694085860702796
Al 6.797277690173513 6.118043565859116 3.3418822728096615
Al 2.5354036691889266 4.74033191106168 6.215216093163995
Al 3.3878373636137296 7.231323952743968 6.184637261481531
Al 4.64459838274151 7.750722782599091 3.7856516435618714
