26
Energy = -79.52748414 eV
Al 7.45684659239874 6.496954850269002 3.1599186698116197
Al 4.618959082082974 5.61817329166321 8.670725744703653
Al 3.4510846818136383 4.323054264247861 4.090822120687504
Al 2.029384005769301 5.728173911313369 7.911839378510162
Al 8.72398476087265 8.244942011684277 4.865876830265406
Al 6.0734078544933014 8.29805393421066 4.9522118764392635
Al 4.734408680766642 2.0211274767995295 5.266632725884739
Al 3.403000877656041 3.815006555287636 6.833384604961758
Al 7.389200768578331 2.0226846383900767 5.351209024379361
Al 3.4318082848168694 8.253095875541556 4.716347056147693
Al 3.386359292679018 7.891374801169033 7.482214142348601
Al 8.624508170245914 3.8169991895427486 6.993579746579004
Al 4.793380379648615 6.5038569104201 3.0849204171083655
Al 7.300428643710625 5.620814108260298 8.749193619793685
Al 7.355660538495685 10.087479545101605 6.614242299478835
Al 5.991845322589399 7.899795350374235 7.722417196549625
Al 7.427401206075066 6.055084372813716 5.98219522501434
Al 8.739606662930111 4.319542616625062 4.249589347773016
Al 8.606717506231867 7.8879736152091935 7.631798513205002
Al 9.93337105297173 5.726244328650736 8.153790326140644
Al 4.7002185120591875 10.091944635040237 6.537588095909866
Al 1.8683915393142578 6.14662134871223 5.241666941040786
Al 6.090418316609863 4.226226299518059 4.313752142632608
Al 4.656224907887266 6.056693362618088 5.90232308552352
Al 10.250942768793943 6.140003411539439 5.495976746422378
Al 6.007818607272348 3.7534583117620066 7.071163139452675
