28
Energy = -86.08351252 eV
Al 6.826278795129487 8.972693617623715 2.8321118838681176
Al 6.491678478150097 6.249137253144059 2.516720284610838
Al 4.663960082860234 7.855686081079484 4.2087669963645675
Al 8.597175243186696 4.787982068508269 3.8600887537339177
Al 5.432415398104337 10.32122984042363 4.723606339970069
Al 8.497482979621177 7.364892163461855 4.38287095329534
Al 8.317661873596224 9.951381974390095 4.867329422729398
Al 6.555407226683326 8.108671223538053 6.286476088599751
Al 3.9646682797135764 5.387837910583158 3.641554175005392
Al 6.284464759742568 5.652262007311615 5.139267713668937
Al 4.181698011198856 9.283419505476223 6.998153396354953
Al 7.685574093671939 6.846670120544147 8.959740167349544
Al 6.859598394641472 10.90078801117648 6.837653007449023
Al 6.659011148399652 9.328671852666249 8.864580174675453
Al 8.6494018934065 6.0275093816003515 6.597444564185147
Al 9.102193552303664 8.612310615309664 7.164727438091174
Al 8.647713887497213 4.405598236008244 8.786877355658827
Al 4.99912592683922 7.2190073620641035 8.852669511862816
Al 8.037175416775723 3.5015803718988923 6.110311462954206
Al 3.9901726766885623 6.67165903407762 6.420608309289618
Al 6.072459535239137 4.865498977067993 7.608429967069681
Al 5.985370501978092 4.819376560072457 10.274676345379476
Al 6.059724218329214 3.3881217686099188 3.578295505202818
Al 7.0155916558228215 2.4300357503882966 8.538386652156278
Al 3.4020951389672955 5.139307493814811 8.596699224982915
Al 5.771446203575344 2.188315010924686 6.102875469321086
Al 3.9479571952554045 4.072885576227838 5.932698992449209
Al 4.388190833682153 2.759185872880072 8.388703387330075
