24
Energy = -71.96618075 eV
Al 8.330225619829038 6.263752497713133 11.21903900538327
Al 9.603073856106457 5.22403516117173 9.047362693744155
Al 9.571304758842333 3.7073773094051674 6.909036951569756
Al 6.160877538872334 9.432756804274396 3.1724027934367456
Al 7.31654301193753 8.62298760357654 10.317691959531954
Al 5.737115559489439 6.84744435009454 2.4522859923679863
Al 3.270972237368973 7.5998416536298405 7.077243023585846
Al 9.032887789668827 6.596195671974782 6.7933713918215215
Al 8.237991099524072 6.037978583357269 2.4620950035097753
Al 6.180729210607735 5.100097635824379 4.535208391295079
Al 9.668441756629099 7.934240759455624 9.10202812534791
Al 4.435603048192491 7.603343906606908 4.644460833882777
Al 7.581673264333095 7.563134447253729 4.68038254158193
Al 3.646672059879577 5.357447423789679 3.2962677259763007
Al 8.863209288189852 4.907927145344092 4.712860258589079
Al 5.767091119566394 9.500088507681106 5.878790636931397
Al 5.981437967680536 6.816097313318348 6.63119924935077
Al 7.192791763484361 6.3333244320933195 8.855659862290851
Al 6.936028453963619 4.334129742091962 7.064660452515608
Al 5.221650962867064 8.316656241141375 8.748963031036531
Al 3.8701818038587565 5.106657714572717 5.973610905964876
Al 7.695078201374757 8.818110126543447 7.517514527865113
Al 5.499687882089892 6.527632634430361 11.043712498115463
Al 4.68817040426257 5.403068308011896 8.655940524499227
