20
Energy = -59.82282459 eV
Al 3.980659605940859 7.951078380455331 6.509511216911504
Al 6.274272962695545 8.826192386652215 8.39934275782837
Al 4.283475877361779 7.287014293089359 9.181353271959068
Al 8.279310369545927 9.70574666547279 6.825982396318701
Al 7.896703335660391 6.559425699659664 3.468834927498569
Al 2.271810132473317 6.161603100470346 7.557543984440117
Al 6.504248176031369 4.638799799981284 4.835208064357105
Al 6.522778931348152 5.931800521370633 8.834632362419228
Al 4.1609872427014745 4.641769792537995 8.805574596975688
Al 6.12573253989597 3.491912982763356 7.396959408290085
Al 8.005007408620475 2.57375676689296 5.762963709620283
Al 9.479765949932972 7.198784647918972 5.863148616623832
Al 8.387888864419002 4.962501431589938 7.223865636297063
Al 6.794676655832962 7.15513754187856 6.275249733787315
Al 8.611547384931361 7.380172635539906 8.318762468590583
Al 4.455548890588242 5.351644577815279 6.244506704089233
Al 9.251821152851235 4.656107330613938 4.751303836412691
Al 7.919296033141043 9.0039584844847 4.296417486365003
Al 5.235154391151625 6.947897145225 4.164568735773675
Al 5.563181386707589 9.578563107418931 5.288137377273189
