27
Energy = -83.10850195 eV
Al 5.089796851642554 2.094661145957497 4.62671762645005
Al 5.578894099411168 4.512517698178579 3.7981731071111238
Al 3.915450121341253 6.363804248221324 4.922581440744882
Al 4.292097945899823 3.9293134135794 6.280124919064452
Al 4.5127963378333895 9.079640027502139 4.749139759943065
Al 6.117844249258415 7.112395563502557 3.675791424975222
Al 8.532493129333854 8.298291527886981 3.448053074041475
Al 7.001286570760378 3.257603818554107 5.976585105921594
Al 6.363100937421095 9.741700811598694 2.9824928527528756
Al 8.1040205518085 5.3156511668019055 4.424901388341522
Al 2.6249032852027665 8.51798492027817 6.509187049928407
Al 3.9465831418736843 6.222552795771296 7.5347973721815
Al 10.43028563221399 6.545912343056262 3.8116872549248293
Al 6.4372874991847135 6.481242865901736 6.382522992601741
Al 11.133196724522875 5.655587723699228 6.195625944529324
Al 3.273387837780199 8.2535230225279 9.127978734935802
Al 8.630638030033406 4.8912397774580265 7.158050448862452
Al 6.0535486274107875 4.499736421654852 8.302198402125224
Al 3.7842750980667117 5.804984993015216 10.2081062636343
Al 9.109493723353934 7.467210958056247 5.968081136296449
Al 7.8243826538427035 8.392105334717108 8.072429324808583
Al 7.140276945161583 9.221855657075427 5.606457365393665
Al 5.240287436466854 8.867321376423321 7.388060339969045
Al 10.195402196600615 6.852379415346782 8.345432983323201
Al 5.863474879587752 7.2280330510873965 9.372828229141883
Al 8.155703906266847 5.9174411567847045 9.642000158712287
Al 6.164134108417299 4.990351286059975 11.00503781998219
