24
Energy = -73.00195605 eV
Al 6.413541394875419 8.259700427893108 8.203236163026679
Al 7.718905244417551 6.403071632222349 9.408088369721078
Al 5.127275722873019 5.473748077593931 8.746364612421475
Al 7.1396263432313605 9.426878492026649 5.712078651789608
Al 3.6774804534718872 7.541906501644062 8.281263567061755
Al 8.839014579483365 7.681394365202713 6.718809511840155
Al 7.021151048567913 3.6900105336237896 9.082011690589125
Al 4.714222380154721 9.757841204114985 6.8796218410728285
Al 5.211888186504007 7.2039996002122475 6.034572042030479
Al 9.793912888565147 5.595208462924414 7.9736180912017405
Al 3.4575465908464436 4.961253488723299 6.430782571280001
Al 5.592177081800645 8.578691155132226 3.5991510499220634
Al 7.1215272350642485 5.38425032810891 6.934541011812108
Al 3.324213832930845 9.329393363396825 4.654645074933163
Al 9.246403911568848 5.24460627791458 5.343366515321188
Al 5.21658215721051 3.1275612431364794 7.135912841319966
Al 7.436142673921068 6.914287807788239 4.489906460684106
Al 9.143942213677992 3.0622972869072522 7.6112757833303455
Al 2.339749430927685 7.288423896283182 6.009633623337911
Al 5.9854532880570845 6.072102357459944 2.414186119941095
Al 5.627748454081357 4.6160692041286895 4.78854997207758
Al 7.4898171216569045 2.9294508313788707 5.59392315736263
Al 3.812370378396618 6.295248465459696 3.9640561036953854
Al 7.796847136256569 4.424009576191451 3.2466678756844645
