23
Energy = -69.79256599 eV
Al 7.679535663958239 1.9315384406971932 6.571795622061347
Al 8.708774790169356 4.217220077180985 5.3778818468671
Al 9.636018640010864 6.47805506250413 4.321462816843036
Al 7.972726956861971 4.302650747971007 7.9552940524491245
Al 8.625475784992641 6.572176552068203 6.819945547253782
Al 8.48189333691042 6.468018179500773 9.514669324438522
Al 6.006482756440568 3.763998129610852 5.437986216530635
Al 9.738835519077234 8.709729776625469 5.81780798215155
Al 5.663338485187932 3.1018990470130796 7.987966324674808
Al 6.963854636044268 6.046454075057222 4.2790418769073515
Al 9.054478541469315 8.820778348050846 8.376687921381803
Al 5.8600421797529325 6.463177688465405 6.6737586308830865
Al 7.127433133043089 8.958114306131874 6.283096601088561
Al 4.347816252182342 5.494455504400001 4.317910661444299
Al 5.891039714064951 5.473298901054399 9.327915009945462
Al 3.8964108095072776 4.832002332279155 6.9908194774655845
Al 7.858252351550243 8.519231641879886 3.732685922209717
Al 6.447278416761799 8.18984070052626 8.76883914526074
Al 5.169218782888217 8.153171609147538 4.394909624149085
Al 3.9343225615555184 7.135150758122834 8.641608178416185
Al 2.9961625051324647 7.160389968314652 5.948552046164023
Al 4.590038920655889 9.186970679918607 7.057451057188892
Al 2.938392983041161 9.60950119473861 4.989737835484727
