28
Energy = -85.48389286 eV
Al 10.984227914130638 12.081118705007654 6.156000250758568
Al 9.270255658937375 8.15386207312547 5.558919089733131
Al 8.372981084682028 5.957322120920216 9.05947140044615
Al 7.25370675865956 6.596674271815942 6.278490934486657
Al 11.417954339854754 5.318632157204333 8.613940976991174
Al 5.913534508262037 7.226332219424654 10.069802746877622
Al 6.286317414334953 11.062681846026122 7.855326389634844
Al 7.749511655792017 3.999493465133642 7.215018973385899
Al 11.359932638830124 9.65220758659774 5.242424719726522
Al 9.756186278311217 5.618074904416998 6.54299739807956
Al 11.839039550861969 9.913234315522324 7.828158327370736
Al 9.952513158312911 7.960452552369683 8.226332926103357
Al 8.346787951603481 10.969004670002288 9.691269043729159
Al 4.909306411191384 7.721614185275874 6.778439482700771
Al 4.230011122229391 10.320950172777982 6.324650564555423
Al 7.289023821448584 8.584823522838768 8.214964660832052
Al 6.153130803849132 9.931834846151197 10.5330347667392
Al 5.677377354699269 5.3744470098720205 8.06315084440408
Al 8.346684148469945 8.300826246373104 10.767366032491157
Al 6.76137653430992 9.333103853172405 5.640774534685076
Al 10.468330988922876 6.804157251386048 10.7117339450666
Al 10.461399589881403 12.036963067543567 8.70047122271717
Al 4.206125676240577 9.341122913991704 8.885048962117947
Al 12.54849837700086 7.77739999824411 9.23301548779017
Al 10.728085017175173 9.636548231015304 10.259078289791722
Al 11.992929161094168 7.304783775146453 6.537911073138284
Al 3.54666275841891 6.73214083052646 8.920857524847818
Al 8.954868685335356 10.495345594754642 6.991299149955858
