25
Energy = -76.38272845 eV
Al 6.784233191134244 4.336837233941237 9.58173816405306
Al 9.492120524239859 6.277399428675711 5.3375737579928435
Al 7.507612359162655 6.902750211510854 9.560382529810006
Al 8.919153702607002 8.906719852776485 5.0511689260597485
Al 6.538661802259455 8.228334727231687 3.5584994937535943
Al 6.007463986683387 4.459994570098057 5.7065543901697495
Al 8.24359598477515 5.277792823389837 7.492745500477441
Al 3.972699423177458 8.708603880485072 3.3816586337516332
Al 7.382551145839438 9.805785000856279 6.967667544514614
Al 4.652109280924608 3.425019196691525 7.854621131007732
Al 8.573354452311685 3.6923058122350314 5.281198085954392
Al 8.159491146988243 9.499936214473509 9.565569353107074
Al 3.4668030363651456 5.190259830270129 6.319980740082464
Al 9.172262766770146 7.843696099883197 7.605083071164389
Al 5.6393650795796315 8.794017476638603 8.692360073776836
Al 7.326438532485871 2.676052487970454 7.36594498803778
Al 5.040702250602382 8.869869514847217 5.914514197001094
Al 3.3958686732162016 7.851314936909695 7.779521930028256
Al 7.395195321381235 5.484408297725272 3.6307779270421734
Al 7.003584543023541 7.102275336499587 5.988228772950008
Al 4.833367508825701 6.2704976491783295 4.260235706021683
Al 9.03745870000226 7.447265768973349 2.8127977143575564
Al 5.900716781680274 1.8261132683815426 9.592046969059043
Al 2.6533966395033897 7.504265244840286 5.282497144291121
Al 5.412957435238517 6.129649404294393 7.927797524313625
