27
Energy = -82.60053982 eV
Al 6.735076386075341 8.719149902565723 2.4526584132714357
Al 7.602436584276027 10.108083749080798 4.814886601281647
Al 9.687895109073837 8.883585434395084 6.019706711826524
Al 8.15870756987661 7.410669939885096 4.288960522600124
Al 5.9070224783203304 6.166517184693867 3.2643014887887625
Al 5.433177950923376 8.36573518329653 4.745307146466948
Al 5.533438106359259 10.566666272799264 6.4494985654623616
Al 7.184343431578917 8.386334953524651 7.059058240194493
Al 7.976411566036744 4.572243275636601 4.187185258002117
Al 9.309846987575101 6.093250355035442 6.1375997042115165
Al 6.479595326219644 6.08441815588451 6.110784100990883
Al 4.05483112306167 8.243792749019926 6.851775804793219
Al 3.9020081494146783 6.013929798527733 5.233906459100596
Al 5.419303043933729 3.877955199104434 4.867095557137665
Al 9.705569854410323 7.604757410943922 8.401496186285412
Al 10.234562508941503 4.914495295390881 8.285333773915877
Al 3.1487732091168374 8.020015940376599 9.29192758907613
Al 5.302936404065408 9.604117376407414 9.051917552652661
Al 3.192656725611595 5.804634594321883 7.830464569176391
Al 7.440783947134744 2.051366227857934 4.831877142251198
Al 5.4517504340281056 6.815164838672812 8.909189044894696
Al 3.238881470943623 3.3548256744835716 6.536990444973095
Al 7.566618362490573 8.345497898434186 9.761113400035615
Al 8.069479316598441 3.678924595563831 6.8783998628421745
Al 5.5176332446913765 4.280053182737656 7.885002778950905
Al 7.730041665075688 5.710022522329626 8.648787649186028
Al 5.524329785045596 1.8319030299092498 6.7128861725110704
