20
Energy = -57.68186192 eV
Al 4.030369261345561 9.044249476063227 8.73590975339323
Al 10.872269462345535 6.82588956865922 4.76695294089894
Al 8.885564017480942 8.556769560042458 6.142290644002929
Al 4.935201684687722 11.117986647258817 7.02874066277182
Al 11.519606688223709 4.573101391857107 8.43950684485364
Al 8.714296089990048 4.537671246862506 8.202219766377917
Al 5.612749688143554 11.02081186284132 9.737750221276459
Al 7.928294315279917 7.10016239533136 8.333643124172049
Al 4.386309011918301 8.52935562914805 6.093409008879098
Al 6.1408344582537095 8.008148226914464 10.224761873879913
Al 10.34244507678158 6.7342417226479565 7.4906657671038195
Al 6.623796388636897 7.346805512933546 5.535205422843985
Al 5.105695894835261 6.756395079404921 8.00459474952631
Al 6.37749606797519 4.781396030660943 6.9100446273191976
Al 6.7453818111733135 9.295855555693757 7.839664707383093
Al 8.522375554485118 5.60083559303087 5.598113237591036
Al 6.755467589027462 10.020569712517931 5.237345053143131
Al 4.455341823853294 5.833595711220245 5.383687023312856
Al 10.836983628163294 4.380020733469135 5.899206473949416
Al 6.550860639228728 5.277477495270754 9.737627249150158
