24
Energy = -72.69104414 eV
Al 9.286430188339676 4.748858202110134 8.002339682944513
Al 7.932011684409961 6.586456232536675 6.583182008500607
Al 6.586256403560344 8.487394335073189 5.116994504146942
Al 9.285144049634335 8.42395602721104 8.00371915703737
Al 6.587568542449052 4.685673874349618 5.115712044481799
Al 7.914924995150562 2.816734616997404 6.589453471910923
Al 9.285877205456352 8.43289313595993 5.172288751859414
Al 9.287137468090933 4.741917154344851 5.170912723974866
Al 6.584434468432249 8.480586740888763 8.057293636884939
Al 6.585743224616439 4.690342820516641 8.056025324196783
Al 7.99352884769327 6.587556824403275 3.5634147721281777
Al 10.827337764162886 6.58744733323642 6.581029123220464
Al 5.2398979990743655 6.585524609892715 6.581663600131485
Al 7.989487922301072 6.5853976779176255 9.61472448693668
Al 5.177651009300265 6.584440154165001 9.612527940012258
Al 3.883927100431965 8.422920519521018 7.999898619909053
Al 3.885176929700852 4.746243098158402 7.998557973144071
Al 7.912411103644428 10.356163419416495 6.5921650478482094
Al 5.1825130743970504 6.586597543200507 3.561537646190271
Al 5.257371267215329 10.355477543976486 6.590167861454446
Al 3.8866108883074775 8.43080119961325 5.168761857924377
Al 2.344702551777718 6.584541679094767 6.576765664251883
Al 3.887892287500276 4.740370000100295 5.167343355350791
Al 5.259900493731672 2.815642690693219 6.587458232938449
