28
Energy = -86.70389322 eV
Al 3.960070792805994 8.010186018579253 10.031865825855588
Al 5.916177079035284 6.209826842040142 10.326336256471661
Al 7.597982525673167 4.123305114600405 10.532208539902014
Al 6.071486161650338 4.096480107653662 8.379994745710077
Al 4.307292925916793 6.134730678840192 8.104245639696696
Al 2.3839589276983917 8.050837677642738 7.7475604027528835
Al 4.663175144628081 4.278918018899147 6.18292011779073
Al 2.7901960889729973 6.2797500352875755 5.787695801787835
Al 3.2383555275793587 4.538977302236669 3.8778462978279906
Al 4.201045927895795 10.088967836856572 8.18770091825773
Al 8.943536862531527 4.00847472890912 8.208666554249561
Al 6.22315240389138 8.334352815408957 8.556240811783768
Al 8.137967960839289 6.495802874043026 8.83910153020027
Al 7.327220993007813 3.9285906791402003 5.989113608133711
Al 10.011100212283765 3.6272410214202004 5.79369604361096
Al 6.364917257181509 10.36911622062743 6.651756079225336
Al 4.550209665500561 8.39755041951698 6.098700312201223
Al 4.918902409049669 6.675981643660633 4.058887342992491
Al 5.812521927514397 4.085304101785107 3.675059293244388
Al 6.4796162069655265 6.49335316555708 6.475409276576595
Al 9.241546265285796 6.143725405393233 6.4369066794856
Al 8.445383328826356 3.64196793054673 3.506443515362123
Al 7.573075906776367 6.202121623764446 3.980751557943915
Al 8.362797992331087 8.60267433092618 6.979209354856965
Al 8.29605709057885 10.605716581576543 4.807025529846544
Al 10.236107492756405 5.708815907163933 3.960133934199744
Al 6.558099982466863 8.697613173200637 4.297178261310385
Al 9.39277667989218 8.174349484259634 4.532077508258597
