25
Energy = -76.05186067 eV
Al 7.17461133902929 6.252849029190566 2.2837562036924925
Al 2.500060115753881 7.2708177554824385 2.525763414971048
Al 4.577672445555384 5.35799034650138 2.6279653253130144
Al 7.621106873788062 8.437381566510025 4.08748603613135
Al 3.244142685960722 7.4980196334384805 5.070991781431539
Al 5.88804330690568 6.652587325687164 4.720363686925369
Al 8.469403429127276 5.769957162532714 4.701956117490801
Al 1.9383384078516255 5.015130092444706 3.941754541161684
Al 6.512276400565264 3.9851234757509335 3.891718143282958
Al 5.024510297183479 8.27806200285379 2.7740269129093824
Al 3.9221094012347963 2.8170658384471277 3.4877093589253736
Al 8.246676397276193 2.9401940765317938 5.637438917519337
Al 5.3123463527893655 2.432954795188156 5.8543981926507955
Al 4.202314454320174 4.877083339984032 5.3478385920619464
Al 5.335268559780794 9.227548251065622 5.658134635516591
Al 2.5043867887093887 3.06037948155946 5.981587950928267
Al 6.596792727924846 4.855762189185071 6.674142383106247
Al 7.283164263862017 7.6361931728378405 6.852774255220809
Al 2.036006853632415 5.780388077885193 6.878942506823317
Al 9.19152699712615 5.792546978262362 7.2795812268417555
Al 4.6475104261725 6.946577371114417 7.262812975477061
Al 8.549015794424411 3.52096794459199 8.282004989379153
Al 6.141049257659573 2.6595108737415045 8.386317387616284
Al 4.111995938401593 4.353768669042161 8.0278011567487
Al 6.370447954511971 5.98191801971732 9.163510777421116
