20
Energy = -59.45227854 eV
Al 6.5227579420548585 5.002694996254617 3.2171958590640837
Al 6.080851998029769 2.5433503898031904 4.0266274838876095
Al 8.459724551479262 6.405718041440502 4.294693983879371
Al 5.638912060147745 7.291179364910856 4.622242415224513
Al 8.120517101445014 4.060979627110952 5.357471526446327
Al 5.0233284962959015 4.710410023939042 5.413586476652656
Al 9.620394852425806 5.804538243373621 6.865273889062318
Al 8.236729306431071 8.601438107754996 5.636916487234621
Al 6.081687985095023 9.91016795443465 4.646980962121253
Al 6.351458847452441 2.62170300071951 6.674896666065132
Al 8.107646751225912 4.093000851410677 8.173090361229056
Al 5.322967772194108 4.578146176740289 8.129414501846435
Al 4.20177848328416 6.7279053204975305 6.935441896196364
Al 3.8747266092305734 9.29088214009659 5.98606693461198
Al 6.986681121659829 6.2424545727390255 6.719560485038199
Al 6.2825454849398925 9.030858956379673 7.210834548758053
Al 5.926569094031544 6.94550138654743 9.139177931303102
Al 8.437455804660162 7.8800252659985155 8.39460685307747
Al 4.164976859081748 9.015550113158014 8.792532987795814
Al 6.684877209623301 9.370083797479143 9.889976081294773
