27
Energy = -82.91497814 eV
Al 6.257853729970345 10.454207796046694 9.291178683950712
Al 7.016684756831266 10.439520689702313 6.755868977093839
Al 4.899204203123765 8.804743628279688 7.619428166800685
Al 7.329435145516652 7.908936853133306 3.2125465527824426
Al 7.702824933146539 10.411169649465704 4.180331962828504
Al 5.634751175346996 8.8463425555406 5.064669097620715
Al 4.351497508678159 7.496449251185843 3.0460191836160035
Al 5.808776109659367 7.981471628318571 10.144102323970765
Al 3.706705647452077 7.253652069920365 5.8238768115652215
Al 4.273081460653699 6.315470272832699 8.332706212928981
Al 7.801939436878155 8.323363102036247 8.333917432223888
Al 2.9329472181478407 5.420895272081158 4.027251675261082
Al 8.528574911721217 8.352223344722512 5.761472735279995
Al 6.416262288100053 6.4917606724085175 6.641554239376837
Al 7.319676412480741 5.914918696109921 9.261294961908845
Al 5.1452172706534824 5.400398225259315 10.797343637232899
Al 4.23421358468849 4.522991751673073 6.162574830405185
Al 5.76021165228283 5.451092742996836 4.122666925724902
Al 7.719201680434004 5.585313968448983 2.0963541079511288
Al 8.385611687884303 5.889932547124967 4.752846200882438
Al 9.169132363105314 6.210800438536046 7.310905831376235
Al 5.513139473873626 3.885969565149319 8.39450263017606
Al 7.028285834782854 3.5313688481283227 10.629203466460696
Al 6.7750485343583104 3.7841840150880692 5.978601995281206
Al 8.251898940537055 3.652843919680329 8.20727323909365
Al 7.997689982545433 3.460035752485823 3.6450652394839294
Al 9.553943438660667 3.7237521251577204 5.920252260236096
