23
Energy = -69.16859452 eV
Al 5.660622068294562 10.612340277554246 6.702671173754888
Al 4.902245825656564 8.792761028281381 8.592650902485012
Al 4.8836936755219815 6.871904826748144 10.338020281355607
Al 4.341350141904201 5.707346884028894 5.120131996543327
Al 6.9561242950218025 9.559204824283928 4.688231622793032
Al 4.589034658498262 5.942631230220552 7.793673322173209
Al 9.56321968062256 9.17123301038415 5.266905069252102
Al 6.851033563388483 8.748384179785646 10.517949086299973
Al 10.037176016820956 4.302874389133686 6.84971757572568
Al 10.74709999307762 8.764742556722686 7.508230256680199
Al 8.406941870536333 7.146614227768204 4.0523281187075035
Al 11.326605731321171 6.25523612359609 8.149861778238813
Al 6.663689051777983 10.956641582423272 9.176774721436537
Al 5.7891430566777595 7.334485717577209 3.609359410506494
Al 6.3282447615009 4.724969993246832 9.837844830454317
Al 7.898950039834997 9.234469196913166 7.418828342022098
Al 6.900205439841962 5.548800794945016 5.566010596341037
Al 9.034553621749584 6.806899209178977 6.7037907568257635
Al 5.49276197298572 7.924957417637781 6.193051993915786
Al 6.973416682635556 6.8972285873904156 8.422542062320113
Al 9.199805784100628 8.076480740506696 9.558187545052247
Al 9.069574400832074 5.4251988539196985 9.324473521120126
Al 7.475896820362503 4.05816187676208 7.607335575465923
