26
Energy = -79.64022206 eV
Al 10.439896884759566 5.663819387113849 8.227485501095757
Al 9.94350714331314 5.118099422838712 5.709795878101211
Al 9.341461906989593 7.556528074733592 6.515382979916067
Al 7.824791060340809 5.18809656395317 7.560430259352197
Al 6.617300320045618 2.794052415884442 7.265464488484894
Al 8.719020717670066 7.5247868673040745 9.072323634243897
Al 9.3285145571074 9.963452365775876 7.634376877927683
Al 6.202206260184447 6.694398902866437 9.079965048212578
Al 8.68959675417682 2.7791558876845315 5.702029638021517
Al 5.689944144579966 4.042671813970346 9.318996109478299
Al 8.723789338237697 4.2568230271662175 3.341014349112834
Al 8.28927712996967 6.7879318320434 4.2836969051451375
Al 6.683047623163834 4.4990338681478725 5.03413034782932
Al 6.847967207093913 9.153437681192573 7.883241883794181
Al 6.288547280283485 7.036810635038067 6.205324552901621
Al 4.799918000241304 4.711819595923047 6.806075768623996
Al 7.796029719034525 9.362652796225126 5.301360959509838
Al 3.6419568526251993 5.652831855364136 9.022954203210672
Al 4.392436178281365 8.270621947767806 8.010599725963928
Al 6.565563223675239 5.723000340996464 2.502024788679605
Al 4.558921038239181 5.929356728455246 4.346657495376055
Al 4.309609634561947 8.694245569766228 5.090949598539674
Al 6.2111409062089225 8.21367105990275 3.453205180859892
Al 2.9481194777166486 6.53140671518811 6.297097041821056
Al 1.8410078208862006 7.538007373274384 8.580918543911496
Al 2.2287368042583875 9.235595255068667 6.676806223532005
