22
Energy = -66.51340572 eV
Al 7.956569282091798 4.547886561796503 3.2261680076144357
Al 8.396191089391703 7.652000749713047 3.7463188541010153
Al 9.80323916115352 6.06301471902582 5.32142756681566
Al 5.940388310583282 6.9780002017308504 3.0424557142582285
Al 8.75696066502917 3.7968766206885727 6.193156567056943
Al 4.900613299586107 4.707968091519727 3.9125465231694148
Al 6.299996301155233 3.1176318555676588 5.496024679772024
Al 6.98385769745492 5.866879350496045 5.430726896793161
Al 8.604318191275732 8.282122770611966 6.395220988144966
Al 8.835585625138014 5.96103161834713 7.870897846711962
Al 6.274102945824025 8.824018470898235 5.025847399292673
Al 6.683606586055695 9.883387199005119 7.513170201839605
Al 8.111664373845466 8.307983553693111 9.082432588483128
Al 6.72988538312718 4.183109686067227 7.982879164597931
Al 6.023556578318201 7.133729669991981 7.564441677775578
Al 4.172488331398953 7.036862606976561 5.130451130085214
Al 4.3999512354378645 4.720751345494691 6.607481822536625
Al 4.230134185837715 9.195089683075334 6.80406150067062
Al 5.021149048761997 8.426463355124074 9.758115308427744
Al 7.072633572558334 6.044078000890884 9.960930159951898
Al 4.617409963100095 5.356492998788895 9.263533304807801
Al 3.1995473242590133 6.928470041880873 7.685561248477397
