22
Energy = -65.58770176 eV
Al 10.709153850990717 7.6218550684652975 10.42594942297695
Al 4.452332783560832 6.025075379189704 7.646716896705759
Al 4.255672657146756 8.253023666234863 8.93771183935654
Al 5.916048349485227 6.424640704992252 10.483108327621123
Al 7.712250747684143 9.825854518919465 6.390750629258981
Al 5.777509716346617 9.294987071412281 10.749565116500792
Al 10.390471420802662 9.39220145587344 5.747149341290487
Al 6.277108166452655 6.324642759080602 5.696641103031145
Al 6.603050685615819 4.735571520095659 8.350966898822257
Al 9.987204961114216 10.131939184596892 10.08178951993466
Al 9.525355956995636 8.264323739880197 8.040441417991604
Al 6.898797760235505 7.6025632374154535 8.230654250877148
Al 5.1713884723543275 8.78669011961789 6.551650358973277
Al 10.922518686756755 5.775331675928325 8.539144060513742
Al 8.128473518581133 8.243792271635336 10.91731891599008
Al 8.61213199547545 10.030539821308707 3.903040018709884
Al 7.524755785423686 10.25222317466813 8.925818028790314
Al 8.562705588996021 5.86443813286851 9.774371947128877
Al 6.421895560581171 8.639105034378156 4.2593279712834535
Al 8.666074578499249 5.703598244063779 7.032150458251674
Al 8.665476462683085 7.397782474917269 4.879297655059891
Al 10.948288771526641 6.774383348909794 6.084034273747652
