26
Energy = -78.88662187 eV
Al 6.097125778143612 2.861413014640567 8.445546478679159
Al 5.879235125157945 4.980778342752975 10.08634160327569
Al 8.046304951879204 4.709016998779568 8.148493062279138
Al 5.365835454446962 5.137341966113794 7.28179868010826
Al 7.906126382258762 2.078107502948998 6.7392676096371344
Al 5.423083393716178 7.519804093295688 11.137698193691755
Al 6.948784884373785 7.0996120244472305 8.815264605378971
Al 4.0121583750613805 6.951810943508502 8.81602302856585
Al 5.759019267715304 3.1205088246298422 5.429140611038983
Al 8.055319034621155 6.8008645775449805 6.449561477665233
Al 5.426020694736855 9.36448940756186 8.840995028528562
Al 7.888602710809475 2.1076261743594316 4.091886160092018
Al 8.252555258332018 4.425024176098288 5.413389469643186
Al 5.1849696447088105 10.415058860434584 6.082906899145929
Al 9.414993628755077 8.830247280240508 5.0828090623518545
Al 3.103402053125515 6.516583271054754 6.349622946620348
Al 5.850106508165154 5.95560381705203 4.784109962443273
Al 7.653468999067439 9.359363291999232 7.094665867463255
Al 3.583251016797549 4.319035548035368 4.958324716997787
Al 8.45188784728622 6.6689500802046195 3.7409952808057754
Al 7.08796051280981 4.416613299444353 2.944843214759681
Al 5.4023672986571905 7.814983674599305 6.6981071712040725
Al 3.717488617513432 5.961775779575045 2.915379707216568
Al 6.10376963976694 7.143706215680553 2.312166101009765
Al 6.727349974334673 8.734389417638262 4.451099718533919
Al 4.150190280491506 8.198668750091606 4.38094067559548
