22
Energy = -66.84258646 eV
Al 5.513490414046868 4.372255602605813 8.107490456576805
Al 8.326715294435573 7.001844639740648 10.654291040626877
Al 5.952100396722054 6.001753646562615 10.216792926005793
Al 8.090913935188462 5.304254288572853 8.584092172240663
Al 7.719096622977326 3.8891667471165223 6.481564096814623
Al 5.162013140020099 3.0235618048141952 5.797593395993563
Al 7.166229031001191 2.6369812865303874 4.167551288319549
Al 9.28349026754596 6.162725616623338 6.231467893494497
Al 9.534850856689257 7.681646314960152 8.441094311616482
Al 4.379946369932833 7.018599979398107 8.27972219219162
Al 6.825469452392498 8.22469601282291 8.790684021627587
Al 8.744322506750327 4.712364627295649 4.024724750934546
Al 6.4985421463872335 6.496927219401115 6.506322552034977
Al 5.4264292084803385 9.155130956749465 6.855138476884046
Al 5.982393085446345 5.047781714089911 4.067119661103136
Al 3.9566521311826977 5.433679640135449 5.9155181001471595
Al 3.0225192965746444 7.952708382569648 6.143951727431431
Al 8.13931330514489 8.796256779205871 6.4204743447788655
Al 7.719495900316189 7.20764460563792 4.0593854440302515
Al 4.019587263992079 9.874015241230492 4.679573404835695
Al 4.964405320213742 7.3955922462593255 4.232198784468597
Al 6.604368259759854 9.64275685287865 4.375593163044122
