22
Energy = -66.43858163 eV
Al 7.869193180316386 4.285180735442743 4.454333754516212
Al 7.618403965247181 6.742799339017923 3.333614412155815
Al 5.277381407439317 5.693888128193593 4.241343139619151
Al 9.310108221023162 8.120131764838977 4.970629454666024
Al 5.742581612355436 3.4230083379745735 5.7483637787668895
Al 5.213687187429212 8.03086367801104 3.00684609938049
Al 6.679265410359539 9.175409653369478 4.809114526716807
Al 3.3378643612394896 4.693298841176564 5.719875003218449
Al 9.695520425859828 5.606174579959167 5.967859915818522
Al 7.235875211333008 6.7332367269917475 6.004765438878089
Al 4.392609214031964 7.927488358312784 5.659789159267597
Al 8.352044541067396 10.102412829740205 6.618276855647917
Al 7.781443462791725 4.3206185597555 7.397602805545376
Al 5.192099126986354 5.850712312998435 7.253974294709862
Al 9.732086608584861 5.529564178838891 8.717693624806383
Al 2.6865770666738777 6.7004905217832755 7.31649816870807
Al 4.218079075529809 8.028962033026188 9.001550366772863
Al 9.058757800104571 7.851107045712724 7.780270850169866
Al 6.300071371175027 8.737031396925902 7.644096851279574
Al 5.515026525413982 3.480862743421317 8.445214106080387
Al 7.129895881298739 6.423976164926015 9.10880117964541
Al 4.690998983019847 5.57235270886454 9.829056852911673
