27
Energy = -82.19919966 eV
Al 2.0871536261080004 5.814420044013136 4.184477824850154
Al 4.085556205088911 4.9945264999335315 2.7677120929397176
Al 3.736633444672409 3.6314974028167017 5.1710774874519
Al 1.8825831202126222 5.547264548207394 6.858983148231283
Al 2.1401711561291283 8.343244983442183 5.1616398887501065
Al 4.216582338409632 7.550543205981153 3.5353884760167933
Al 6.1727061512659915 4.532266290423987 4.319523688638098
Al 4.534858552460359 6.0557993457257355 5.975034020599654
Al 3.828040316183456 3.8605505271452984 7.838831564540443
Al 6.3740926569645575 6.288189197712757 2.1483454909819644
Al 3.2308409176418666 7.863846201016312 7.5791053774520964
Al 6.019738747785035 2.788156954557925 6.35258121977369
Al 4.77003278451129 9.25283925089323 5.53364806913269
Al 6.6266005150720915 7.405640531607048 4.628977264858067
Al 8.526655670176687 5.661060355710235 3.6178313616062807
Al 8.469649702088436 3.3404187394272795 5.383406674906095
Al 4.673222093439608 6.095426276507087 9.004165207420609
Al 6.3243048758261375 3.77284564000275 8.80168578328859
Al 7.387124675375957 9.703410703131636 5.8944402234781155
Al 7.328891964439576 5.515611721181538 6.611665896260771
Al 6.021349036019492 7.826038381222619 7.45794780150127
Al 10.514050248536098 5.092035344195103 5.512073950001609
Al 9.127817440391992 7.4700350639655415 5.507718695900573
Al 8.984295510238795 3.741986303696589 8.082555316762722
Al 7.371082642730166 6.205308378130476 9.196035596233793
Al 8.553672837639931 8.39383255508108 7.948771443259967
Al 9.980881722045723 6.2412052260740385 7.907029145854901
