28
Energy = -85.24103084 eV
Al 9.529083778669987 3.360522221087529 6.128747469295859
Al 10.711951085871704 5.622525985507405 5.945513960306636
Al 4.992964059996905 2.301694136676163 8.107705223239513
Al 7.249312517430221 3.013857558032841 7.1549497155151895
Al 8.466477706271936 5.391993582929835 7.854269501775393
Al 9.65197025994156 6.246398266387083 3.6639538503508815
Al 11.142949594909473 7.571743329968606 7.578537525888448
Al 7.764130894900197 5.8575799482342985 10.455972939137615
Al 7.585722449597496 5.130842832469889 5.196120172976878
Al 5.8212644550956165 4.873499112482355 8.974458646905026
Al 3.1749313106970587 4.177570963792537 8.198751013641386
Al 8.825431845169609 7.627648292617058 6.069158013737324
Al 8.883154017809064 7.779422469499799 8.99911013499967
Al 5.091743659439952 4.45420591709526 6.303860112165662
Al 9.95111907326975 9.84507396250893 7.298202539842261
Al 6.249884770779357 7.006167930684628 6.758310338540264
Al 6.162364108421868 7.711409277436141 9.405770232039448
Al 7.4512489983791035 7.591713962510764 3.747356440867159
Al 5.091737514692091 6.140905087647287 4.3371138722549345
Al 3.9149592598744016 6.7102447142308215 8.25794310483751
Al 2.6571032721406436 5.825393374995592 5.990453878564126
Al 7.294660698195551 9.53273456645988 7.599645874696784
Al 8.595935528863263 10.145309196005934 5.005619341426341
Al 4.649340439747382 9.24741897702521 7.742303174486298
Al 6.059050499842796 9.533953497585218 5.24407141498636
Al 5.033128983752912 8.449039905425408 3.0127111556286184
Al 3.7169408921063116 8.257713529182151 5.364492162770987
Al 1.979581459600477 8.291560536988227 7.303041324590433
