22
Energy = -66.40137151 eV
Al 6.967316563429884 6.177299233973287 9.661571337674712
Al 3.8921304115050783 9.355511697118741 8.053963134525848
Al 8.58651171982488 7.00670227308292 7.613542329757777
Al 4.213324645928823 6.679010417988179 8.61432965558957
Al 8.11725930780839 9.189459545746022 6.017818124177658
Al 4.922349695194376 4.233172402134256 9.109828189117717
Al 5.177104808711737 9.152484455782494 5.629609075112755
Al 8.344484748671439 4.1228707827442905 8.566590499732714
Al 2.975112518830406 7.577042029256744 6.294786024179825
Al 6.305681930023941 8.220352416878274 7.893907549807152
Al 6.286778933953847 5.321249405438394 7.181595173224668
Al 6.681052751513337 8.79764551331922 3.5449342395920325
Al 9.363418559827883 5.011740009297267 6.184872800109172
Al 6.886147769417133 6.882882374404464 5.28658753294645
Al 3.6030439852356566 4.988754779424998 6.404696678393943
Al 5.00705402103468 2.780781787571452 6.8013518671190445
Al 7.440486659622038 3.159893959799487 5.995104288361461
Al 9.54186309067427 7.30670761055807 4.7099720602837545
Al 4.335442146308937 6.892809951328609 4.114986278519599
Al 8.115098825669273 4.939345325896435 3.822554841063121
Al 5.514084456777164 4.547032734476283 4.607924026606453
Al 6.343943029386194 6.291264323273348 2.5086646539580686
