29
Energy = -88.87223377 eV
Al 8.621514245774629 6.790891263388329 2.842980992225228
Al 6.4339226501511595 6.5551004477752075 1.4049703429728146
Al 6.228128699948458 8.83772054177425 3.396511365843211
Al 9.81465376881255 6.736759439518555 6.89885264182524
Al 7.627879188221114 4.211714177592994 3.0176710999382426
Al 8.335697776265835 8.02162447665521 5.135076574206276
Al 8.164046192504163 9.219303514143755 7.70291581848997
Al 7.785695890121409 5.105961479077893 5.7003133110146615
Al 9.627224619303512 7.191620243312494 9.483081668945934
Al 6.031086965242109 6.27764722899456 4.076472938283953
Al 8.882065868577294 4.420315310637629 8.053567665744032
Al 5.024259580532153 4.309494600648474 2.1929513044596893
Al 4.061638919869104 7.16140927527239 2.325309363990986
Al 7.222492428463262 2.461305058479384 6.710564109781313
Al 3.347303688720034 5.188532769206142 4.081197326645391
Al 7.734785310250805 5.364950903875547 10.340008686845072
Al 7.33828855542811 8.217391129674981 10.364313886633246
Al 5.013439407833236 5.776667240148009 6.506541569793066
Al 5.5950796262036775 3.6557870880071666 4.764380685881658
Al 5.973100095301421 8.5256503286662 6.1250911115943865
Al 7.219655054148947 6.736547155635371 7.909654751429156
Al 6.210413359507902 4.272787919188958 8.482639934662307
Al 5.53545791306363 8.997120302481953 8.694614589927596
Al 3.788905910515701 7.892148092653578 4.822239044337222
Al 4.416316274362593 3.0624598936503853 7.061122741952561
Al 5.263220897858247 6.468592296553753 9.841868365241183
Al 2.1822651133707827 5.9000261697840015 6.3280165466180085
Al 3.3913885220651645 5.094360645487548 8.62077086044872
Al 3.4879368547969762 7.9172576793526686 7.478397283993233
