27
Energy = -83.08025455 eV
Al 7.604601714309962 2.8141456331726986 7.109782122935051
Al 5.156524365949413 3.3237017871927086 7.985421146205046
Al 8.522488231655846 4.662053697210076 8.777934537056073
Al 7.963168088215491 6.44217750207527 10.792326000605462
Al 5.802868016280701 5.543217970435849 9.357290867042224
Al 5.887183252945117 3.5189267279855914 5.149467856848333
Al 8.833164233228072 3.9408304285598397 5.068578552930926
Al 10.266986877311833 6.798595295640628 9.018630641910613
Al 6.799406180438413 5.407963407828028 6.644983671196727
Al 3.8374603045918527 5.203927023555747 6.670142411398971
Al 9.60442830555044 6.096366936677649 6.472902824920906
Al 7.700760246775558 7.215919029110147 8.175787349158334
Al 6.019438564210268 8.3019109267491 10.041650536398631
Al 8.728046121443851 8.98289822216988 9.8239166004032
Al 5.194513608151893 6.609270351313939 4.868063062496485
Al 2.9315222979618656 7.888018140179266 6.101472084510864
Al 9.661880953790021 8.846723510772158 7.177323994661495
Al 2.5415288951743737 6.0140900119974425 4.2762946371230885
Al 4.956992900256755 7.605079115409216 7.737402458110086
Al 4.325562331127431 4.367510662985773 3.3036377213462877
Al 7.438163730047794 5.744178377155055 3.747759464224387
Al 7.830766580704822 7.978589218035855 5.478661871252177
Al 6.92946678323564 9.696368586678137 7.61581960549231
Al 3.7556946946249785 8.33595687401571 3.3824793013229897
Al 5.289540644559686 9.270741919275531 5.475365599123031
Al 5.286804263582325 6.462260617631286 2.082627107740021
Al 6.649297349761329 8.446837562073311 3.1825375094731165
