25
Energy = -76.18410773 eV
Al 8.280260725858222 6.275434709472342 5.943640489760734
Al 8.160279275005545 8.606429754228268 7.273542202207859
Al 8.441104118188173 3.984728920666512 4.600587057741578
Al 8.16717302519387 6.374254264632401 8.737965427308307
Al 8.29600830493367 3.968669784930371 7.3498975011845635
Al 8.233369840129974 6.264111219641618 3.101888316057697
Al 3.57434490761536 6.072569049224379 5.789746212214864
Al 3.515002098017719 8.311986278033434 7.224635358065121
Al 3.92366986909792 3.865485526997426 4.324311542431505
Al 3.6868208696681553 6.001033660045436 8.652747854669409
Al 3.7676788162535213 3.7261417504062257 7.06749422412811
Al 3.5439073715757132 8.415578944357991 4.517047371231524
Al 3.6705798680138755 6.235731807501224 2.9038109716837823
Al 5.847643258817851 8.304907202411815 5.891796339837671
Al 5.932435867568907 6.037662409391307 4.460960314169003
Al 6.290458840403973 3.8802082467769092 2.93382301734327
Al 5.861015906730783 8.41697817086889 3.0608340611147358
Al 6.0005646507784896 6.211310406614106 1.5012976843570038
Al 5.93670571061552 5.910159870187342 7.216594113170019
Al 5.80279442687701 8.176532283312998 8.668392357535067
Al 6.118871487121277 3.5836572638280497 5.818700845529642
Al 5.853483864332746 3.6532238015587626 8.691732431826063
Al 5.888959101962181 5.968981386346533 10.302712917305074
Al 8.159408631937474 8.568356266280647 4.5731425876476015
Al 7.994969240040531 4.13337709902301 10.34020887821795
