28
Energy = -85.58283651 eV
Al 6.766702593515987 9.135878917308728 10.666624953371379
Al 7.6242010950438175 6.576310936433774 3.7157807187789222
Al 4.022155442169583 10.041007504342126 6.468775173022818
Al 5.400668718939289 8.134372486578668 2.8786497428912647
Al 5.542501371726307 7.95919114824968 5.645331986724951
Al 10.65844785353364 5.724267046503367 9.832829024131003
Al 11.600669842905532 5.502951457606777 7.311414760502441
Al 5.3138364800332845 6.738071465513038 10.294596453684516
Al 10.44871431369039 8.013812045638197 8.148858241865842
Al 8.592426719651224 8.056777986070694 6.131825935730067
Al 8.837610661256472 7.662252602433717 10.173590945847883
Al 9.865324444245791 7.957553093011359 3.6850621476280514
Al 6.859978023407415 7.645822464229266 8.142273611596751
Al 9.586524339366232 5.639063343370864 5.303243585865908
Al 6.1261058660339165 4.914549187944829 8.497782272329797
Al 4.0745249478761485 7.742268029994827 8.008042498941606
Al 4.314908682203064 5.458027867276841 6.524581230366204
Al 6.870380682345026 10.226296044643128 6.3960617512757825
Al 6.992772879431463 5.58116302547726 6.068852583773186
Al 3.4087342983354096 5.279277556060251 9.043435486154378
Al 8.816139180318393 5.697033676655607 7.925460689985561
Al 7.097894138036887 7.04236551523582 12.29127848098309
Al 5.391836327583141 10.047709334652161 8.713817261037283
Al 7.884903851086644 5.166857055573206 10.446454762980794
Al 7.498364688297621 9.386012871446724 4.011880478410499
Al 8.487865787429484 9.83849149209948 8.507929959766193
Al 5.092016000617954 5.811390942369604 4.080255013992783
Al 11.469011292684847 7.666445425044475 5.730530770126183
