24
Energy = -73.16725726 eV
Al 5.9817574118416905 5.871849173740096 3.2837322502052033
Al 5.984629686631994 5.8582056747572695 8.647484685848742
Al 7.387019263914504 3.9813814402159458 4.5484487301443846
Al 7.387300577266652 3.981970518725779 7.3772372641806685
Al 8.241677251112446 6.604410496546407 4.568661371051923
Al 8.248418468004372 6.60612425822994 7.400572377837198
Al 5.993351077703832 8.263331140456945 4.50175031778914
Al 5.964600347662098 8.231715350827796 7.442813286745315
Al 3.735982187538335 6.579469738815034 4.549082046659479
Al 3.7284649881867735 6.599050716201134 7.394520188487892
Al 4.608127252095604 3.9801265996491337 4.511386819209579
Al 4.61642581005232 3.9901394286982295 7.339873418917799
Al 6.0026204799119505 5.92031109898266 5.966677516477114
Al 8.765040691036116 2.0458351703709194 5.983364816121739
Al 9.686110639918436 4.643710487819141 5.995766851286019
Al 10.53483752324467 7.253630187878289 6.019706269755711
Al 8.304918444130452 8.930033210292626 5.897066037137295
Al 5.863570372590536 10.518330026363131 5.997229428213554
Al 3.621688446440945 8.95073688745379 5.96533661906426
Al 1.4498593512036313 7.273760209301752 5.991562619612587
Al 2.305952579857319 4.662487665935711 5.973590906832575
Al 3.252013625726515 2.1065180800358165 5.907439596094991
Al 5.9853904461913645 2.0591855589957766 5.947268937568537
Al 7.623093013244491 10.360536815214168 8.062277580265642
