26
Energy = -79.71740462 eV
Al 8.353995482306896 8.486200558849733 7.737107511666507
Al 10.216215569629453 6.55720534801164 7.810724028740546
Al 9.287588915301486 7.54675311602068 5.2864040983164795
Al 5.951774379803033 9.986536462844368 7.492462768126315
Al 6.307675462653208 8.0347240046825 9.420764471696044
Al 9.660056847217211 7.618510982394508 2.6529159376425016
Al 7.952966573464352 6.057180029531879 9.268318725676368
Al 8.839378900611385 4.996504233962586 6.259365777930482
Al 9.70121143923345 4.149541548629388 8.747676748087143
Al 7.4849052750188205 9.640934115124766 5.443926863725353
Al 3.57537046560539 7.242279876077428 9.881428636331863
Al 4.285536115940786 9.747431316917105 9.537637508214438
Al 6.702974245006941 6.9506084086632685 6.280202643394673
Al 7.178038595972214 3.65575953224179 8.012190904256945
Al 4.093560796997329 8.02695097026583 7.413888757607336
Al 7.156916441794852 8.147786925949129 3.288125976853085
Al 4.947652917223128 8.47457240568404 4.961464470941555
Al 5.450482882627843 5.692062020952143 8.336100436195888
Al 6.500089639305858 4.290637894466612 5.512174560250112
Al 8.157106098372468 5.557222110906016 3.5937943215220343
Al 2.7123485912880434 5.360027015001147 8.200311420010966
Al 4.022962900904854 5.952197570776266 5.856270723900351
Al 5.453552355135141 6.1000838129775214 3.6465090764025625
Al 4.202429767529151 3.673953791862865 4.388928141614252
Al 4.379118549919437 3.4739220701010614 7.086399234527961
Al 6.452785144761057 3.607108230729819 2.911600609992176
