25
Energy = -76.3997832 eV
Al 8.27546395110791 4.011282314520624 9.674299498493307
Al 6.940711392049228 2.029932257026713 8.456350293006965
Al 7.972319770314866 3.8481353440594646 6.822596920890191
Al 9.318092873900682 5.955515729705385 7.804552209651868
Al 8.859958222621067 5.604547212046839 5.068267695078337
Al 9.080171149748177 8.197860414443308 5.958474051578058
Al 9.373833769529627 7.7018729068097365 3.392474152624097
Al 5.772060780007123 4.497883436289092 8.59529018734188
Al 6.421858255226626 4.564959401075757 4.796423164309754
Al 5.350968438627516 2.7664066271704173 6.4478925983225945
Al 8.80534513732412 8.463418596149864 8.616485603529204
Al 7.24312979447992 6.225948537287197 2.8966289534805933
Al 6.811043262299184 6.589075144492157 6.921226478365711
Al 7.182081378913203 6.456525193484301 9.736865642342984
Al 3.850521586712127 3.675685703316398 4.418866349807897
Al 6.9113663371713905 9.419268661180425 6.937210015873969
Al 6.742119748671704 8.20994430327272 4.552515075880219
Al 4.477898235211615 6.224501728774885 3.8503470455485704
Al 4.239892162924184 5.287886742733935 6.551604841545321
Al 4.125089167800834 8.811905655080478 3.467559983601354
Al 4.577068206757698 6.933054425226492 8.638016536602466
Al 6.288138468138846 8.896794008259247 9.477945747968821
Al 4.505506437007232 7.877711938708828 6.083887583415419
Al 4.341197113163097 9.827457181134134 7.99130591568255
Al 5.05367179076938 10.441933968228646 5.362420885535537
