24
Energy = -72.52831344 eV
Al 8.126105194684609 4.98800719473688 4.525952687807442
Al 7.60029591072157 7.221296186538803 2.693992421824714
Al 9.965915784168347 5.289850118855316 6.43643508958181
Al 5.844355059932003 5.227586747055014 3.035141453888799
Al 8.87260597436935 7.692819944410646 5.121609664985441
Al 7.801083343219741 3.816318104542648 7.135972886868846
Al 5.581348677112643 3.820865856868765 5.2689934469428605
Al 9.44891242718354 5.307422324050165 9.181523627831057
Al 9.888980257451855 8.025912713401054 7.688608780623137
Al 6.685225823529981 9.531442583016629 4.4006663096752385
Al 6.31435945918268 6.98647155199643 5.019753084049117
Al 4.640231943962293 8.200408466067538 3.0422438583615907
Al 7.749221118798966 6.505904475907219 7.215246281683976
Al 5.328237425709577 3.2811182621712187 7.925627695505179
Al 7.289128464411972 9.199406455784917 6.979753199770801
Al 3.8148219612973016 6.170910027259317 4.8549097079777646
Al 6.613264537895987 5.454047295103486 9.347727406135633
Al 7.834672337274954 8.06680660796265 9.408534085680266
Al 3.117244802766096 4.2437259113399355 6.747547193067771
Al 3.8270067223037585 5.583317273284632 9.337378808503171
Al 4.609688086745655 8.826269198184027 5.9964102570654
Al 5.258230137209626 5.834026162684676 7.076894390515312
Al 5.277538575509195 8.022131400189929 8.702195997813453
Al 3.0037180651196653 7.26379012767482 7.413346501084022
