25
Energy = -75.04244264 eV
Al 7.271573412871647 3.603571822643045 9.01694145987997
Al 10.104612264532628 5.881065015734371 5.842355365527205
Al 3.256638156625116 9.497816189967716 9.2123281415519
Al 8.437916793631851 8.134657172088238 9.650349640007764
Al 9.130094554023348 8.373494711927073 4.110792727220535
Al 7.528198449002168 9.893079719903328 7.816146307247911
Al 6.563048617089808 8.789141513328122 5.17668315340744
Al 6.34817530942359 6.963384225232273 7.157407433916537
Al 3.9110299588362554 7.029675015580975 8.454494875822576
Al 6.487606230785107 6.06340139783758 9.754995771684921
Al 6.8366792403859264 4.387217110244021 6.3238931297810055
Al 9.826233947380954 6.010550461943376 3.2297733782747358
Al 8.655886969770567 3.9960531687078764 4.408655589077949
Al 4.894331466410073 4.685626508462085 8.028679834218602
Al 7.366115651919845 6.350227942255861 4.62021242390269
Al 4.67808962501344 9.102491920281699 6.931276594337412
Al 8.632145766230805 10.565168113843873 5.499523953338948
Al 7.506549307467944 10.606968019077916 10.482007560530134
Al 9.817052675393807 3.416201942076676 9.503892943377727
Al 6.074222819920936 11.351901135230568 6.022731254369762
Al 8.907755140790748 7.991150558688868 6.799232114007419
Al 5.771355805254336 8.604654124365751 9.728872219591251
Al 5.333967332246899 11.120844769513445 8.670092312719076
Al 8.832166982253733 5.766402229391829 8.267891941970515
Al 9.43775353670608 3.424455225641477 6.89996988820405
