27
Energy = -81.8941567 eV
Al 9.03149659089294 9.306652759900022 7.104413366925306
Al 8.001585184689297 9.591746378746775 4.3445375730410865
Al 6.60147556126104 10.849737308117184 6.525958576155818
Al 5.127116156386144 9.385950431564687 4.350942813843257
Al 4.206918233604349 9.180428777998898 7.194434708318047
Al 6.658501077112222 9.149035412480082 8.81725388011651
Al 6.667020387077309 8.225402083671737 6.167235934662729
Al 9.208030368644499 8.321141806753579 9.791622954269824
Al 9.072515203735048 7.150055176392675 5.258475212715481
Al 10.871846263052618 6.82926595011281 7.452860007833776
Al 11.07980874838788 5.224313594668638 5.195307159726544
Al 8.114952098861897 6.886419495263768 7.8871324741991735
Al 6.713108202686861 7.0075036876696055 3.6862636656748244
Al 6.8123604685185 6.8177752274052725 10.308845890242276
Al 5.400201011840635 6.841633805947419 7.958475485422791
Al 4.341987444676496 6.8531069812681205 5.4039779329792035
Al 4.105738520154173 8.251504756505383 9.90178569154211
Al 2.6773158942974575 6.836180670165885 7.800864960512579
Al 4.2968721835946475 5.291506864832859 9.75344080201752
Al 4.475115132167915 4.5029005520629735 6.867577152944196
Al 6.814285273412966 4.507295697416526 8.568227942480423
Al 5.36488042682315 4.514970990305719 4.132177766239776
Al 6.83652358585258 5.618933008971896 6.0017049931389534
Al 9.409357474394174 5.457280124890238 9.702349497785907
Al 9.137123226869821 4.523056641281031 6.9804072270961255
Al 8.605697711431407 4.578466716462555 4.106362809777254
Al 6.900912717824065 2.971846052735119 6.006115806769435
