25
Energy = -76.20777443 eV
Al 9.140480875338564 5.108370226970695 6.127862616312366
Al 10.404890408836373 7.468009576002357 6.441474789816558
Al 10.434798487319808 9.017006632250984 8.56455025739145
Al 7.76897076392072 2.926473084060641 5.588849209412382
Al 8.9519328024652 6.5581102723862355 8.476126350765213
Al 7.1526566312755735 5.050141259023115 4.035923803533787
Al 7.476241574878007 4.3701805259747655 8.074149937003172
Al 8.711922214153947 7.413046821009961 4.450785466757439
Al 8.495412806490801 9.416513556516197 6.754435466551064
Al 7.017549781977669 6.846464603200058 6.5970525373177695
Al 6.668506280974285 7.321236608665651 2.6804627786443973
Al 7.957567991857015 8.81377272699263 9.603798942947018
Al 6.61336193367944 9.099830224944363 5.02711342196417
Al 5.0269500164726715 6.579045595058654 4.737056855453313
Al 6.391449896889062 6.5816452298188075 9.34317460691342
Al 5.504376092314638 4.37754831233718 6.04979891492221
Al 4.456217055231357 8.762643588140786 3.3415593346803663
Al 4.758321531813722 4.513502405561747 8.74376970876402
Al 6.032064750408076 2.154253771712732 7.538313049068826
Al 6.05493951531007 9.081732002891593 7.849051116022713
Al 4.158405368915398 9.200430421710825 6.074264211196164
Al 4.443162242560693 6.89207812901271 7.43408208044099
Al 2.5540220172166386 7.340236743137443 5.376055757485958
Al 2.862796249211082 5.0061435551733116 6.434565893637857
Al 3.4893778856819035 2.627959302638816 7.182098068189346
