25
Energy = -76.38297094 eV
Al 8.296222843399738 10.461202188762433 4.022283843659634
Al 7.426037488325531 8.749255095105715 2.200368167471646
Al 8.819081186599528 7.697999346646085 4.257233233729364
Al 6.131913636198338 8.806023112071554 4.667257227490277
Al 6.60041647467891 6.427923684016125 3.1680805240011995
Al 8.635478189486031 5.088192834515902 4.321588565384179
Al 8.332557184748968 9.251352484593244 6.432792673811443
Al 9.59609244581746 6.740254906414069 6.654462485731412
Al 3.6610304496551507 8.901401726641533 6.003175652602079
Al 4.4367994401670625 6.716245554886546 4.736319802121642
Al 6.929198238539124 6.5831655415297075 6.195881214729975
Al 5.86027051234288 4.411900346076078 4.685207687601333
Al 5.873641857352766 8.781469672347038 7.49154175231784
Al 2.020822082954647 6.8778276747795335 6.0016837107821095
Al 8.287883902311208 8.10931739753661 8.769587198221881
Al 8.218881637289146 5.386609910330224 8.485590417523976
Al 3.5052085492191956 4.679744339352514 6.175013700327924
Al 7.84977471217373 3.74442884806843 6.414484560923548
Al 3.7952252253355745 6.915886352016542 7.940338610594479
Al 5.226388484855117 2.5264138299930785 6.454773354113107
Al 5.831173774830031 6.955406211877261 9.527042033046628
Al 8.142585959158106 6.679760970406115 10.940171752387371
Al 5.5527364833262185 4.873834270030545 7.846999840718506
Al 6.6305489670862405 4.507248980939074 10.520770844343463
Al 6.8498817995863694 2.6369862465017113 8.59720267180312
