27
Energy = -82.62773809 eV
Al 7.163663999936703 3.1195857871942305 3.596376306054925
Al 9.152236629582283 5.058395921128256 4.008246059649066
Al 5.635448017566806 2.2421933057420396 5.7854960903618595
Al 4.389664595191566 3.7247084568511237 3.709090865746615
Al 7.561757607913277 4.226495621998225 6.027167777082524
Al 10.181884636158243 4.579819116838604 6.688356446666876
Al 6.26088097620342 5.601474154919969 3.9086976378300995
Al 6.0236204972281095 3.4420852202634786 8.145267237547909
Al 8.023246757447431 7.558152913922558 3.6555895912342735
Al 10.407171873984852 6.680113469527681 8.343524952254365
Al 4.676045065963429 4.830928084349421 6.1873915115784435
Al 3.4893649312278248 6.200472656741421 4.141622162121786
Al 8.973125201595792 6.919968334474746 6.0962885958980735
Al 7.900200657272799 5.57206269673497 8.289480850105145
Al 6.3310521263697614 6.993789673626149 6.404815828757525
Al 5.400243418019886 8.143805953655852 4.034552529588865
Al 2.597921149701698 8.68324195215243 4.625066179492004
Al 6.311820780188826 4.6688391408768934 10.371935942048017
Al 8.393789587186857 8.49798880463755 8.128848293216961
Al 4.825901870503786 6.0017498650313135 8.639271249001979
Al 3.546972147131841 7.3122161485654855 6.772922884606464
Al 7.511493393086024 9.329541892265448 5.542849101071841
Al 6.815162069722396 7.201644883274253 10.212725503587803
Al 5.311560826326441 8.6365410954868 8.438766859361516
Al 4.731348248329285 9.651045397804983 6.051677413201054
Al 7.149030612229802 9.819849515133983 10.073532593212226
Al 6.772960245884679 10.840857858756868 7.658007460676513
