21
Energy = -62.79960476 eV
Al 4.578864313881296 6.936199916885416 10.188840953194148
Al 4.458481968832782 9.84539650232905 6.539860308505584
Al 5.80749820809217 8.671846372873143 8.639051864838079
Al 3.7682843256245913 7.2470431031771305 7.546395591454095
Al 7.146182372972508 10.222805825696675 6.820412416725903
Al 3.619563238632021 7.7580945344282854 4.864843431905268
Al 7.263476694882212 6.564162866560074 9.901403606439397
Al 5.5534628660753205 5.32990879707676 8.290489046350254
Al 8.386918549704534 8.268375872284492 8.21883965165503
Al 6.151055074810621 7.8951752560696855 5.843917594885939
Al 4.908709868944862 5.497394557026683 5.804354546226928
Al 5.031270891950658 6.000911967676772 3.19843223532838
Al 8.049957900809977 4.166089555048497 8.741876563787738
Al 7.716130972694121 5.990253187500249 6.706298017951562
Al 8.79670834982103 8.24021684997431 5.598044922688832
Al 7.480935772068158 6.97613675680985 3.5953908050537478
Al 6.413578494256902 3.3869211188969213 6.592981208873423
Al 5.028478631137024 3.4605003445708484 4.117362674812205
Al 7.434994979921419 4.42719348286886 4.2634497975548085
Al 9.217272950338675 3.7680639234940823 6.304918275132307
Al 9.700107100810362 5.859242735014023 4.734770012898183
