20
Energy = -59.55330658 eV
Al 2.5675142813370417 4.977993267242242 6.808998740358995
Al 3.8720592375905976 3.707702175867152 4.937290541367103
Al 5.575892045871202 5.800565802123088 4.603534496808794
Al 10.24637417998546 8.419986833359252 4.729692779313078
Al 5.690900549320501 8.614856662121646 4.968998168280864
Al 3.8297165442055 8.594829994447363 9.108044447388504
Al 8.357015604211151 7.765499909707488 8.781493226438156
Al 8.15706539944787 4.705428304957912 5.293713949150645
Al 7.888342206411864 4.96358803860535 8.116867176652294
Al 9.54980651865854 6.611738565421861 6.67684599503335
Al 3.2770421511006425 6.064664608751552 8.993345972154454
Al 6.900774809854608 6.849609750930927 6.619068311408774
Al 8.124522022833913 9.22741965561231 6.146315431598706
Al 5.903026322058608 6.637026191315491 9.078327310872394
Al 10.321608094905557 5.900406596654791 3.943873639230226
Al 5.294531774354828 4.682809282331669 7.20520832497753
Al 6.080560350214062 9.12887769520686 7.836115424352587
Al 7.822615924284009 7.2257701313319265 4.124269341028252
Al 4.249317329984473 7.201220954618949 6.665223505731369
Al 6.275056375047104 2.9037473010691106 5.3465149395305644
