28
Energy = -84.64341823 eV
Al 11.250518219681638 6.992708877668912 5.339900280543853
Al 8.719959638429323 7.104362569409299 4.130949684415761
Al 9.475119944745746 8.705087321299638 6.192314574479466
Al 9.845526485778947 6.1180864034778635 7.472705047096973
Al 7.629248157818491 4.754576479059437 3.429565386631829
Al 9.922004375624693 4.746596655599829 4.985091522773416
Al 7.435454224788631 9.809827480075443 7.317407934606745
Al 8.665625433470659 8.033057765626888 8.905837677414848
Al 7.0090459965186325 9.111491832745855 4.686559355518482
Al 8.323220263066123 2.6652152766920536 4.863483446134807
Al 5.8981498489297906 6.655740011542872 4.156983967721543
Al 8.483763751600426 3.8250175867364136 7.206191139263752
Al 7.480383279418163 5.614153839120717 8.8957367007573
Al 7.20795333606899 6.985111131517694 6.559780978474828
Al 4.216409595390019 8.778045493276338 4.334190990949518
Al 6.125329209382797 4.237607475981195 5.805602072887957
Al 5.9965246395997465 7.925848285761258 8.999170517574736
Al 5.037399741977283 4.247744834868941 3.2284184409336163
Al 6.132433167555456 3.3314916542084547 8.398245747451254
Al 4.49857879566266 6.3989800355372335 6.504145055093873
Al 3.80516337212281 3.6388906437258557 7.2752284723987515
Al 3.05971321621628 6.412048168336389 4.1858961960132275
Al 4.935374955050876 9.112542481760778 6.8180561440657295
Al 3.322671554122972 7.962290704884556 8.829457187943976
Al 2.9602457648532283 3.8539442046428567 4.8138207887487585
Al 4.587161365957487 5.552586891010232 9.053198032662737
Al 2.1608225532979626 5.735363785670493 7.766327718100029
Al 2.2246940669218227 8.100077063814751 6.25422989339434
