24
Energy = -72.73102524 eV
Al 7.832110194958941 7.436868430750278 3.0664387526529264
Al 10.253099705476659 7.043199366632159 4.228259174711152
Al 6.865079980809751 9.940263131662011 8.961327465379952
Al 8.379219119414138 8.510953488089207 5.591315352630481
Al 9.053840316424825 8.141699538828783 8.445694230697324
Al 3.6398709076137377 9.015902974418621 5.940126860846466
Al 5.840236301502273 7.839569631532934 4.872977067405718
Al 6.858301471999746 7.518480237056406 10.19082055526699
Al 9.461880204469274 6.150333579819453 6.628594795010725
Al 6.14360726078027 9.998345960230884 6.400194814009903
Al 8.289556243768335 5.142452867270784 4.435670857871923
Al 6.674418410904726 7.550828955507713 7.445640514001574
Al 8.049299476508684 5.479177138981786 8.82203512302581
Al 6.398440289710801 5.281415115600068 6.4017018419681335
Al 8.47419233728853 3.580870987113971 6.647576712121686
Al 5.769635880664283 5.605109004336585 3.5436812940650135
Al 3.3451676571372366 7.034384838759836 4.204717999349305
Al 4.51400730476889 8.553976177153945 8.592859655446878
Al 3.9882085606146345 6.511655292470733 6.856725747419929
Al 5.244709422865029 5.696435560285213 9.006660237884612
Al 6.285842011287322 3.1214140508946393 4.908218657834942
Al 3.8474932753346405 4.537393534410292 5.06972710174418
Al 6.747971106885214 3.1625237382633866 8.74790606611287
Al 4.483682050493527 3.607565289648398 7.4091405510579404
