21
Energy = -62.03633099 eV
Al 2.604369065891533 6.220442202113355 4.593061511227463
Al 6.357424146011092 8.803496502653271 9.579339879326852
Al 8.770017675876542 8.539103941945466 10.357605680307708
Al 4.788874097640081 7.978137656465652 4.843850685012105
Al 8.993705265118763 5.4326348066954315 7.062396247923229
Al 5.483086768375058 9.152963805996238 7.164346622326555
Al 7.045594166968207 7.207403292768311 3.227794840223628
Al 4.499224655898657 4.9845485978271995 6.333438906208367
Al 5.433718105875497 6.642103712877827 8.306695903789311
Al 7.670451289933314 6.041861405848964 9.540119913111925
Al 6.7782548956578434 6.383541325644681 5.861447102360051
Al 10.356527246350362 6.473480441139527 9.068560918906712
Al 10.879544445735048 7.574845572999759 6.752347036507011
Al 10.58780680711335 9.330893707547657 8.666035159249713
Al 8.219119253307728 8.201831884829474 7.5878973163895385
Al 6.684034995612546 4.2917800380738615 7.588163219892635
Al 7.150598814484413 9.139320569157974 5.147230877788176
Al 5.010147137336708 5.597403643506438 3.725556307048275
Al 3.2199162248567554 7.354968706239337 6.930679846854603
Al 9.085785538140524 7.290720312740869 4.987504909347215
Al 9.539187842014769 6.291813414463687 11.525184281382401
