28
Energy = -86.42179254 eV
Al 3.0439599756845204 5.432325210387462 10.191070227738056
Al 2.5551943735440616 7.111347936181252 8.080382830615381
Al 5.710685876999669 5.159286987725189 9.881791714538839
Al 4.566074647825133 7.679250630409328 9.790834505242756
Al 3.8769356233413057 4.658557426500012 7.749065085106259
Al 3.914662962371065 9.388604949367606 7.509909739505067
Al 8.284454120053907 4.970135733215595 9.411692048950748
Al 6.954041018464704 7.187244033193981 8.531292318951841
Al 6.095500428471274 9.684851073430005 9.021175236290476
Al 2.6455987360795827 6.033360779900727 5.674188290889296
Al 6.535507889864842 4.611635087852995 7.355136906762116
Al 4.910820474446872 4.436957005393515 5.201298329675784
Al 5.042937804905105 6.940527383177115 6.5698500415111605
Al 8.599612429289714 9.345918337260441 8.127395663515312
Al 10.071863520299267 3.072143559712993 4.747203406107972
Al 4.323758455006578 6.700803946318341 3.782175511385468
Al 7.354878861121608 3.441068092946291 4.92204716913856
Al 9.146773877379204 4.148555823609896 6.964562786847653
Al 7.5360310737740175 6.260946419866642 5.485818671738182
Al 6.591827797436279 9.150283687468109 6.4197899892204955
Al 9.384367094152058 6.774422496961836 7.654112550534699
Al 4.343735858926403 9.115571989757335 4.937623191345053
Al 10.401035776645635 5.982247892361845 5.192348577199024
Al 6.455404779998051 5.497117092872015 3.0074855252525476
Al 6.5890251935602135 8.32282531681097 3.883647007004474
Al 8.950782891029593 4.833890733033753 3.1295731469191117
Al 9.107446295088899 8.57712504769084 5.576439558703237
Al 9.013013201798742 7.4889263641519115 3.208021006869025
