23
Energy = -69.45874433 eV
Al 7.9645369621299915 9.18941525903887 7.184921512052176
Al 7.577315149288103 9.294728402390827 4.5130065893095725
Al 5.655067971222509 8.338454017988845 6.2094929158944305
Al 6.160567391781299 7.878188237893769 8.835999511504374
Al 8.836183443850004 6.883255149901716 8.22502053300968
Al 8.644435422199022 6.971761182012941 5.562247954271175
Al 3.067694288878989 7.855104245871829 5.297922370452467
Al 5.14520197072508 8.54391778735299 3.59588730759039
Al 4.011747781568353 6.747823825955518 7.520830332346741
Al 7.631576529526284 6.430230347709737 10.622451913594402
Al 7.258683722632368 6.746016335168452 3.339981059627447
Al 7.937192089664041 4.35139276686861 8.99353715790807
Al 2.5585587577780777 5.203835545860302 5.612036220722217
Al 9.226069111500905 4.549455461177687 6.668621583018903
Al 5.3664831629855225 5.2205690112287 9.348271219324868
Al 4.99977246865887 6.640868186469729 1.7670613885936775
Al 5.808582023632086 4.325366625222142 2.7078419927378774
Al 4.98018541501765 6.027109029964016 4.7243863200330605
Al 7.409191369586986 4.452021346071809 4.7885640051416
Al 6.606420356718352 5.838010000162767 6.989308632481531
Al 3.9357864418251047 4.008531649409049 7.52511635019492
Al 4.760415856864969 3.3744523293422946 4.984101561433923
Al 6.5441521772436895 3.154687868058673 7.038372753514058
