28
Energy = -85.49513926 eV
Al 4.420334061957467 9.834279487265881 5.777178869032084
Al 7.0599525413204915 10.615813480831077 5.070263593368428
Al 3.334607779423935 7.485550460687138 5.133270840560564
Al 5.912955708579161 8.079328330598397 4.4899357183735695
Al 6.275511511555192 10.227901186926786 7.7474320269264565
Al 5.0204668391536655 7.663344497077399 7.232166753015498
Al 4.969473031088824 5.660824671791416 3.8787362583706027
Al 7.71813880780083 8.346593950948016 6.453091370369527
Al 6.747573174949655 5.883967966154759 6.231278318056865
Al 7.6395905220767455 10.225317488486551 10.035570625699007
Al 4.013036609854442 5.231930340356906 6.550099704278517
Al 6.9161314956106335 7.7618587078360735 9.02896093639534
Al 8.547767773487477 8.658648778879094 3.862771954422781
Al 9.405530759830592 9.59792975163691 8.211706855857637
Al 5.003339951529223 3.2422657660166627 4.99090489665791
Al 7.5123953371278995 6.336259606328084 3.0655339751815185
Al 7.45001456800135 8.448466226437505 11.942238917796725
Al 10.40205320221795 8.815754943635984 5.834171773150115
Al 9.359936626097221 6.354040871653557 5.163055144050683
Al 7.5720792582361085 4.020540463257326 4.419289440656165
Al 4.005952453050358 2.6925123413509833 7.521941695041758
Al 6.68633948343645 6.03624378743396 11.1185146426782
Al 6.579461907015452 3.3985758415783054 7.277941921712193
Al 9.53641280441828 6.846974149086649 7.751491132892226
Al 9.245109573992405 7.57249899911949 10.30266020540644
Al 5.387201000806466 5.380855898896329 8.81137537761986
Al 8.105582344282245 5.101725725281588 9.159867778687467
Al 9.00280685045241 4.3097522578000955 6.768305251095745
