24
Energy = -73.54162888 eV
Al 7.420831928976917 8.452546106998343 4.044283831436495
Al 5.119043245334931 8.785828798330096 5.426575402717965
Al 9.792890007589403 8.344665396273465 5.28008917200084
Al 8.5782485259801 6.044207297678724 4.475495931972769
Al 5.13119073726736 8.506371618536896 2.6955511923343893
Al 7.598350647786265 9.029958244655344 6.75298573190086
Al 5.2641752240246165 8.943004722327405 7.955295268387256
Al 6.088308037102183 6.1148781256205185 3.657047236380932
Al 11.11956263973872 6.061082209921122 5.607921464480577
Al 9.314365843020552 7.001586001533464 7.588384695761561
Al 7.519164760352338 7.865430248441126 9.217046296547533
Al 3.556231058334439 6.963421251906328 4.130911007149138
Al 6.597374861357025 6.4889963436186 6.562175167545296
Al 5.362177029925897 8.610884118510103 10.557913683676041
Al 3.876543484790819 6.770266192034724 6.917294675967033
Al 9.151992785821937 4.492913973276852 6.606673942527038
Al 6.983161790116684 4.028387731399082 4.958683786147188
Al 3.015449966546804 8.018500353303281 9.276329069328243
Al 4.340194249194177 4.662161991191633 5.167034083106598
Al 7.541951949698493 5.173214857916333 8.75976367921929
Al 5.205918374473158 6.296775384682583 9.321815149813938
Al 5.0252300266602195 4.308104649817547 7.764113412348681
Al 7.266089107741845 2.807670105911763 7.357208376627811
Al 5.141007185618039 2.238597743567895 5.928861210075749
