23
Energy = -67.90072964 eV
Al 10.268591344732759 5.482028105767427 9.991802492860337
Al 9.069640544222136 5.814820114727735 4.926173405047685
Al 9.253608310161711 8.183138138408022 6.483917625656156
Al 10.042298629367583 5.67004067683403 7.377649275501742
Al 8.235543797474726 6.379854959679497 2.471818445055531
Al 7.925754329764645 4.706636145729085 8.885600353540525
Al 6.609278674376887 4.996218164310278 4.108991008296229
Al 8.595422823648677 7.4158873205874105 8.997265341202942
Al 7.453640512763562 8.031037877682596 4.585493459238419
Al 7.046386703107119 6.340396007608761 6.721391086970767
Al 6.941197010515309 8.983874711130976 7.564691628112523
Al 6.818539578314407 8.793605952017803 10.39794465709934
Al 5.718142026688414 7.318391021383956 2.621215770275893
Al 5.48928238571301 3.818223378620027 9.181978116445922
Al 4.962984897164761 8.996758801143848 4.505042938146739
Al 4.670798089861566 9.428348295593175 9.021091226660356
Al 6.666940919820009 3.6856771681591054 6.544608597691974
Al 5.742439756260493 6.614477709241047 9.144855830764559
Al 4.3756548718506325 6.28529664554777 4.7389800152264385
Al 4.7694674191764275 10.50847424730847 6.670810722630107
Al 4.445527132444169 3.552851586555428 4.965208593103872
Al 4.493058280988665 7.8015810405841055 6.899317878681125
Al 4.439804609899699 5.189494729403476 7.154002342564962
