23
Energy = -69.1082613 eV
Al 9.41613986409002 4.450654427143461 7.375233978025958
Al 6.3526346141765755 6.825915308462488 10.148967406933924
Al 8.008030728710038 6.779975373409283 8.022373490478351
Al 7.117417496625445 4.453676084954513 8.786191540738114
Al 7.795306785271663 2.4485792120611207 6.891688089169906
Al 9.846089237057322 6.69326902748812 6.069348606713232
Al 5.112249806382926 6.183219507459464 7.792775722034081
Al 5.309482526950993 3.3147230370159306 6.9418764358089105
Al 10.195736769927857 8.713276777886119 4.350279793097049
Al 4.70572985303647 4.750840054436947 10.028500305576083
Al 7.230724182694833 4.86644706147856 5.761047489764403
Al 8.523535263556337 9.038293353592506 6.560729035114599
Al 7.591867504157227 9.092557128160204 3.9177775355478848
Al 6.502319774413025 7.37004960559939 5.7075118349961755
Al 6.175741789878052 8.724256848744254 8.18206935526151
Al 3.07710061903852 4.097845736802895 8.013662653616315
Al 8.45823470216769 6.536777828050362 3.7895561695699076
Al 4.548939714891129 5.4436443696885455 5.2043295029109125
Al 2.5715437212152437 6.262523297259053 6.761584191273492
Al 6.0409130429855535 10.240494291561292 5.919814791095802
Al 4.931832628182444 8.631220979845772 3.8032927055418613
Al 4.0045571669419635 8.340634955237446 6.373707314127257
Al 5.989122403197328 6.246375929210621 3.102932248152476
