29
Energy = -89.19399575 eV
Al 6.815634205108238 8.563886156599636 10.1182730736774
Al 8.214765704537818 10.15864518163873 8.30740806301624
Al 6.815652716164825 10.719322062341313 5.992966721703916
Al 4.869014397408465 9.04503493679499 5.254551518264963
Al 4.688577703920698 6.637895020656501 6.417103585634477
Al 2.811664329016576 4.85996324171172 5.567646256148006
Al 3.3256672039747026 8.65905080095039 7.762990306804162
Al 2.4756780283267164 7.622990067542097 5.430593803575098
Al 4.309758389685496 6.638113875012935 3.6736993208741375
Al 5.469221228908092 4.4044275194237335 5.054750568786415
Al 2.6093607093328313 6.113726263308834 8.119979588488642
Al 6.815625436713035 7.000273199731323 4.508425335886675
Al 6.815675124286002 8.139764115856407 7.190722384975823
Al 5.416505628477056 10.15863056764657 8.30743241966963
Al 10.305585617983743 8.659033264160145 7.762981538408803
Al 6.815629333777623 5.479257305211102 7.324777343992761
Al 8.942660504045586 6.637886252261298 6.417095791505307
Al 9.085994936541354 4.247148642390979 7.932596996783987
Al 5.062456762305524 6.835064637558334 9.133111278389652
Al 4.545325109780299 4.247226583681918 7.932588228388944
Al 8.568828210435484 6.835129913389489 9.133147326236642
Al 6.815610822721036 4.650229530879927 9.971321246801566
Al 6.815617642584022 2.6563920893552786 7.237983785868928
Al 11.021909649416017 6.113767182486596 8.120011739271206
Al 8.16208420342172 4.4043934201091135 5.054761285714148
Al 10.81954270243349 4.85996226744569 5.567590722978401
Al 9.321512943329537 6.638121669141952 3.6737314716568594
Al 11.15561863560789 7.622990067542097 5.43058406091371
Al 8.762184839912425 9.045036885327045 5.2545369042729595
