29
Energy = -88.77188071 eV
Al 9.690699950285829 10.173053534154864 7.131299717074931
Al 10.798550023999388 7.993901021033449 6.064191835946532
Al 9.107780280772081 10.374343274740346 9.807694293357018
Al 10.240571792165458 8.169309994046333 8.762378018890264
Al 11.461310292548232 5.929320752845131 7.759701068743392
Al 9.497961851577626 6.436436758085379 4.363472908056977
Al 7.207111592161628 9.741004427714438 8.008227324262725
Al 4.741811038026435 9.390748904247674 7.381240307744105
Al 8.002130372125457 8.440974663912677 5.6702070850942015
Al 7.79490917459027 7.9913655069869725 9.939497939792213
Al 8.863395214011605 6.102524307873082 7.203043869202239
Al 5.468655322213128 7.9966002228251885 5.058960236612523
Al 7.002204659611125 5.794026387346924 5.283345530003024
Al 6.342402719614543 6.97797119188826 7.541995179420763
Al 7.249532732259033 7.414773992545574 3.125229823764562
Al 2.9655041812430905 8.681988059867008 5.510032380081413
Al 9.705272513835052 5.781379659669701 9.804794402539724
Al 5.116482474258421 7.629448610624071 9.845037663321664
Al 3.583393563925929 7.023040278191232 7.677912800713183
Al 7.146909720163127 3.9046861993589004 7.30412431620519
Al 5.009296722422471 5.445207234469534 3.608688831918014
Al 7.114336386465278 5.335191182414277 9.696045678546357
Al 8.910969111497067 3.99898039815089 5.232289906060882
Al 6.394955629537812 3.2474639026767336 4.6259199269143405
Al 3.5351090339911444 7.661196316070729 3.082630680721806
Al 4.744595161481585 4.43801865196213 6.308186659133458
Al 4.678473601806932 4.930605637672146 8.975994552766371
Al 2.8529626018567953 5.989276777123809 5.2682005502508895
Al 2.374834474096824 4.6092843440465545 7.5617787054058745
