23
Energy = -68.94066672 eV
Al 6.095508532409691 7.822347132452363 3.0159703117442414
Al 8.839408433217576 9.661260566635116 6.347873204921204
Al 4.378729189089274 9.810704962233276 3.621866529055881
Al 4.441496138500163 7.584480304836723 5.150702171914209
Al 6.775198576932492 9.691110441555518 4.82624579072071
Al 6.73120799281858 10.79096961755234 7.659280153394229
Al 4.5499661540679845 10.038287280429246 6.396570165579674
Al 5.8570481105984395 5.384561221038425 3.929231449696985
Al 7.798591060972411 7.023622765866293 5.080907526602441
Al 5.699321316325307 3.5631496578242468 8.098075962965828
Al 9.148378677444295 7.3443029835626 7.436193837179919
Al 9.505966152482134 4.007781808054146 10.279313087136712
Al 5.418796883547851 5.7620600531099715 6.657248047280893
Al 7.191498289264314 3.890826430621944 5.684733248075705
Al 10.662705430220532 5.399138533310407 8.38701842330315
Al 6.508936806779916 8.17595250677744 7.08918179394184
Al 7.683611095538032 8.89873693562152 9.306003010274306
Al 9.675313428789577 5.100012086388319 5.875807012655834
Al 3.9026804702760898 7.8541174062309596 7.8896024879074895
Al 5.973815419217665 6.516895630667182 9.159586023897578
Al 8.64430847441256 6.612429616337891 10.055673328143657
Al 8.022337090377414 4.851611900944991 7.965463208738278
Al 6.913407265766794 4.352732389868156 10.368510875376126
