24
Energy = -73.2697812 eV
Al 7.336287215013239 3.817790077880555 2.747521620434662
Al 5.195883541262765 3.7044865002902463 4.144539488862536
Al 3.4386345212375136 5.624693228916087 4.1264496459327376
Al 6.389644532214855 6.220937597673964 4.148862251775441
Al 7.411434358887492 4.01021275995544 5.776486214487737
Al 9.030665905973388 5.366524915459514 3.8208730231638697
Al 2.5515823066876804 6.052541029079439 6.632566139811825
Al 5.036577374596687 5.2035642750574 6.388419839113836
Al 4.4050375943989755 7.7993993576998895 5.329100572851213
Al 6.440956658370829 4.054401172900425 8.357451784057465
Al 3.8952275396698033 4.9205021512307745 8.758032507576557
Al 9.020002390830072 3.400545190947985 7.97168994571861
Al 8.742433341260817 7.765069885029069 4.691121516019365
Al 3.891858995308416 7.803300340819802 7.997335859888977
Al 6.94167068726848 7.139734544420329 6.661359522488068
Al 6.450669153942968 9.143161344571482 4.432290270628135
Al 9.509772947546502 5.569148077625566 6.436673688598112
Al 8.401609375881034 5.9673202920448105 8.835690424286767
Al 5.704382158778497 9.613497203391816 7.06981466981765
Al 5.849137299079942 6.626547660227808 9.335314520811746
Al 9.475941202698984 8.030375477811612 7.34939466432447
Al 7.556132148460754 8.641216420440417 8.969634815839528
Al 8.200810447626349 10.114615262429032 6.249238529247491
Al 5.11934828574604 9.40611521683891 9.765838467005283
