25
Energy = -76.49177464 eV
Al 3.5375114439419852 6.403274769992444 8.566789576038468
Al 3.0212807817176084 7.471156905348459 6.21840731106266
Al 5.698963244620424 4.715674220773606 8.653104483515232
Al 4.176160617185343 4.753767596715238 6.473638015073425
Al 2.8462461163717343 8.199452312690422 3.6719511133654095
Al 6.032445741721074 2.7545980598951183 6.764230472409003
Al 4.6931915617889315 6.256559116872276 4.4198878071834615
Al 5.7298297567747545 7.339418104397488 9.686503545536514
Al 5.578824591483476 3.6740613660167316 4.3533659537251035
Al 5.81889938073812 7.14924383747424 6.971385137476283
Al 4.857968757051376 9.20236506399073 5.14059737744885
Al 4.486318950344256 9.266529599741597 8.117312672745406
Al 8.252942608912628 3.4523600920693633 7.94487593016588
Al 7.946557773051921 6.025662135583744 8.754002549260166
Al 7.205860900588362 5.13822102705479 5.93092304589934
Al 7.914072647488787 8.726481576213246 8.883360804079569
Al 6.902151622160386 9.655404402147193 6.631169922994057
Al 5.3273990941045914 7.97673476928671 2.5078257173840948
Al 10.26753722858734 4.582865594828653 9.249977991448096
Al 6.89733107372685 5.623441091428105 3.033470269133595
Al 7.160414010321481 7.926442524466997 4.449583292286523
Al 8.744254737743201 7.673799632304042 6.515107116016714
Al 10.31787751762427 7.2226556805688436 8.66005606756125
Al 9.913343866246821 5.236184448854583 6.612033329168365
Al 9.17416296341012 6.075193058991636 4.291987486728207
