25
Energy = -76.5795014 eV
Al 3.2384176526417545 7.723384455313261 9.822059661435167
Al 2.7312163123581947 8.105941229660916 7.244040917013812
Al 5.729912480612729 6.872463643699864 10.158967005265447
Al 6.656779243775137 4.752369307646823 8.722198494939418
Al 4.214707110579696 5.890874011559834 8.114926032454497
Al 5.226995173273818 8.620770551554068 8.092359885491964
Al 4.504252974258732 8.859900074183887 5.478923382138777
Al 8.210107423896146 6.109721734331004 10.583729141350307
Al 9.150244132335098 5.564709884821052 8.190535322215235
Al 7.755566435368132 7.949451978117239 8.582813814587428
Al 3.9143777283840224 6.115471715901606 5.379987834449599
Al 5.0850437561136665 3.8084820701017805 6.9166798692235485
Al 7.120563287234893 9.27696834192692 6.374115520865387
Al 6.488580479391799 6.50485080514064 6.488687176520732
Al 3.6849639765255424 3.474945092150303 4.688838303494126
Al 9.209194415841106 7.6208118593426954 6.405049948737299
Al 7.799987222957238 3.996712528447061 6.286415574900346
Al 6.207337118931427 10.087678604413421 3.894344085745098
Al 5.925950878917584 7.3152965435799775 3.824078646279627
Al 6.118991384054596 2.278601363816453 4.979484649734122
Al 5.942228180555845 4.7501329355217585 4.033037837343723
Al 10.44872104361474 5.28645778911492 5.94015671244175
Al 8.344949555926622 8.562894885007037 3.9752061926011493
Al 8.227521823974193 5.860528138445287 4.309626136303778
Al 10.575402912733345 7.122593160458414 4.025750558723437
