27
Energy = -82.91856443 eV
Al 10.216283542188037 7.267214247165511 8.537717101555508
Al 10.372677189820008 4.708228272267457 9.258084794302926
Al 9.730322827461942 9.706351289215165 7.692679606905112
Al 8.264687721447814 3.346255718387614 8.301691827082518
Al 7.6600865263565385 7.84985709830132 7.776252822909775
Al 9.199284728685504 5.4592938679282845 6.849076371880573
Al 9.60832143152244 7.958520361859909 5.718807966973106
Al 7.972669515764512 5.775000743760708 9.596749124435494
Al 7.504031124748467 10.092418921177694 6.281842759172971
Al 7.973533338120487 6.196846429672105 4.644103087277865
Al 7.6812305658277715 3.509229247470784 5.716339232095984
Al 5.649583391940277 6.955702363992096 9.34820300501759
Al 5.731837399574234 4.1579522464720835 8.85880552491686
Al 4.879483843137447 3.5357231510236886 6.329984338006553
Al 6.3963473746295 5.746783548830326 6.823660114589052
Al 3.7364138490423042 5.7708333587613065 7.92210937775147
Al 3.266835133280855 8.161756790756387 9.298839203370308
Al 5.382536495603929 9.307257814731916 7.914541543591088
Al 7.903749222001084 8.840959903431727 3.879026475527869
Al 6.142545181286578 4.540857944760524 3.843912372078986
Al 6.034274669746312 7.238140519766501 2.9734889113178866
Al 5.8075808811590734 8.063922719425085 5.5241583494510555
Al 3.767853528813352 3.4177389566828515 3.915345662863449
Al 4.019835503816917 5.8460527148532435 5.303890613286213
Al 3.2788422947561586 8.175935206654051 6.587148067349405
Al 3.8477535116365966 5.758149304677751 2.6459998403028697
Al 3.4822028465916497 8.123820896934417 3.9683455449478817
