27
Energy = -82.29878014 eV
Al 7.92975280436199 1.2387865531119462 5.747398515145823
Al 8.41822290383521 3.824051472707736 6.3974361020576795
Al 8.602502490838605 5.730945068057949 4.215602177859026
Al 8.222569431818396 3.133315439700974 3.8069178544220907
Al 7.328256905108997 4.996597970361774 8.522747984664301
Al 5.874823133957677 2.8876696813284384 5.214455866928084
Al 6.603426352234621 2.3478033897513333 7.793558606901895
Al 6.769434949783428 7.510081642004969 3.1406233919930515
Al 9.231529804597123 6.256422931542831 6.803954476954666
Al 8.038232948780665 8.152199180253021 5.427819201707178
Al 6.052408794000902 4.946893294659812 3.5211850711651485
Al 9.468373027119984 6.750950456251105 9.404424901011698
Al 6.307379700706177 5.911874680568437 6.117322912598274
Al 7.483565637978712 10.025543841886638 3.5674183677940134
Al 7.098904102835341 6.888521713509123 10.431390661917215
Al 4.645309435167854 4.145286782951509 7.633705325184982
Al 5.120038233570515 6.638872120232063 8.793441101443364
Al 3.8163742094964626 4.455631455465998 5.0405480784213
Al 7.43026990764937 8.045079180543059 8.017855111599689
Al 4.394828824550504 6.94010654318284 4.320514162343017
Al 6.870746041205859 10.470447227482207 6.263084835153711
Al 1.9393537985154072 4.36507100859416 6.915393485310342
Al 4.979366481414394 9.549411621194313 4.248047953761656
Al 5.140960641204662 8.429557475476418 6.737339711239075
Al 3.257010551794349 6.629292013882759 7.0190048351425425
Al 1.6686526727014832 6.258716791742151 4.9515503886696655
Al 2.6682860689733485 8.831450317758023 5.307838772811495
