28
Energy = -86.36404263 eV
Al 9.123859092545919 9.074549004489151 6.847222917639588
Al 7.513163796901749 9.204091488027952 4.628850471679003
Al 10.163886085357673 9.416438518228373 4.3388793605788605
Al 8.392626933334393 8.7533430958135 9.358093585155727
Al 6.381391542919377 7.02196856921546 3.2388348128734656
Al 8.903169180013098 7.694126817236262 2.6918891584002633
Al 6.454638859525728 9.30722769269749 7.214410747913597
Al 9.015898839812428 6.493452632365581 7.869494437799187
Al 5.003278317469809 8.771986309402845 4.948618251907114
Al 9.523794310850414 6.921112678286384 5.251336416706663
Al 4.324874829853921 7.636430907436518 7.378126768297612
Al 5.764212788793195 9.284564257739495 9.807462643314356
Al 6.511668000345758 6.853925548689423 8.78524776188082
Al 6.805870933183464 6.795722236277494 6.04028442587494
Al 8.668541154408825 5.069691984587212 3.3971109719896533
Al 8.55386688758901 4.546490197417935 6.004172652231312
Al 2.49697135521157 8.20988556420669 5.237274979457261
Al 4.326455458792899 7.14202066289928 10.364273543971192
Al 7.397560137613214 4.393845136001746 8.34176749129189
Al 4.184767410123385 6.180505111919241 4.448012445556062
Al 5.653692328117237 4.72319245938353 10.38206614646752
Al 6.122121761964209 4.469968072343994 4.335863848232623
Al 2.479140287111585 5.918151167509064 6.518408617368169
Al 8.062386188888468 2.5698917148595966 4.096637421033751
Al 5.07051672906516 4.90167663797895 6.749144287364262
Al 6.588360370843734 2.6192166086916915 6.352549187440877
Al 5.156024080879811 2.7927504292935237 8.57545369210494
Al 3.38624189163257 5.262754050151243 8.827492508617887
