20
Energy = -60.447036
Al 6.054312432903799 7.185378635012474 6.116170439078471
Al 3.7918169828672332 8.410448416985144 4.773907693161769
Al 8.401848436871122 5.764516004703487 6.7747570645649935
Al 4.620670837341307 5.8526861421454655 4.018381802375168
Al 3.6541631362534392 5.83707196159561 6.743959840651045
Al 4.501353985886287 3.481648443920069 7.977333001596916
Al 7.467158958094687 3.4331831308176906 7.995404688018841
Al 6.015482089509833 4.677770661364248 6.045810443015243
Al 3.824668833308169 8.51818888299554 7.373885837938193
Al 3.6762301991199435 3.545142203051423 5.2135648381856035
Al 5.978534775895041 2.192706252410287 6.0258792377648325
Al 6.080721220231433 9.660455507415925 6.000596480398984
Al 8.330611739025867 3.478075458560567 5.238770784099267
Al 8.330712816506992 8.36270214004282 4.750558405279078
Al 8.326682364616447 8.460657665449807 7.350635411261044
Al 6.055502081634936 8.326827449766222 3.4493036791711704
Al 7.460567866989783 5.815833995116125 4.032707959840165
Al 6.014111588310143 3.513281288613032 3.575746430552774
Al 6.0156424391331225 5.712070068061205 8.554424728744983
Al 6.082334665444059 8.4544831419165 8.671328684244823
