23
Energy = -68.8948013 eV
Al 9.823449316239456 8.285417058079139 8.272331001169345
Al 10.522507742142924 7.765500033789171 5.646076431895525
Al 7.891723113014247 7.671284774294088 6.461347158991183
Al 4.55629435964771 8.899171314199648 9.03775016152099
Al 6.094330876803663 9.722469157986131 6.855927426022012
Al 9.891660535919982 5.709054476844982 7.256306968260106
Al 7.270234745672221 8.710845673859685 9.008571425013505
Al 8.536207754350821 8.001341986734916 3.843749793877817
Al 9.011826150978091 3.665661237742943 8.618746824074636
Al 5.99126894183817 8.634186406481838 4.415951457643792
Al 3.6094686691850524 8.903613238158655 5.79005488057478
Al 9.092668069113873 5.483966680648408 4.672762708382679
Al 3.961818258457354 6.6445892770428 4.549373758612682
Al 3.6696810043984973 10.824870497963078 7.529677357107893
Al 8.197199170755022 6.258943534699178 9.217568516561302
Al 7.144350884073391 4.904556954452844 6.895054039153716
Al 5.2580974330111125 7.032194378027229 6.922815975113198
Al 5.492131067945209 6.547016928429857 9.606578133333727
Al 6.569419307858381 6.104611881986151 4.430617340079131
Al 7.391337653825654 3.485666105852584 4.532567759229935
Al 4.947621012682578 4.136148640631702 5.235370041137719
Al 6.602355265872688 4.107789721352948 9.465501576823494
Al 4.580858700798792 4.5929421390064284 7.802714397659608
