29
Energy = -89.6070105 eV
Al 10.146802131829446 5.67535874969191 4.231775752029112
Al 9.825772957241545 6.529491035738385 6.625375426506711
Al 10.129296500811154 7.627194576663951 8.939619224715905
Al 8.786270580356202 5.082978490098076 8.771811978005497
Al 8.771599876305016 3.991817486158162 6.187024058621021
Al 8.43676939442088 3.778487717998551 3.5120738191640584
Al 8.120617553774434 7.2043748594693735 10.588859825720586
Al 8.421802179841254 6.692724148898109 2.471484345758194
Al 8.680107402616466 8.294213783715309 4.551174191138709
Al 8.978065783223256 9.221310449104033 7.020489226642712
Al 6.35991344478211 5.01948010498574 2.3691357061404434
Al 7.239277893175207 6.013698974206862 5.146919866505141
Al 7.322704159820159 7.176920029021459 7.913107198199829
Al 6.248352471133563 3.4393193780059743 4.946833986266762
Al 6.439341474582952 4.467406373784661 7.444597195851742
Al 6.797875553979386 9.867549699733992 8.324626155397715
Al 3.9231863906751223 3.8529443734166393 6.159472002837809
Al 6.362117294889888 8.66558426770366 5.909712475061161
Al 4.748943960014377 6.43613266143263 6.780842573315075
Al 5.744947747720969 8.35439216523875 10.180839808166247
Al 6.121222785335415 7.778966707189834 3.3759527380759913
Al 4.490771156607242 5.62881068032566 4.0167793991769765
Al 6.196148390291194 5.564835224582884 9.844181120474007
Al 4.001716566132238 4.56224678283564 8.679367250435673
Al 4.353282025483577 9.038585757597842 7.601663049776432
Al 3.820048376507104 8.176118611979707 4.943363833127899
Al 2.227556391116044 5.8113358669398085 5.2493195560911605
Al 2.2169775212463203 7.534550724803292 7.248089409351688
Al 3.598160179685681 7.022818462277308 9.475156971043788
