28
Energy = -84.94387047 eV
Al 4.7976988990349 7.749841569248401 12.40614750383878
Al 7.212900660623448 8.054332091803849 10.996252197448472
Al 9.049449787727129 9.542102625192804 12.388097338257515
Al 8.149602428111162 7.9815586739291415 8.313017392307053
Al 9.399069398759897 9.608256668221035 5.023298553087279
Al 6.994209522861454 11.21491858671189 11.058469075956479
Al 11.14055974005112 11.382755883070569 6.110652590831507
Al 5.520134322349 7.638742836528862 7.846336068926301
Al 10.517452276584374 9.027719052956828 7.545789561838657
Al 8.657736918714718 11.068523445766086 7.184107294274726
Al 9.778076318290527 7.431589160381293 10.680661584551546
Al 12.233386938582973 7.898677703261251 9.28884317047671
Al 9.68581622935184 12.0819917113538 11.156500280660955
Al 7.058577515675265 8.607974067231037 5.917776049652004
Al 7.463698070973291 5.780826743525919 6.928799804653792
Al 9.634185515521995 7.088194307418819 5.901183180388207
Al 8.913340007248715 9.971580176434166 9.703933682467724
Al 12.019672322228216 8.912762904838313 4.965177774109109
Al 5.1677657737390135 6.401161771637646 10.15470544213798
Al 12.244776003850847 6.91736007846506 6.845733051910899
Al 10.147370471144601 6.06098691167741 8.363600254562774
Al 11.321135202220356 9.710551930891633 11.002510203870962
Al 6.451451338963227 9.666680555695704 13.083731690432344
Al 6.461272662404021 10.223137649469841 8.337627318769066
Al 7.820279488481503 5.684590039130065 9.680341553756476
Al 13.085036778356262 9.880475689271522 7.503911940344542
Al 4.915998391937183 9.286193968846916 10.257115022758759
Al 11.029912744862743 11.428295717114603 8.79686119644535
