20
Energy = -58.84477767 eV
Al 5.159935619855753 7.610113326817899 4.235525059785316
Al 7.750987506284301 7.926368047286297 4.149109310975229
Al 9.768374395643285 6.806015315994704 5.422832842565002
Al 7.074638876453361 5.487114830692111 4.953252096811571
Al 8.971326511949743 9.559205514642313 5.774979747027424
Al 4.5621276022192445 5.83458663779875 6.154718401300178
Al 6.2342414361374265 9.867548425026005 5.734273674842218
Al 4.015617249185546 8.455379782020943 6.5490405967427705
Al 6.184012786172359 3.673130795593885 6.658507936344199
Al 6.92241631844667 7.421561201013629 6.889702248138521
Al 8.642529247820265 5.015622728704315 7.110845910739116
Al 7.850095905830541 10.205613959286726 8.143211776702216
Al 9.552463995996222 8.132396229267039 8.006361702994074
Al 11.131767211135024 6.060315027819126 7.560990015368456
Al 4.0887314672667845 4.29848179978046 8.266252174276017
Al 4.48203025542302 6.829006601639454 8.891795076771068
Al 6.629060600710143 5.147226085880215 8.873288785484888
Al 5.463740000082956 9.243410480289489 8.560959047805307
Al 9.300187068978166 5.877369548312269 9.580284802241843
Al 7.330026775907351 7.663844493632811 9.598379624583439
