29
Energy = -89.62986183 eV
Al 8.78260531160685 5.48706082296042 10.203382091208516
Al 9.699314631165121 6.103789291506041 7.734669444633472
Al 7.164257296285164 7.463386917635552 11.14840320325041
Al 10.750396998021014 6.428230565996693 5.362040624589628
Al 9.299040852711137 8.158095826501684 9.517344150295497
Al 4.940701738537283 3.751932613554316 8.149533657084532
Al 7.629533957914774 4.32124680744115 7.994731499338753
Al 8.438925223164139 8.166710563818425 6.388990624955374
Al 7.08802936779392 6.940015869640071 8.42071901178368
Al 5.801621876212112 5.300757852380784 10.149131577117206
Al 8.816089001683169 4.4897481895480205 5.532011097976821
Al 5.1281378270356415 8.374754529323532 9.711850791899746
Al 8.539153651536136 6.75887733576058 4.0329206717872115
Al 7.306120041247809 9.75907712524822 8.628420150985855
Al 6.517340936879975 3.2789146176520445 5.822587240302954
Al 4.349377921553184 6.426078025783994 7.969735872949972
Al 6.395738484299672 6.127516206044404 5.877653291769982
Al 5.477269250663542 8.655357345762688 7.024766579929905
Al 6.9758139648539235 10.692869141152777 6.062864591836732
Al 4.154882675501264 2.080272185808586 6.251886135371322
Al 6.633623618068183 8.544191475234047 4.4053580352603054
Al 6.7807127096015325 4.631870170998358 3.527678350847348
Al 3.884048149979246 4.785326526222296 5.850294916092722
Al 6.517876055877904 6.939599560518969 2.230319151157051
Al 4.541849166329064 3.1265818152537594 3.799420619811804
Al 3.7770959787887386 7.398818836928922 5.452353985982818
Al 4.521204040465647 10.09968902206983 4.970639198175981
Al 4.192670623331895 5.775489138208587 3.339642426979978
Al 4.3627788087011 8.39995178085424 2.9068611664335737
