21
Energy = -63.29603245 eV
Al 8.451195412381162 3.851764275718276 4.867308023230348
Al 6.656285103960092 5.178240317175748 3.1012052513397235
Al 9.264011582716687 6.242242273820683 3.616188060842016
Al 5.64812467430794 4.144110860817334 5.540376081516991
Al 9.941667478556425 5.776829650680465 6.346247495570866
Al 7.018116877347498 7.954281350429431 3.3429009584698495
Al 4.83349133824284 6.713493633493407 4.578401883426161
Al 7.375639148847063 6.223739395180169 5.449378723547955
Al 2.8362677917445214 6.208441615295986 6.3416194280019385
Al 8.99439437622948 8.352252961887222 5.463907170520283
Al 7.745114823717651 4.467131036285426 7.48666339095937
Al 3.8774328342923043 4.1726022778486405 7.597308683139266
Al 5.555532719111933 6.3235414526970795 7.3234971426785895
Al 8.175626781060952 10.048259736114312 7.462273206140667
Al 6.279849541688473 8.637512789070492 5.874772638848877
Al 5.787650801539774 4.277975006018087 9.354537015498966
Al 8.137454689376543 7.200813725634536 7.841675358990147
Al 3.7984876888861723 8.518341846785244 7.1025467602514345
Al 3.767307900001618 6.583504464393906 9.17840815604071
Al 6.4719964390182785 6.715123991733211 9.976031095620003
Al 5.89799628480021 8.923441626747818 8.668397763192898
