29
Energy = -89.58747278 eV
Al 9.319734625119185 6.648999008966549 9.394886726053839
Al 9.47655852492801 4.022299972868481 8.965749273899403
Al 10.239053052033174 5.512167398818902 6.878008406303488
Al 10.383201697991236 8.099452568560107 7.168649418625987
Al 10.14780029969872 2.7480634257817558 6.7386018672044585
Al 6.619116630262819 7.001725648787745 9.963761490961959
Al 7.30969861522791 4.473093466558754 10.274053700701767
Al 7.359454929190568 5.679927496688298 7.5179481483134944
Al 7.902924286451893 8.455798327638744 8.065098865235823
Al 5.235436683969352 4.31330449666417 8.498111214042988
Al 7.42327699540483 2.9228421534371836 7.543843756587941
Al 8.859518543671411 9.69684157028711 5.7454996955635504
Al 8.376643231268407 7.034516764165818 5.441190745089859
Al 8.492561000928674 4.2788245571524275 5.261418801588281
Al 5.8378697760627665 3.8069544641648068 5.660098207759806
Al 5.646245622910152 9.413626820428023 9.18332311022526
Al 5.530940392655226 6.842657700027404 5.339174209240971
Al 7.0707379154167596 8.780894336480687 3.9282015443606784
Al 4.916589471296288 7.124377105863741 7.92317486436452
Al 5.436774867481844 7.403150604051479 2.386209453805379
Al 6.965600111149367 5.45135156957503 3.502712672341154
Al 6.262341082226622 9.513204065595351 6.435665774112894
Al 3.6178779879998544 5.077433497185513 6.600402971251195
Al 3.778000412601672 9.658496312013284 7.349339022235924
Al 3.1148092117597055 7.28951308327822 3.491112569734123
Al 4.2917529169305695 4.856578072412447 3.8410667611684004
Al 4.42969393066307 9.366741307935907 4.528016556210629
Al 2.7981345024990114 7.5824269977420045 6.132083258212149
Al 1.6753382971236885 5.462422821792543 4.760282529727031
