27
Energy = -82.5225119 eV
Al 10.217773804711012 9.378411744995534 7.4607744579165844
Al 9.178958251077367 4.42359841020756 9.311761015360966
Al 9.693590510042723 7.016734561609909 8.569154456143847
Al 7.650629539096766 6.594564266087847 10.192981150443586
Al 7.367834039860668 8.348715839234593 7.800353587534177
Al 9.252726285540437 7.060573931360793 5.885730014090577
Al 9.783579563153046 4.536891157113233 6.636479145762023
Al 8.53087554336855 9.644037087790128 5.4291806525870125
Al 4.557829856243066 8.716002835443737 7.883467844344845
Al 7.518999461149316 5.64055893507748 7.5626357905643475
Al 5.359357719340902 6.3384650123492134 9.051580328209887
Al 6.577698919038296 3.6523115117246028 9.053045221719529
Al 5.833972504303428 9.240867730487459 5.670866865957989
Al 5.270321440727551 1.7269380148199125 7.230473805524633
Al 7.580891512351071 3.020150172896421 6.554274057756716
Al 5.460699768104629 6.55683074593905 6.218767498029447
Al 6.994311948915268 10.151745712186193 3.357451831241648
Al 7.54845095557177 5.121572130023816 4.9215155739168726
Al 4.914831823550891 8.523719424022126 3.147053539968873
Al 2.978155372543065 6.5012441589956635 7.702009185948738
Al 3.3390205117175906 8.125626473770058 5.484129145545466
Al 4.406388781869733 4.257609889641827 7.554911355609794
Al 7.327462945310067 7.556599424605635 4.033134325519451
Al 5.249771669778216 3.539603702337322 5.084974664403391
Al 5.264588036681002 5.826347860641069 3.564961042013794
Al 3.1316402922413054 5.244576806385462 5.217004630895779
Al 2.7327601939679207 6.978823710509631 3.1444500632468895
