21
Energy = -63.15279886 eV
Al 3.7836888619898152 6.414850243097039 5.388171640531483
Al 6.334185865534849 7.343535366531591 5.9713736272701565
Al 8.184019752913228 3.3625055831112944 7.358014040856814
Al 6.330064915511425 3.6038229518847564 3.2971325094465587
Al 8.508366522202804 6.19166897476645 4.811672201368797
Al 4.184260890500227 8.499457432754213 7.119619509712798
Al 4.67941637133052 8.687922707903873 4.227315710200996
Al 5.838350005611603 3.590301972699545 8.473282552654018
Al 6.38614977186186 9.841386676839553 6.092765412460206
Al 3.9584716491069387 3.9037255591644904 4.340458145250007
Al 7.972263702451323 6.058063810255359 7.725445846036651
Al 5.201440431510301 6.216152861354016 8.242495960420746
Al 3.623824904739315 4.084345140358924 7.0172302839275345
Al 6.216824486492206 4.858745123093808 5.892715109762549
Al 8.428876585748167 3.4987448544309285 4.7964049725627405
Al 2.4628852788998032 6.433697000009498 7.832388215141539
Al 8.790571254491063 8.444565312553646 6.469015937555266
Al 6.7643587357403465 8.43288975671283 8.467325181445704
Al 5.770392775402389 2.4185759031525174 5.912784067937085
Al 5.859589015947556 6.286355509758589 3.504442945068594
Al 7.470083598299427 8.576772635853498 3.808031506676169
