25
Energy = -74.93859206 eV
Al 7.994987236363133 8.584713225236587 3.7762348158886123
Al 5.820863183365054 9.106561512931034 5.244893812577652
Al 6.467442533472148 6.4887822743628405 4.3333079200648745
Al 3.946892544261091 7.48939473489016 4.196281893054965
Al 9.024154248366504 6.0027716884684255 4.744309099329309
Al 4.517352721838948 4.902949623147266 5.096175317458156
Al 10.38101880124544 8.296416036084237 4.931844079646913
Al 8.045750147420096 7.840508888973175 6.45415171023345
Al 4.662708311187168 6.927608561783771 6.738911213582341
Al 7.068571904432789 5.29330965668718 6.716036321542447
Al 9.87165993014816 4.5417340034953115 6.8452588305961966
Al 4.63628831765495 9.408884255665662 7.737473984651854
Al 10.60759615313489 7.097050794771508 7.3162293581704665
Al 9.951512761722064 9.843556854054064 7.035828175375596
Al 8.095202753801487 3.3540724859567335 8.380254920386339
Al 3.492076469569796 2.6655464774639017 6.174975633407104
Al 7.2791596231011075 10.164734289101865 7.4833461384134115
Al 5.465496197121463 3.395616504270116 7.782472134989292
Al 6.400537013124422 7.502478403323161 8.51942886163987
Al 5.373059359351244 11.759087020419773 8.877511827285822
Al 6.3350879791428225 5.093497440783927 9.632718539895519
Al 9.002364082598515 8.577003351214652 9.141722028034291
Al 8.752641171470698 5.935331096606383 8.912203503238963
Al 6.575041381968112 9.665302377825428 10.103212077697812
Al 7.375091924188467 7.205645192533404 10.967774552889455
