21
Energy = -63.16660634 eV
Al 9.469871544148422 7.760561232585978 5.372280602546699
Al 8.434024921467987 5.228765415832096 5.768142271643049
Al 7.0803305700218235 7.153050163492142 4.126090318412053
Al 9.440928171603058 6.524992017168563 7.99211216896782
Al 7.296448759616687 9.634676164904063 5.280879455584864
Al 8.730673821731509 9.292133377417011 7.610435986496904
Al 6.318147662538152 4.616263806202475 3.3508354761358077
Al 9.832519370573964 8.506151713067766 9.944356424874831
Al 6.887785681973234 2.9889711570230255 5.273319775440905
Al 7.176314030784598 7.379205921411201 6.811277536234451
Al 7.203680026055596 7.667953441739522 9.493683373492786
Al 5.4962841267622355 3.056472702340725 7.44616401318626
Al 4.930538355431636 8.284725354829733 5.609798374309876
Al 5.617369180006667 5.470672209177075 5.959325122567882
Al 4.000563071265577 3.7622139728632136 4.924305807009864
Al 5.9373840943065215 9.59869208580091 7.802725047647785
Al 7.032070838330855 5.151456774123366 8.324605469232543
Al 4.341040030976301 6.337696863781609 3.6329332931992497
Al 3.5001401363635307 4.667239533990963 7.735565549964867
Al 4.85632843924266 7.067192170138716 8.175370095159927
Al 2.924065340890365 6.357422096201224 5.872302011982962
