29
Energy = -88.38073483 eV
Al 9.716840792282747 7.22065865061287 3.620229375545845
Al 4.984205342840124 9.594840698555455 9.959250996082703
Al 9.697340525937333 4.66824760083304 8.054299649827982
Al 8.373240003608895 10.028499700083936 7.017643236807558
Al 7.681028772591778 5.858773377501979 9.313943862407731
Al 4.325212141588963 4.635397943088294 6.463702294291734
Al 4.376415265163694 7.092733411228561 8.7109097592872
Al 10.901463311477938 4.93961558566103 3.9707141928208247
Al 3.546225839898948 7.3107717579284035 6.194272631601663
Al 7.107269759757769 3.9214875164580665 7.202083449655948
Al 6.093177887153286 7.148314645581177 10.878627001458584
Al 12.390133760026664 7.363432399146312 4.340821486154425
Al 5.704721692974638 9.158956810999689 6.3210207016360185
Al 3.519983994241201 5.482342169968899 4.061729306713618
Al 3.3817415631524788 7.920166187604772 11.118219468867924
Al 10.383906703835677 8.799163673441766 5.657452402110458
Al 8.41048345534449 4.91606503503196 2.9920510082492933
Al 8.638933632344758 5.485255522623274 5.624551692119199
Al 7.10343949116736 8.487506998596686 8.825434209688478
Al 3.398060529024734 9.545283503643041 7.701877385861445
Al 4.03153445930941 5.40679828038047 11.05259041172254
Al 6.235338979165154 11.022478700780216 8.150133396098372
Al 5.286545416654915 4.52674776395116 8.933030590385105
Al 5.315847034880748 7.458842252511796 4.207967058568675
Al 6.32053698099884 6.565950365592956 6.913067426641719
Al 6.214363890038816 4.889072805928919 4.541466068119963
Al 11.178975728858827 6.1791644494300995 6.3928342492334265
Al 9.12708555358731 7.3750623356749 7.6202093960543404
Al 7.7454575821790845 8.12597873107875 5.049219350501303
