26
Energy = -79.61721984 eV
Al 8.965467201407957 7.126925876128758 2.717302281048184
Al 11.232453538224743 6.029629057458832 7.237162900366689
Al 9.972685166071987 6.512171978112655 4.993580404103309
Al 9.168958303223599 7.821562707768272 7.291027483531387
Al 7.900109355173892 8.424344031663502 5.023244755372825
Al 7.087221070185554 9.659582250753834 7.273226693352023
Al 6.6642610780528955 8.163253103080033 2.752941248807017
Al 9.436990075510904 5.955379331904535 9.17096358790461
Al 5.168312530086296 8.491075117027131 5.425143893753668
Al 7.423444000043813 7.748814013418546 9.34449077236757
Al 7.111557935066727 5.840314303765093 4.406619841434164
Al 8.591845860279754 4.987127620822072 6.712020840790638
Al 4.9697230778195545 8.512184471548007 8.361002381844864
Al 6.567465519579359 6.799602807568079 6.960340433402026
Al 4.6154227957125595 6.646701616070232 3.2055413984208205
Al 7.4149292355093035 3.1373614168615753 5.0624049501496335
Al 2.74603008653557 7.4653575740778 9.663577836351772
Al 5.225387132121693 6.798020303320484 10.524652326658506
Al 7.530486296402042 2.539462835769625 7.72572909932563
Al 2.6757852864269984 7.937864256635546 4.402542834241955
Al 5.092691692073285 3.9662440612958156 4.0081143768194805
Al 4.232924570335133 5.70015245050963 8.28962031424582
Al 2.7581700523494863 7.803020955969238 7.0168183467917435
Al 4.021602399092809 5.84706123356169 5.6611479179277
Al 6.822006288985742 4.970963204993787 9.04153494460258
Al 5.614874049961745 4.126628016148785 6.7400527326189525
