26
Energy = -79.04594519 eV
Al 3.088794662920111 5.644667358437492 8.206852934217437
Al 3.773597800092884 3.891602981531383 6.411993437556691
Al 5.622086946534569 4.870790653178226 8.135269663658189
Al 2.0578865154127874 6.084244594364749 5.562619898725176
Al 2.1553471372748785 8.019800358909146 7.681816399219174
Al 4.694761372226307 6.6764550697812926 6.094259802410221
Al 6.365142037403886 2.9310641779467077 6.392911171806728
Al 4.06844020378334 4.756118299576475 3.9454846987384062
Al 2.4678782978963456 8.901387944332983 5.173214460028851
Al 5.109338466781094 7.487953028762994 8.850369891000822
Al 4.49345434791787 9.323100722866634 6.999812532606533
Al 3.660570672624175 7.289218540113061 3.5101233776155536
Al 4.5807960689798035 2.1440639611645147 4.498271875928975
Al 5.628014703743709 8.977890812591525 4.5970473121914495
Al 7.726749642445149 6.521122827402954 8.830741929301352
Al 8.050221214821796 3.810118795493447 8.170197183772666
Al 6.921687655558232 8.399317674495315 6.969615103655504
Al 6.659261096870722 3.79464970782235 3.925310959075777
Al 7.4719769116098735 5.645738686232574 6.072821092229859
Al 6.1687925810751905 6.444107568171 3.6333779996236037
Al 10.300870264088866 5.0025489707345105 7.619143682415932
Al 9.36592408583611 7.514656894574837 6.959231049886935
Al 8.246110985794514 8.002394792368523 4.574694449620655
Al 9.07702832044739 3.47840090645009 5.512975057959823
Al 8.616651069593372 5.4448092377390145 3.4716811572486646
Al 10.59855795749053 5.8792990882570795 5.106839103265244
