28
Energy = -85.22368678 eV
Al 8.068288892408452 5.99170539258681 3.1160969324415855
Al 9.273936336306706 5.051825514369853 5.584179970688957
Al 7.440357433383541 3.463292954510573 4.484227064518263
Al 5.42047152615263 7.179512768224776 3.2434879333888427
Al 5.228829740263444 4.51916230692045 3.6457436071135794
Al 7.456268408060147 8.737628375804485 3.9769264431173745
Al 9.255207099192521 7.749720224872261 5.554903056978872
Al 7.4421817066029785 3.727121433511856 7.279830607873647
Al 10.936140852557193 6.56428384940183 7.2706781038486765
Al 9.884604502639917 4.2316643786280075 8.2930063392219
Al 6.740919337716355 6.224599053048594 5.508752474532868
Al 8.125771513704304 6.3489395700141396 7.727631393156271
Al 2.984386097247833 5.807068870953993 2.948354599470381
Al 7.147810206658594 8.840392865208685 7.060266654551101
Al 5.081725971406519 8.892320701481143 5.465865320229486
Al 4.125591068256187 6.319220859635085 5.515006628434086
Al 7.70704036345296 4.737870428753916 9.929665711607425
Al 9.630237309355081 6.692698248910365 9.929481851372945
Al 5.000438413191104 3.8464400686691125 6.365657796609775
Al 9.489053167561325 8.790000121963928 8.180051895121135
Al 5.498380639176816 5.239970947877276 8.678730690704608
Al 4.830332528994249 7.761707606832465 8.051804477366565
Al 2.877547429343932 8.343765501478527 4.01844487163238
Al 2.809447789584892 3.8699512447694224 4.971272712730149
Al 6.915843089201297 7.605317736991017 9.713926396571019
Al 1.4398251898082917 6.189740465186059 5.459765502695903
Al 2.637758769235129 8.277868979940438 6.776241075510683
Al 3.0012605915842867 5.483285799956006 7.756590456170656
