27
Energy = -82.98617668 eV
Al 9.770661388090382 3.840064212531467 7.1962486453178816
Al 7.962206054126533 4.653942018304087 8.902203273118422
Al 8.196892604791335 7.4169895395385455 8.32278337543127
Al 10.39389739772793 6.421655999377649 7.282387076834984
Al 10.171911246389184 5.523159333470929 4.80779835843221
Al 6.287617489497413 6.189697267185059 10.054553699348682
Al 7.725358329916031 5.57456431313504 6.264499433730969
Al 6.819227566386105 2.94162247031407 6.5588213024731115
Al 6.403448766180867 9.056161656929493 9.264609838238266
Al 5.357339501266851 4.094311541374932 8.419909645130451
Al 8.96976916217944 7.981540540831998 5.59794002053016
Al 4.175620456555176 7.753363111145652 9.912737396959233
Al 8.833962545917602 3.0970617819125885 4.864081401814277
Al 6.854210823699687 9.168449370055317 6.580278975628842
Al 3.130455361612755 5.291333857446794 7.847881835092563
Al 5.4622677180945445 6.913680158082108 7.5183164985209086
Al 9.074281131685666 4.317533803417201 2.498716703668776
Al 4.388135071639731 9.650927256607194 7.6711964658780945
Al 6.659007515526753 4.425475705248769 3.937301118243401
Al 4.8035465148921155 4.724438483141225 5.764637646687237
Al 7.228477743493401 9.23073130685519 3.8493265385015913
Al 2.373803889028875 7.7790344705301795 7.972542119830175
Al 8.120329240931277 6.682717016645821 3.331395809019333
Al 4.760003607668461 9.339845869073773 4.892691615153065
Al 5.927679533936747 6.983733558935708 4.7184672401313685
Al 2.2729231175492943 9.482727643708092 5.909200568687509
Al 3.3840098978942623 6.972281390878928 5.566517074275025
