20
Energy = -59.78470441 eV
Al 9.047096759699281 7.2365724517329815 8.213542386391742
Al 7.398968770826805 5.381286672475024 9.661008603638514
Al 6.762516632612681 7.895106216981647 9.397818313727607
Al 8.729500878899701 4.73871281314195 7.5002179975465495
Al 6.117073093462547 3.79617020589776 7.989041762736002
Al 7.9864560068328 8.166008230399479 5.602278452790155
Al 4.23450076629694 7.772194319526225 8.802045366071072
Al 6.069540212019925 9.483104132496958 7.370801743489255
Al 6.349311020422794 6.525261697267425 7.138108224131182
Al 10.186331040125937 6.541702722540445 5.899984500712737
Al 4.054236627328278 8.250951394260616 6.240083771895322
Al 3.6232294394267375 5.671878341115214 7.333291041146108
Al 5.8996851581267 9.747532816898907 4.721915361508308
Al 9.92316401951967 4.0052791706322175 5.2578905232512785
Al 7.852135137184641 5.522808322419143 4.863288245772736
Al 7.567823898511953 2.929370916629547 5.9048688876810385
Al 5.35229479698041 4.579688847393343 5.422476377544967
Al 5.837022929899268 7.027923637060498 4.318052854546971
Al 3.8359057044689484 8.533615299781523 3.625980112045112
Al 3.180670560720702 6.202295244715964 4.744768926740065
