26
Energy = -79.3398987 eV
Al 9.858524812848973 9.39901408265642 8.2264694695835
Al 6.735710638283778 4.667504119074938 4.614172257500012
Al 4.465660805482 3.2358142984986915 4.663477223080473
Al 6.738592700353013 5.948570868907385 9.180298375878058
Al 4.79127469883438 4.817901591004352 2.545053579831355
Al 5.466105909494598 8.536995561092338 8.384393528835753
Al 7.447910083065226 8.102907803987245 4.3804005416205065
Al 2.9113004184006512 5.109767286221234 5.5063240317328
Al 5.1540065847089025 9.15814077312649 5.700383102080123
Al 8.920132554646948 3.0922331934909346 5.232368012899455
Al 5.720405928090184 7.701404853195765 11.090792788125682
Al 6.501350052642794 2.3655631122059138 6.042498638676009
Al 7.538165927310976 9.364780002306135 6.843462180186276
Al 9.69703168539949 10.768132068307807 5.913337081729844
Al 2.357648150338996 5.082615399852952 8.045510218609783
Al 6.54075916757567 6.78954391656928 6.520523344781438
Al 4.115066876286987 6.3791424318050405 9.446374134288822
Al 9.098391438098144 5.7383150751872 5.225989219653425
Al 6.935719311289 6.31378663810173 2.5225865370666622
Al 9.935377638267347 8.156156407451332 5.6196321430733045
Al 7.72531245926298 4.3756442436044 7.318458245458112
Al 7.804856711591596 8.5089673219142 9.662696828458152
Al 3.712542206980292 7.214463899283116 6.873919504962615
Al 4.885132739446214 6.752610686241774 4.409963839976781
Al 5.023424532119824 4.627639562908187 7.228806748352629
Al 8.937389439682075 6.810178273506034 7.8199018940587015
