21
Energy = -62.75030152 eV
Al 3.956773897624872 9.582224241448822 4.119394480234907
Al 3.24012256235637 7.032352049023114 4.504366746661068
Al 3.683394913862727 8.304242356417486 6.831917187052823
Al 5.737810599813135 9.93278358876236 6.028555447291978
Al 5.994300723737048 7.712094492376102 4.5242412787382715
Al 4.974460423260675 5.083458398440489 4.101223851817873
Al 4.536446222418822 5.724180763664545 6.604547848778103
Al 7.403251735695104 5.296444564311763 3.302140970359486
Al 3.9546449808962394 6.744121136100209 9.119961616465282
Al 6.096189310909787 7.845275067053211 7.860778370220066
Al 7.245785975897207 6.03210618293654 6.097101701076748
Al 8.067748182891036 8.579831553631294 6.327485740598097
Al 6.271730699309873 3.5484067302998317 6.068192896132796
Al 8.493164901648623 6.805071280684885 8.52746593302654
Al 6.007785826502565 4.902002729169602 8.512328971486426
Al 8.854753484899806 7.327078933538879 4.116283532270482
Al 6.467339703518157 6.792425221429777 10.34168149668295
Al 9.021346589363556 4.174168526665809 5.074617206303462
Al 10.01914493654607 6.360448635153211 6.382698803839687
Al 8.461225150950737 4.147138242331812 7.708598340508873
Al 8.037408904359234 4.598975033021182 10.371247306915713
