25
Energy = -75.76051227 eV
Al 5.655598131663694 5.829131372449577 2.4554619973961933
Al 3.3568772010099153 6.371672220623438 4.043167258746568
Al 8.379107008776947 5.6263459536274985 3.1539914248857324
Al 6.553544178212162 5.801095482929844 4.986203014252026
Al 10.696748691442627 5.756152833682156 4.627057851209617
Al 7.270149867391117 8.1394340873514 3.554754251917986
Al 8.759786256048319 4.40272710436135 5.950964738610931
Al 4.647361181805537 3.9679260305567228 4.412480419878776
Al 9.95722761884669 7.923030799089933 3.3943444079310927
Al 2.1067366136071066 4.310233720986672 5.123140092788178
Al 4.7798499988670935 8.529290937027811 3.8811995628692593
Al 7.120229208803381 3.3542748090775247 3.7209764020149594
Al 3.5477275215664714 8.568786765571305 6.297040450481569
Al 6.244969702067813 8.151150844764684 6.247846134125533
Al 1.9117431726011436 6.558852920489702 6.626909017567629
Al 8.724556072356702 7.31353711394949 5.771974856613545
Al 4.5139760278349454 5.803402425406421 6.4879578540331035
Al 8.135929127575453 3.7304656912067413 8.494823601667708
Al 0.9456642577857002 4.075074235285679 7.639049054870515
Al 6.34001081647517 3.3039159753898115 6.459081869605362
Al 3.7009453529704444 3.279773638651601 7.027860268141115
Al 7.3090431748703955 6.175638015221688 7.667452261970736
Al 3.1294948116312318 5.368220757147372 8.781525636726748
Al 4.855825735053066 7.470313165263352 8.587411888474866
Al 5.606993209982781 4.439648039134651 8.857420622466858
