29
Energy = -89.558464 eV
Al 6.3005877946277575 4.406773800519032 4.096867619003099
Al 7.384838455837794 4.3371369856809885 6.531974983391667
Al 3.9896058046363283 3.5324161621664256 5.394618630246836
Al 5.1586121349910306 6.006642979298842 6.07033504181286
Al 10.415631436556268 7.91295913173825 8.349254357207226
Al 7.794472015518903 8.06110400590048 3.8153590840756597
Al 3.607021413717879 4.281504585931998 7.995724490070507
Al 8.135256396761207 4.187052206591906 9.169802378437126
Al 5.958874643455623 2.8725124764279895 8.312503148005742
Al 2.3523762384323104 5.52380611075389 5.894366684273722
Al 9.582417626430061 5.6020913677108926 7.251703234626964
Al 10.512281897908158 10.19492841908141 6.8454079700149695
Al 5.781134688695402 8.260228257265027 8.43561627202652
Al 3.7281375082684907 9.565935358341989 7.236563810934982
Al 8.055114149117667 6.930160355745904 9.30886477956982
Al 8.136934145974378 10.050012003330991 5.528967208461968
Al 5.822443027310994 5.636999482732409 8.70276634348737
Al 8.20995281505636 9.463311306174388 8.23363201733024
Al 3.8751697141787305 1.5700355845031764 7.317565007442779
Al 6.068663079206746 10.794472389372165 7.335459876562596
Al 3.38653383458753 6.968276498435149 7.960100009772796
Al 3.3308879856652966 7.849491942052348 5.169225614699473
Al 5.7226978764426795 8.895231706470513 5.423946546258193
Al 7.5083175373650635 7.200851027636632 6.579863073061729
Al 9.96118078392653 7.882851213743739 5.572767411163267
Al 5.336953966710501 6.964716346888601 3.5238234224600724
Al 6.149627944988826 2.0106167328333475 5.661113427869611
Al 8.762379531601848 5.625783630551456 4.6127924511371425
Al 7.47478093509377 5.914983315183726 2.1719004896584044
