27
Energy = -82.93793078 eV
Al 2.7678508509423816 7.497327495449949 9.875682400016826
Al 4.776884611488029 8.499304222344122 8.263922149606785
Al 6.696182269761991 9.334922745503306 6.674735008321473
Al 9.243468622713992 9.682123103791843 7.693946603041236
Al 5.242005689852285 6.821341341740921 10.455423173871685
Al 7.467052668181617 7.957960527533515 8.892562665030733
Al 7.713896499851582 6.170146188781646 10.914899405805814
Al 2.4081352805376657 7.605284716978652 7.19896281119663
Al 8.928465560457505 9.126698197684583 5.042095147250492
Al 4.343912815238656 8.506249752004273 5.558606453991827
Al 9.161194827654763 7.138639490686278 6.85617389663361
Al 3.898958162633305 5.59603144939432 8.266511276124362
Al 6.123211672410561 6.630151086438896 6.6825112140583505
Al 9.078240300489268 5.2334936469772115 8.739258903086183
Al 6.596984996719077 7.973199733886402 4.305207225687482
Al 6.424519929231289 4.891187469799174 8.868008482086955
Al 8.625668141851541 8.246277324825773 2.543227699456665
Al 3.6058852633701766 5.79689952939002 5.59169075966337
Al 8.98247510151839 6.324551738456839 4.256731209251997
Al 4.325279735040796 6.945563967600671 3.26665461731546
Al 5.241208947367241 3.892171560233349 6.739698660495141
Al 8.139365750479682 4.835638626318622 6.225635140972828
Al 7.72935212977531 2.7357801152785366 7.790414477530453
Al 5.9621616288868164 5.094677882643056 4.4292193603294745
Al 6.819747135349485 6.27540288493828 2.1423572166141414
Al 7.1608817582740185 2.6630008638570937 5.166812436259085
Al 8.075205546035392 4.064170233574886 3.0972475024128356
