20
Energy = -59.80850558 eV
Al 7.2291683005084435 7.779386266101283 8.213188059249132
Al 5.9279362301443745 9.481693407977431 6.651202651642078
Al 5.227168691008016 9.214800759214185 9.401245621107003
Al 8.719404794070098 6.118284341459224 7.01273878439204
Al 7.88288118861343 5.375121074510181 9.681295673030377
Al 8.3671477962903 8.582121576045152 5.867396136292314
Al 5.66402349374175 6.70292828962275 10.143646186803815
Al 6.246669026798883 7.0134975498567425 5.49842009270983
Al 3.3262882346629534 9.866833808420491 7.590955772292132
Al 8.372547393878584 3.558318453070552 7.849251928424078
Al 3.7508153607241095 8.374491829983326 5.385260400445083
Al 8.646937335956268 6.341981906904146 4.3632434171763155
Al 4.404220718434792 7.16012835096229 7.673830974898224
Al 6.938571301094575 4.250794859661788 5.538490015853834
Al 6.030039151152631 5.1292199807408405 7.814033947454434
Al 9.734088792115077 4.007018048578357 5.609458216856437
Al 4.337376971742893 5.150373260831671 5.783005931487262
Al 8.576229846118236 3.8262934905483603 3.1733388202913555
Al 4.251451543599632 6.697194964744746 3.562953423666539
Al 6.362553085830279 5.365037037252241 3.1825632024131787
