22
Energy = -65.19514842 eV
Al 2.06687561640476 8.489094290746682 7.9961331436469125
Al 4.0320267927636895 8.362565471307867 9.642121299581392
Al 6.22825951078923 6.583352289867576 6.824873264180271
Al 4.5591293084541995 8.951136436022802 6.974004736318773
Al 5.3197393667619535 6.188144530587903 9.668051133540947
Al 3.616497525903112 6.336226013707384 7.413394119122007
Al 8.932967276166407 6.184660721198046 2.398864075986176
Al 8.693852914970584 7.79614406032868 9.952328497144364
Al 8.724897770961828 7.594706597511898 7.2213652660346295
Al 5.183497323400246 4.230378618004877 7.703453834048169
Al 10.870702984263907 6.8739241956465875 8.853215240539782
Al 2.2702362210546676 8.078061275321565 5.441435016006806
Al 6.891857132745849 6.165701246798784 4.110821381854587
Al 7.655297135459173 5.413872483776634 8.868352499195481
Al 11.101147708956342 6.871127171168681 6.113191983096341
Al 9.495125924350505 5.096223804890806 4.753267993850135
Al 6.618568504299415 8.60993286348234 8.664947289718473
Al 9.047319816449464 7.826140756962235 4.479436796363636
Al 9.757978670433143 4.94992566842954 7.41071183199392
Al 7.378860326781998 4.300685913511069 6.287054986451186
Al 4.646511391777793 7.277811883011458 4.7283687993689565
Al 6.845407811178037 8.839740052629091 5.65089070483223
