21
Energy = -62.95635591 eV
Al 10.054332950324506 6.054483740502964 8.417266398019258
Al 9.226828192614537 5.984625926895936 5.843301600988595
Al 8.248826486065047 6.046209580899599 3.33675094294452
Al 8.857911373496014 8.20363389919877 7.40065301450456
Al 7.978235331830923 8.288731594329878 4.791981475981816
Al 7.680862373789093 10.389153946698436 6.4487915431162035
Al 7.629713145538041 6.666902695458041 9.34650861398276
Al 7.966890957347367 4.484583664762709 7.697387309901729
Al 7.145694724658023 4.305594946402922 5.102823012717678
Al 6.010845770341625 4.507361427618295 2.6974382903708682
Al 6.362711675473776 6.552947399837443 6.785717670466598
Al 5.735932535475604 4.616369991842168 9.192293117745981
Al 5.559449612130512 3.2795195105332655 6.942715363391547
Al 4.3456353142324735 4.54209282283822 4.758349179905944
Al 6.35864172061617 8.984399887267934 8.301780636981944
Al 5.7433593380412065 6.84605927300008 3.969296872597232
Al 4.935169619020265 7.053296005350778 9.672708973589765
Al 5.514387772606989 8.955420836537533 5.681701921067483
Al 3.437019600104074 7.145112972941257 5.2175385243197825
Al 3.9124496051517146 5.435324676506911 7.302909918613045
Al 3.8053223928411444 8.168395692275679 7.602306110491933
