23
Energy = -70.20888544
Al 3.5259442945891353 4.593083527384725 3.7807523431818337
Al 8.067234778399524 7.359698985404385 3.538418601943781
Al 8.731647541137516 6.217200795559682 6.030265304626677
Al 9.990963031095818 3.890691493096543 5.987705740281822
Al 5.968637849569203 9.04597025889721 3.8911930234889796
Al 3.9431697215379 7.26711071041475 3.5655499158706427
Al 2.2100664467673634 3.717864837067438 6.039510012968392
Al 6.062697498051796 6.011084156678823 7.399337443061071
Al 5.95067679070439 10.54114772643019 6.205517687959472
Al 6.123993814100043 3.503832577533247 8.46113735435652
Al 8.610808188723999 4.708263725337967 3.746819859746016
Al 3.363433934814411 6.0970190875093095 6.065774051968956
Al 3.603787544634743 4.488518094049359 8.281121680214543
Al 8.596168150737517 4.600066657858005 8.248216529771186
Al 8.183416331502158 7.264368108863189 8.559999649846853
Al 6.0411366868723295 6.088979912972598 4.789730045854499
Al 6.086838537494943 3.7507645847433033 3.443712413315887
Al 7.3527620373160705 3.706267800971456 5.963646724359202
Al 4.85298094833814 3.6486536982589453 5.980529145096901
Al 4.5697896448238104 8.286760685649684 6.120899826400871
Al 6.004877040337862 8.872962006094932 8.390221862388485
Al 7.434025391438845 8.353139753010028 6.101020311964977
Al 3.905147577235779 7.166754596436538 8.58912425155517
