22
Energy = -66.34829593 eV
Al 9.227315334949559 8.123634956036812 5.166379735406988
Al 7.527874432631644 7.862923098337571 3.158409977783712
Al 8.01362403743296 10.255188740942605 6.01213312709463
Al 7.70692007191754 8.20629257339976 7.9157231476732814
Al 8.92081548693519 5.866367636421586 6.495830806867883
Al 5.969840306003385 10.304483301135155 4.223557327705071
Al 8.203428391530913 6.0565052668430335 9.360973708316303
Al 5.735941309545986 10.174191321435762 7.312991600195112
Al 4.925894246585744 7.5638612463621415 3.3238079326814827
Al 6.4876075111938505 7.972515535425122 5.626276841257872
Al 4.027258291939865 9.088633024047883 5.539821076015527
Al 6.654904105613772 5.536411407798097 4.444546421010277
Al 6.446821710238918 5.607549413705497 7.238850784742339
Al 8.58471221691061 3.7170535619365883 8.246201519950132
Al 4.858557699622106 7.709264365365834 7.853911699268043
Al 5.871522043224125 3.3335956786582908 8.639079651596466
Al 4.217184314657013 6.296557467553221 5.567502558572055
Al 5.575550136250905 5.834240814606611 9.788285049376274
Al 5.156582810551156 3.5606817874487007 5.999129234728743
Al 7.807909631015206 3.4832930928949746 5.6953473312263005
Al 3.788424231127386 5.032857922669773 7.918043538289331
Al 7.299422703828049 1.4220088106810234 7.481307953948373
