21
Energy = -62.61440516 eV
Al 6.890214100886337 5.278751220810588 3.1482268689345165
Al 5.800608702294373 7.41694568854951 4.355525055905102
Al 8.349752952793338 7.529813380959773 3.6098016308900736
Al 3.1617356278674738 7.219478241983423 5.349432271898965
Al 4.7709052469215 4.864810971493017 4.714012226992273
Al 7.732657350254543 8.234621920738816 6.285210036742535
Al 7.0198052865290155 3.1018572699035523 4.855037228024827
Al 9.323844193480486 4.453901746132192 4.136959308847829
Al 8.251074395914962 8.420504158968184 9.412655564804526
Al 10.054358142863439 6.776733278124912 5.417539372771954
Al 7.688636981921828 5.554917079093642 5.88501917807647
Al 4.926091355535229 9.173964877342703 6.032155557708935
Al 5.4944394796479346 6.653875194961333 6.959866337803018
Al 3.178862612279713 4.899057816259708 6.856191717716212
Al 5.933402494828871 3.865725876035786 7.098743433189067
Al 6.249439606312064 9.580792480534285 8.149062580304776
Al 7.402862171033798 5.556267964454318 8.639118808456272
Al 5.741510012843846 7.374561519062523 9.716669234762556
Al 9.65682803796641 6.7477961009944645 7.948859270781607
Al 3.5031312748434624 7.981496291070311 8.095056980790893
Al 4.642606712021175 5.0868936615661955 9.107624073636265
