26
Energy = -78.88518518 eV
Al 4.278846505284604 7.133645508113312 9.10786850957322
Al 4.753356512505175 4.793057539771699 10.432145315273516
Al 3.0218957471596783 5.685813357866907 6.114074537742169
Al 2.907966190080226 4.557116331452417 8.455916810491635
Al 6.98663597989851 6.74221609682406 9.74429152680822
Al 6.363310296614256 8.212514104580817 7.527402335174574
Al 3.723136311379701 8.313488636949314 6.731393012533545
Al 4.873236223839761 3.6114368130019114 5.675469496091237
Al 5.5504957500391034 5.2654810356296275 7.761895252382325
Al 4.878067433557076 2.65595561444336 8.30440850953944
Al 3.4087654395638447 7.536217241745398 4.166053240959318
Al 7.165680388394241 3.973295671390886 9.418745117454977
Al 5.505673957621857 6.387908003537168 5.4663472939205695
Al 5.668390405253265 9.079892499990141 4.892497942464352
Al 4.241082502646382 5.04323652664683 3.4818478025607935
Al 7.241475648288147 3.166093105010241 6.8952094980299545
Al 7.981635890593149 10.03941221823016 6.039584729185562
Al 8.359894602049245 5.559634821918736 7.564505201706487
Al 7.84129620363447 7.415438362093979 5.382566826170891
Al 9.160598344693458 8.159672130816018 7.7073588072912225
Al 7.758610322799633 8.99740976184781 3.066027164474408
Al 6.448945261289499 6.569586855775509 2.994361800420678
Al 7.778565494618085 4.796872715194945 4.791401250528247
Al 9.995139418603607 8.795728623796128 4.637337756347592
Al 10.202013528746328 6.2336270733324515 5.762581776736486
Al 9.175091891314452 6.5377943474197755 3.135406650181165
