26
Energy = -78.70307229 eV
Al 7.47097013013146 5.588118775198241 7.47097013013146
Al 6.529544452664849 9.839924080000001 6.529544452664849
Al 4.890797809403442 8.168291095926259 4.890797809403442
Al 6.529544452664849 6.529544452664849 3.2191648253297003
Al 9.362786834444798 7.238437803761721 3.696302070884905
Al 9.362786834444798 9.362786834444798 5.820651101567977
Al 7.238437803761721 9.362786834444798 3.696302070884905
Al 7.238437803761721 3.696302070884905 9.362786834444798
Al 6.529544452664849 6.529544452664849 9.839924080000001
Al 4.890797809403442 4.890797809403442 8.168291095926259
Al 6.529544452664849 3.2191648253297003 6.529544452664849
Al 9.362786834444798 3.696302070884905 7.238437803761721
Al 9.362786834444798 5.820651101567977 9.362786834444798
Al 8.168291095926259 8.168291095926259 8.168291095926259
Al 5.588118775198241 7.47097013013146 7.47097013013146
Al 5.588118775198241 5.588118775198241 5.588118775198241
Al 8.168291095926259 4.890797809403442 4.890797809403442
Al 9.839924080000001 6.529544452664849 6.529544452664849
Al 7.47097013013146 7.47097013013146 5.588118775198241
Al 3.696302070884905 5.820651101567977 3.696302070884905
Al 3.2191648253297003 6.529544452664849 6.529544452664849
Al 5.820651101567977 3.696302070884905 3.696302070884905
Al 3.696302070884905 3.696302070884905 5.820651101567977
Al 5.820651101567977 9.362786834444798 9.362786834444798
Al 3.696302070884905 7.238437803761721 9.362786834444798
Al 3.696302070884905 9.362786834444798 7.238437803761721
