22
Energy = -65.2136021 eV
Al 10.687423913778186 8.880010998929535 6.821769939271582
Al 4.94533140402235 5.700207403131316 9.010067088447995
Al 6.238237742082158 6.198675679208506 6.724052557191944
Al 4.146200266185344 7.8812037821714425 7.491242433463462
Al 6.150653598203656 3.776971824612431 10.491275880282915
Al 7.997388266386971 10.21603973232894 7.7332003702928835
Al 6.58047387747635 10.513502713144147 10.209803681306855
Al 9.703898695100802 11.5598311384702 5.929553763847023
Al 6.20247284217182 8.846457437133376 6.071883062807692
Al 9.167611741909575 10.652929118583163 10.270880313669782
Al 8.760787086010511 4.973279188405609 6.680488583163962
Al 4.973189510550448 10.377345726709779 8.123682860424184
Al 11.308646975210495 8.81830814322805 9.557429588413376
Al 7.768863700430581 5.805124848985643 9.244959980596064
Al 10.520047459573592 6.505531270507995 8.356330969932369
Al 10.72841285853968 11.166896785582994 8.226418462207791
Al 10.553132548626149 6.613189590687338 5.531042377380241
Al 8.78628490527786 8.127085984908451 9.761379754123594
Al 8.616632375834739 9.365868843114665 5.078907947733849
Al 6.745807730502085 3.7146585325359838 7.858657595507331
Al 6.328732446785811 8.115786782508398 8.95355445631792
Al 8.386747500280967 7.574877292070886 7.051791528380848
