26
Energy = -79.49199894 eV
Al 5.518703270857619 3.1001376490472015 3.996531902461791
Al 3.1835488100442775 5.19268137222572 4.307836373210907
Al 6.752682460581951 3.489539216000011 6.553378525604184
Al 4.080407918892029 3.725360404380096 6.278386505377314
Al 5.073526124075244 5.3313747535301195 2.367795030418314
Al 8.16607590222201 4.024670358312785 4.170042974892422
Al 5.116761243132862 4.602631385155309 8.604973559956061
Al 4.082781764956905 6.430386863749211 6.779138300417259
Al 5.920355552430989 5.580969563599869 4.994468027903146
Al 7.740473724083032 3.98609952068031 9.00731757431233
Al 9.209127804042385 4.493574205457067 6.627982108798023
Al 3.9770753197577253 7.855638581234619 4.547640549483118
Al 6.420377099695161 7.640485810545853 3.2162472228820573
Al 6.9198239975259295 6.341694196109399 10.223368592147455
Al 9.598209474751913 6.047667770142225 8.638865070576639
Al 7.0447432815708995 6.139902630092593 7.488065886988314
Al 8.47197629211876 6.626461952892137 4.926255496237137
Al 4.503991877880026 7.162725152925872 9.308430201725274
Al 4.242301887546109 9.188878878884939 7.14397293597448
Al 6.271568139250574 8.057505763282416 5.896114257296019
Al 8.894832134745307 8.190971061199319 9.94868113330542
Al 8.869520820225002 8.276631351051627 6.98086992647912
Al 6.569163520201938 8.67344591287133 8.626422878926064
Al 8.165484953230704 9.30546759096749 4.468833352043791
Al 6.868641384542348 10.49177552334067 6.6410314436882505
Al 8.687218531424321 10.399694671789675 8.608481480977341
