20
Energy = -58.38628819 eV
Al 5.882921686565547 7.108872763471389 3.1085208883820834
Al 6.534976880986237 8.906073831412927 5.048194371633106
Al 7.158398827145899 4.928104984067594 3.754770278551849
Al 8.583293505866264 6.995744270678751 4.648772503918493
Al 7.322998160496189 10.34309626918858 7.35387535021406
Al 7.16070756247622 3.3826664131948485 5.856080800662637
Al 4.0654372701366865 7.380425681148413 5.12263851827375
Al 6.295245931202165 6.2044453747531385 5.98876123816583
Al 9.235785412421782 9.303931177753727 5.951264073167291
Al 8.81338355256914 5.241485656990626 6.763698340839558
Al 5.2185050750832565 8.612195021127643 7.235465986269011
Al 8.156555015194986 2.885110714623608 8.246263040871114
Al 5.878106836425773 4.4951069037729745 7.979711511217314
Al 3.904036143815831 6.286817386322071 7.710781820450473
Al 10.658803455767899 7.160334046813942 6.419761153265171
Al 7.944646031908806 7.645844416639834 7.688763038143775
Al 8.102555669559784 5.279819254275469 9.426157939540422
Al 6.1311691551711425 9.505922681042 9.541738345835755
Al 6.0204118433232905 6.810880219528844 9.474906963196831
Al 3.7364795581813097 8.327540507491701 9.48429141169997
