23
Energy = -69.07550398 eV
Al 4.104547880741885 5.96964075180873 1.1786685352184254
Al 6.556176916060007 5.30240428528116 2.092259240874699
Al 4.0705947288889215 4.080404857467534 2.994155014906611
Al 4.539444822052457 4.0027273433662724 8.314982239059626
Al 3.068570713899035 6.2942466990409285 4.175435435071404
Al 8.37364822995634 4.922327423452995 4.225913878571803
Al 4.978631777744287 7.7737363274312745 2.9073356280354195
Al 7.553496250856678 7.5377509065253205 3.4118103179021846
Al 4.092816667084779 3.961258105275128 5.615842953753024
Al 3.371714008455071 6.413555158214347 6.770627371286277
Al 4.30201630420783 8.551176896160403 8.044401749409893
Al 5.403896205689292 8.213620174540763 5.538438630133951
Al 4.065150478982527 6.320997555114411 9.538600949265067
Al 6.328420271874815 3.1002762366501035 3.9988197894467876
Al 5.789914536811086 5.746165578365994 4.673823968098759
Al 6.706944035580531 3.83281090137107 6.480397062531127
Al 5.955907274293576 6.203363120269325 7.544276118293198
Al 6.637830638214171 6.540642937773036 10.228633644869268
Al 6.922598615926342 8.66377343746108 7.959327973921446
Al 7.949364226515373 7.114025460216482 5.9527066599469585
Al 9.366599597579105 4.620590714773031 6.752217140909591
Al 7.174393589236361 4.185334815181512 9.054275478267392
Al 8.623475529032424 6.604849998272462 8.510597496798786
