21
Energy = -62.8991468 eV
Al 3.3633246573448896 5.155635632168147 6.299889516748088
Al 3.647177455188934 7.495267811623373 7.502030155864498
Al 3.917089474315617 5.178591394385403 8.948552091626707
Al 5.277310707761716 9.283236524499241 8.789510980546652
Al 5.695162006266228 6.740173135574095 5.844272073499883
Al 4.998919499681689 4.352338710698812 4.475026790940035
Al 4.800051411499074 9.447568088364308 6.129600824718563
Al 4.075314843513828 7.455466983989058 10.24757300451302
Al 6.242399509620444 6.426068337402736 3.1657658065392935
Al 6.5053863108727485 8.938665724539462 4.2572676406044305
Al 6.4933593466207356 2.4112669854144055 5.560367278416423
Al 5.941079080918246 4.385621576384155 7.355309682647686
Al 6.1687661510455545 6.711952848427099 8.840868156704051
Al 8.443527221287292 7.09915744030793 4.705769648726598
Al 8.887587510989828 9.698859870879634 5.220076186165342
Al 7.331196450288167 8.598475090340457 7.173542775567959
Al 7.663143887973467 4.712542864891273 4.814482613130812
Al 8.186209763477331 5.994599631743407 7.481218454089264
Al 8.573937602277692 3.324237241539126 6.957700167661843
Al 10.064519482118595 7.854873002199351 6.744034998503618
Al 10.235616013711255 5.246479491401277 5.9982195395582805
