24
Energy = -73.13644002 eV
Al 9.08159315950509 3.6296277257653284 6.950753631607254
Al 7.970604716009739 6.066712643969261 7.2937482298950425
Al 8.669093211967244 4.6002626087519305 9.437449956817739
Al 8.98652765895058 7.711662649950176 5.561475772912193
Al 8.799388444608805 5.161669637340534 4.764612598844879
Al 9.510985730687832 10.519028549342169 5.960033931468243
Al 7.9438779020032415 9.503880297923702 3.979283376440889
Al 8.587607045077915 8.915481243610383 7.931733287368044
Al 7.951974183018931 6.998419755846522 3.0147921441725627
Al 8.009833900966186 7.130400341907108 9.815731519971568
Al 6.716854332277441 3.54230296680536 5.498802427520374
Al 6.505952582910832 3.7460448215529785 8.13638664983239
Al 5.631082763442344 5.927315574204009 9.469004061852274
Al 4.055265866956473 3.8844816271729297 4.894675157247606
Al 6.255222170265757 7.658910659628455 5.034394356615254
Al 5.8759583202750205 5.406901636263179 3.6738404555514674
Al 5.272000229698329 5.652385912326409 6.593129186766725
Al 3.820784212526065 4.177034699434481 8.40175150426415
Al 6.091513409965367 7.962068173731009 7.869492596568715
Al 6.648554290181695 10.007069300728821 6.283601615761492
Al 3.4625642581342033 6.984104455923358 8.109393188804777
Al 2.3247976704012907 5.234374237812674 6.423553646779264
Al 4.120782031728215 8.89646743728093 6.218030330052937
Al 3.715731560583361 6.691942694870817 4.692880025026128
