25
Energy = -75.77678141 eV
Al 3.18291890534067 5.143364110770018 3.4017871295355206
Al 2.6206398818457366 5.324732577726062 6.369088762951526
Al 3.1553040287844896 2.5168944102868442 2.388283795945523
Al 3.7087302221189895 7.400134010222441 4.435449626658323
Al 3.2303226211459415 2.997559972621538 5.140770721139937
Al 3.958610059161158 9.910754388831117 5.3089960961155125
Al 5.9383868420489785 6.296321361935603 3.236716357015345
Al 3.6501158402650358 7.786068606275073 7.081889836050353
Al 5.093210752971296 4.8724815345486805 5.459546058962177
Al 4.873210451735394 1.1710726256207347 3.877937642712796
Al 5.558475818505298 3.7203880715469198 3.0314601458803003
Al 4.440366017032368 3.1142601598315496 7.4823357018742875
Al 9.097846426863569 5.840364491113464 6.482632474750847
Al 7.511205286840713 6.366640150701381 8.794511744591869
Al 9.285906891188093 3.2249114109296766 5.973672982594239
Al 8.383472100967078 8.462306052859372 7.196360807345492
Al 7.083968216722475 4.2314354752495555 7.3715102656330656
Al 5.951618902419065 9.605825696095499 7.011192246216418
Al 8.322897333405923 7.43570952084759 4.376521788802829
Al 5.4689299941564595 8.017823388016136 9.065519972018752
Al 6.315988082172774 6.982594805418806 6.300912813234584
Al 6.5575041565895535 2.4722210776984066 5.493890061854384
Al 7.708281214681934 4.7258555876681045 4.402134849088614
Al 4.8274190502642895 5.579494872325779 8.184241026443287
Al 6.118173276517481 8.844288014604752 4.1761394663279585
