21
Energy = -62.14946715 eV
Al 7.879650104092418 7.69751376336084 3.1742870613441427
Al 9.311534629519956 6.171774179811693 4.884410149481304
Al 8.9020792653713 8.721464448114514 5.90866555135273
Al 5.2241041717719785 8.046449654775836 3.467830061384175
Al 6.558773747905698 9.871344050454145 5.143769025222855
Al 6.89699982980667 5.163267462308847 3.509987888259143
Al 6.808406881828172 7.103005377847831 5.4625661218901405
Al 6.888143158153398 2.387929070803922 4.520798674260223
Al 4.671156076139703 3.5389102532291044 3.8172448421502834
Al 7.71953691670583 4.350120555172923 6.0861486247283265
Al 8.394436865401433 6.491457334674303 7.657706971894097
Al 4.313370726215906 5.943997291153174 4.916212366531129
Al 5.667373558043553 6.043987171985385 7.3811702170828255
Al 5.070116355595719 3.485263892398462 6.566248649487489
Al 4.49942507711963 8.334365131694858 6.363742942904084
Al 6.780101153935434 8.629392920238477 7.877241079945067
Al 7.050787785555367 4.087267075378659 8.689653474863698
Al 2.961008019850584 5.9299065004512865 7.264115342947187
Al 6.546740361082257 6.553901249479596 9.866316153080598
Al 4.39865894855678 4.487214591847879 9.024567000369254
Al 4.189595948892728 7.6845275670614255 9.109454246805454
