22
Energy = -65.5725713 eV
Al 10.36792399512511 8.154656678116089 9.03149327852855
Al 8.007269952486887 5.593923076660933 4.776520578333577
Al 2.387292141504996 3.2966757970588185 7.758219592802294
Al 5.565049366416426 4.194887397280118 4.940474732192965
Al 6.067493675336166 5.96929102775349 9.1387007198263
Al 5.857939895155263 6.4983703406265505 3.3958638607342007
Al 11.190352265557186 7.875572883354051 6.647260643313322
Al 7.548889505781222 4.111587181433608 6.9955727640815475
Al 7.03322747214112 8.332085808985882 5.125488858935588
Al 9.651318724930405 7.770113036377553 4.643156520258091
Al 8.142512828205476 7.455732677277606 2.6344608853798315
Al 4.033601201800278 7.617654035931975 7.887704750384633
Al 6.393218579745707 8.685174510582906 7.780426523322251
Al 6.0095297615304455 6.288422812803285 6.521830937466426
Al 8.85519370697397 9.229310000794284 6.948367200810316
Al 7.999981160795732 7.5832134953119406 9.70185106936074
Al 3.209565147563882 5.3904221554106355 9.08447172050471
Al 3.470015151997859 5.353200102813775 3.583411596730818
Al 3.2346776321831663 5.4347145034013655 6.264029079680721
Al 5.040981224835459 3.874361907724107 7.667949753548629
Al 4.226201713692334 7.730497002118416 5.166769368873435
Al 8.68752765502086 6.539896326962414 7.2857383237105395
