26
Energy = -78.58531222 eV
Al 7.39380282969993 4.031699063117905 8.611131687636032
Al 7.278748806955895 2.6891360548294063 6.414140684736958
Al 8.821145988951065 4.836776346419624 6.3507183297902605
Al 8.544374652913278 6.243520741483503 3.935455888277357
Al 5.724674507372489 4.992942243472301 6.731341645598783
Al 6.2656033535570055 6.599110791222093 8.847466809132586
Al 9.135044643023615 6.26152156489676 8.767474877414527
Al 7.64745227479182 5.189325065890904 10.807048689950145
Al 6.865570625179443 4.217734096393134 4.38885535725414
Al 6.414508206820522 5.651144745222232 2.2035252235806015
Al 10.65586267982533 6.528676239636612 5.60412677530473
Al 3.0622316969795804 5.6584648209779225 6.319743228962516
Al 4.555946899402705 5.7000285044671255 4.169278765114159
Al 1.675844803320131 7.735539690732174 7.058101580915873
Al 7.683241598287113 7.684787625471376 11.26462072100395
Al 9.193013205823645 8.781039180295695 4.658442186339886
Al 6.30991352646131 7.725836937407544 3.914543092491851
Al 10.345354729908067 8.279754413130098 7.483296632027297
Al 3.6910932993326337 7.480838632827211 8.67593931887021
Al 4.885035316420274 7.614038991859249 6.22428450257128
Al 8.20040776133869 8.844355415313219 9.061679039614559
Al 7.7007841368590295 7.4352434298136405 6.538409338183677
Al 6.422554914703941 9.85373441043979 5.29519206116025
Al 5.399004201304547 8.676108528457787 10.340629251425637
Al 8.606739974870612 10.161405797998471 6.801327572128777
Al 5.8627791409801535 9.46797044330577 7.873960515596469
