26
Energy = -78.45473861 eV
Al 8.544085197174198 7.297735415485265 5.787075231629951
Al 9.877872770438634 5.089459286308435 6.140486360416872
Al 8.539281259276638 5.810099813365938 8.277625367161171
Al 5.583818626695651 7.957652866477357 6.538912336864231
Al 9.193910321775533 5.893637929773747 3.5045900281533084
Al 7.741381351968231 8.328793884568528 8.162303469403971
Al 6.9961393555481015 7.312370905228225 3.5562605350566923
Al 7.364662399386836 9.66851945622153 5.368237381048562
Al 6.853064266650939 4.9215868620592795 6.328346214013648
Al 6.365183909351048 10.57002516131503 7.758928263253908
Al 8.644267037384704 3.0159230742684824 7.409423443057098
Al 8.949443646503278 3.392767630685368 4.408360316776323
Al 5.100928129118985 8.695312824392042 9.23969546720458
Al 6.765661038610591 2.0654542243412544 4.80469027226876
Al 4.533185335994962 10.623951501675393 5.764121780258405
Al 3.1059674937028103 9.451814566731965 7.7390953830798175
Al 5.912083416960098 6.2515926630366 9.007026892413554
Al 6.636517865200319 4.648269582811405 3.5724760940662748
Al 4.994638509634526 8.900847064746795 3.903587551382687
Al 5.973882949339258 2.171312162782997 7.356711121286128
Al 3.442886614681662 6.697747804687281 7.693035581550857
Al 6.810698758313624 3.862342992122993 9.230257854242174
Al 4.409858522108829 4.259222489627923 7.754534808908078
Al 2.9789365957543517 8.076996268552683 5.428960756861936
Al 4.647385644809208 6.112609775070362 4.755335930682113
Al 4.6582461498066925 3.552575118092375 5.137369945244593
