29
Energy = -89.81914781 eV
Al 7.213139055505913 7.794424154740522 3.5273558035628017
Al 7.618911898774746 5.225548120614899 4.047332807444241
Al 5.108523382998126 6.196475414633881 3.7486843853191907
Al 5.089800123528575 8.569230889720098 5.093413623659713
Al 9.427992699836693 7.112878478981116 5.087550951664729
Al 7.549848323874799 9.252630413476965 5.666632303883821
Al 2.8999682952682093 4.527778770952173 3.7196342626956964
Al 7.867489516712551 2.5493649886121466 4.30162242585554
Al 5.404055815424402 3.519953977947577 3.866840336996785
Al 2.835567660855625 6.967224887080022 4.985389783424359
Al 10.048601460393233 4.338721673494447 4.828803232364088
Al 2.8793250601479023 9.267521636865249 6.499140510147853
Al 6.694386889026749 6.614447882379972 6.262733883933426
Al 10.177617651230847 9.567399171543217 6.069917680574459
Al 4.138308408610403 4.761767616146542 6.0547821638513435
Al 5.434870006390104 10.606823658995348 6.957962570383085
Al 6.663165556324251 3.836654048722005 6.336280067830086
Al 4.152645588764947 7.067374491658965 7.42067543272886
Al 9.012465755090904 2.592859193432396 6.8001822906931775
Al 8.209445119159485 10.803569105326359 7.688807879637124
Al 9.024065210852642 5.293524221349429 7.134245742797961
Al 9.038313150454956 7.914770913940633 7.745787500741952
Al 6.4944498726636075 8.585068565016327 8.307431120123884
Al 5.201498217586398 4.774348583080955 8.399061904299213
Al 3.9442938629054423 9.229344846446832 8.991863871608102
Al 7.53816692301156 6.285209451876005 9.147375083428345
Al 7.650992187895985 3.5528330188495088 8.91120066170161
Al 4.991558810765551 6.987232438808459 10.046307457171803
Al 6.206914439231918 4.721400328595086 10.869365204763131
