29
Energy = -89.50773266 eV
Al 10.860538286274949 7.272551104547915 7.0462122205715385
Al 9.83122379905879 5.434191108970579 5.428997343291955
Al 8.765762846581277 7.937009661613932 5.460831522262721
Al 8.78340968951481 3.5184323646845415 3.9796091897904917
Al 8.754136289372651 8.457581696012456 8.206630546920342
Al 8.818886240804504 5.728593974363287 7.953574747597136
Al 6.958409219105206 5.742825341740639 5.28109785199631
Al 8.109346275362007 3.5235892640924265 6.629514794939107
Al 6.944601834975534 9.859914980465383 5.454168240915294
Al 6.769391273465796 7.925039198732758 3.6367944276846167
Al 6.475071991250081 10.511116166031004 7.896329535669487
Al 7.688079433049216 5.568733698709519 2.600346121185825
Al 7.109579020800856 6.627540163067141 9.694993764614885
Al 7.487701213367509 1.3945664127973918 5.142098387418885
Al 7.007411605736615 9.238704330297594 10.111684335123561
Al 4.770977173181317 9.974816705957702 3.834594821694799
Al 6.07995022240663 3.4315881989511374 3.9071551303615193
Al 6.350468785525974 7.663832539553159 7.091876292935445
Al 5.196548278425151 7.809689603050189 11.389474532655989
Al 5.510486946825494 2.6904261436978993 6.502223303892721
Al 6.154423442116209 4.979938820387921 7.817286908082157
Al 5.0472166322951795 5.642693542016475 2.9299433573046554
Al 4.471093316901657 8.803773496676625 8.987555328061026
Al 4.229861320657582 9.550669243073449 6.47258132256005
Al 4.3420886619528645 7.4936359135032005 4.730901620565031
Al 4.282394086583836 4.895230699517654 5.462341863943023
Al 3.708529999617931 6.82562906305224 7.226051852793674
Al 4.48090229022854 5.917842585167094 9.676903739751223
Al 3.529154181250564 4.0974883359569505 7.965871252105259
