24
Energy = -71.76179191 eV
Al 6.586769473678639 8.186593752346322 1.8975005638692037
Al 6.283931137947192 5.996232918583121 3.3015458520041894
Al 7.960383314523659 8.04639163157298 4.1950246437036895
Al 9.186892775926669 6.658536789329417 6.173427316437413
Al 5.103429882605548 3.9734238679700473 4.407602947433006
Al 5.252239790911572 8.59847336393875 4.147135072638486
Al 7.882029753735441 4.376465423335595 5.208645379420165
Al 10.163892866842755 4.0503926315879 6.456392351920555
Al 6.568280454145585 6.522158005374314 6.187652760516814
Al 3.4052831930120373 8.944097613216355 6.013281950948002
Al 6.133081536765825 9.161389219560782 6.704434138712197
Al 4.093166382109219 6.326264450545915 5.282655342064959
Al 10.260154637851935 5.717279241806303 8.491370448505025
Al 8.717465758239902 9.334605128217323 6.584927191041933
Al 1.9380351543879129 6.753225518157078 6.765121326488426
Al 5.395479405452228 4.217444961541988 7.002405544067515
Al 7.576353812362393 7.6344946734929655 8.457486420855457
Al 4.562319235402505 7.419479978369748 7.854934010338016
Al 2.747639659175896 4.011130844170816 5.941285424214215
Al 7.906191272994652 4.716944658057732 7.894698871792607
Al 10.242408242406977 8.30507225110137 8.414426898716973
Al 3.3509180309544804 5.096159156357764 8.427371040473677
Al 5.904272291141528 5.582057890275962 9.327717563933867
Al 8.325630212550978 5.917934306214694 10.4092052150287
