24
Energy = -72.47286747 eV
Al 4.205974176294765 6.400782902171906 7.142912807257679
Al 4.810441739153978 8.818989741752747 7.951609505733816
Al 5.804506472949176 10.028896267053758 5.840245993296041
Al 4.046267383130782 4.461576854742495 8.90767188334383
Al 6.284013131000509 4.787116320045615 7.22621800329906
Al 4.471571969310419 6.8466436632371925 10.040677636198934
Al 6.787095541485522 8.50705384770943 3.790815286412563
Al 4.558961916605197 7.7056048506682275 4.910284816164244
Al 6.894525021095895 7.44225651196672 6.365831142987926
Al 7.334786237543898 9.515907424888958 8.070754424820178
Al 6.321140672190175 5.483179474341318 4.600364925446246
Al 6.422161392041847 4.420959596840063 9.895429567429336
Al 8.792863540301356 6.709016390161618 4.089071437539369
Al 9.922910833776164 9.59162449810491 8.338482420660238
Al 9.635354053742724 9.090324217499656 3.338521545189767
Al 8.471873519932146 8.867580728119004 10.450630488501517
Al 8.658924296766017 5.034001181410464 6.0569848701101465
Al 5.828778595837312 9.064096239941357 10.40298075723941
Al 8.672596749597673 4.599275942121537 8.688764378487209
Al 7.035545236563527 6.898660364697069 9.063383304977286
Al 8.423680810881384 9.840021736673446 5.631715079167451
Al 9.822267383581357 6.967090478616928 9.163217335991611
Al 9.671133304589922 7.555908666008511 6.538515039391485
Al 11.014328014149147 5.255134093747812 7.386619342874806
