20
Energy = -59.16240411 eV
Al 7.588434108262574 6.704100766376687 3.4044959744102936
Al 9.33324890473626 5.385378710667042 4.830974718461231
Al 8.830769548371388 8.978058344658407 4.716387421781131
Al 5.899129027012161 8.723009627763934 4.051830123444967
Al 6.615133686660046 10.05792664199238 6.304340918228652
Al 5.768166306172348 2.8405939793409787 7.41201321140019
Al 5.273796331253444 5.9935047966701305 4.789584166210251
Al 4.540865082259476 7.9250350340201905 6.30704649423173
Al 7.049255713090117 4.297053708726785 5.672308973692178
Al 9.978092163506208 6.822165278637509 6.814035949261072
Al 5.436313989744669 5.63535577959249 7.538451613230232
Al 7.310655517452931 7.132390478285471 6.139133644105691
Al 8.96388979584859 4.23021358490017 7.600119396338075
Al 8.751220009005243 9.01987342208677 7.508005909603992
Al 6.964992751538596 4.124507029305478 9.341667333530497
Al 3.8240079816680583 7.556709529565541 8.890768000583579
Al 8.117725973611156 6.522977270595031 8.711959145708702
Al 4.417144798152395 10.079903177551424 7.882565448276619
Al 5.764880120947486 6.337671089432322 10.267239663425192
Al 6.415726791081883 8.4770203502067 8.66052049445116
