29
Energy = -87.41165386 eV
Al 2.5128633517080305 6.170448950901423 6.708167528977761
Al 9.968033215304835 4.838701121643361 5.081189984720201
Al 7.745135685523692 7.8452372799387575 2.563340400971328
Al 6.582516311431924 9.778965912660304 7.568667375250802
Al 3.153145791425356 5.649768836501992 4.088568161405111
Al 5.5750047712799695 9.42311401613588 10.042266598377289
Al 7.395884671538943 4.645642373770092 5.667887019064144
Al 9.348966159387386 6.393714105151647 7.480081132741571
Al 6.5286067984211735 4.601661353865348 8.120302845487581
Al 6.6859069221095435 9.01774191519113 4.7579396211286396
Al 5.806360637950484 6.237719940334358 3.941419832814882
Al 7.954933937845489 8.01663319394049 9.154494790733775
Al 3.929045938027291 5.426112831922725 8.821801408328191
Al 4.054633858600946 7.886682816903563 5.2061781424994225
Al 8.778622946405461 7.253834076828658 4.94959130338722
Al 6.4007150627446885 5.983695026425032 1.2249033091806496
Al 10.68200190358208 4.996857142961937 9.481674547536462
Al 4.802953993765422 5.059844300125266 6.158852279951865
Al 6.682439207695996 7.117157087605025 6.753527011353897
Al 8.11095101935756 5.097748637769195 3.1145431927553195
Al 3.3959996618767447 7.736898994690515 10.404670978674467
Al 8.113122762057749 5.284480034577445 10.120720518438945
Al 5.583857850630625 4.1904348948136105 10.573844641402196
Al 9.277474062657678 3.7342076997319698 7.581492327724905
Al 10.337156938032441 6.659952115053528 2.7782018414929195
Al 4.312221952703944 8.101361653468423 7.887436236262102
Al 5.896081146535437 6.798033352448561 10.203875479457308
Al 9.05683992521372 9.046447395020834 6.855475772281547
Al 4.605295291298042 10.283674714732236 5.985657492712152
