28
Energy = -85.53997507 eV
Al 5.7591565619163045 9.956153754636999 6.993388092716202
Al 8.235562642955031 9.71526342364731 5.7267465976822125
Al 8.084273651698323 9.809158804418649 2.9428446218328093
Al 7.820830855083693 8.970335732100718 8.251529320645481
Al 5.819780964777973 9.846747284199342 4.295532411428102
Al 3.5654152034682896 10.173133877251079 8.44503200687405
Al 3.4890718145586987 10.210421864853892 5.565687759813756
Al 6.6203161769464645 7.367564206537829 6.214866607465112
Al 9.272269044996918 7.764398470391064 4.079573057695233
Al 9.44270930073588 7.300714582025195 6.6874308160341265
Al 6.65736248435573 7.405723678934696 3.4254975028065746
Al 5.086112231057525 7.776867765684195 8.590315827542616
Al 4.2610942417851305 7.637176101008268 4.727348787822509
Al 2.8504393774403005 8.044534160569595 7.0122927555323455
Al 8.116452835564429 5.448057816479084 4.704748204143623
Al 5.334881086074598 5.258544343404463 4.42153686781816
Al 7.5651358578699375 6.4252052698708475 8.69384698570716
Al 3.90154810147776 5.732437355854907 6.857413227228033
Al 9.20111134402466 4.68605367392919 7.2676555696236065
Al 6.619469351968932 2.919086907441843 4.722150950855597
Al 6.436610264513904 4.6432500473867275 6.930407913871584
Al 5.144180983843325 5.25576448720494 9.383126418160874
Al 9.270896369853356 3.0382148464515595 5.15835252469937
Al 7.6087032111372634 3.8974385199513812 9.414222483299769
Al 4.076658432077627 3.2969205663730743 5.887578637851009
Al 7.739763640671931 2.2804510072648725 7.306989894990969
Al 5.457968716910384 1.0966224107089968 6.408949834663086
Al 5.229918641992377 2.7419499988689524 8.546478443789566
