27
Energy = -83.22342162
Al 6.248818342544859 4.372246888962924 1.8266333757114668
Al 6.1671574947898025 3.694289146004785 4.3840879888660815
Al 6.075566710814127 3.3238513613366285 6.9913256102339565
Al 5.973777592997598 3.2701109547226657 9.634335507698568
Al 6.131167193759305 6.785044593997891 3.254384528461354
Al 6.034870433095735 6.209161325285038 6.065044539792959
Al 5.930569838225628 5.988715313014289 8.925545442466476
Al 6.008396994185746 8.918710608862051 5.001887354430673
Al 5.908355706911028 8.52357307536736 7.826466954329563
Al 4.054881735632085 5.012397412819857 3.0631858069750733
Al 8.305292668713806 5.120632476567874 3.2277281127297717
Al 3.9387452914090084 4.43782813270664 5.742791235553322
Al 8.239822555807354 4.553207289609705 5.911647493963529
Al 3.8648340379107133 4.251730824524897 8.478006513830687
Al 8.112714879269197 4.3630621340229805 8.644970415563277
Al 3.8959369913546897 7.2646260718212 4.629628387217396
Al 8.223989401939347 7.373206459632863 4.799749493827612
Al 3.792252303244405 6.8486687030128675 7.582971576967839
Al 8.119354232266717 6.96252448985569 7.751594549273738
Al 3.740848490437785 9.373771115426393 6.4283355058993195
Al 8.131432311444437 9.488312407333607 6.597260018413416
Al 1.8074790409073556 5.452518966638619 4.426915117735277
Al 10.41395762239827 5.671751368588221 4.761727166283222
Al 1.7115707757422822 5.070364692934495 7.136615263287061
Al 10.317465749657917 5.295295012774488 7.473173888553067
Al 1.6911037517471064 7.638882556216798 6.11384290837402
Al 10.285013099003011 7.860891864168188 6.445520489770587
