27
Energy = -81.69309844 eV
Al 10.803322432704123 3.9203530752240514 5.0323065791304025
Al 9.657443768324926 6.228715554000911 5.724844182472174
Al 7.733599382266188 8.097797824047754 2.3764704097102713
Al 8.218260156108169 3.6064456494562545 4.864142379424438
Al 5.6222520749090235 3.7577671574867884 5.278961616974769
Al 7.167092743670032 6.015766015220939 4.028695577742611
Al 8.652193320428765 8.431518175025571 4.751638258209306
Al 9.436009578459943 3.965213522604704 7.380241566212297
Al 5.319127776376769 7.265483649224018 2.145697507249563
Al 4.552404927417033 5.205467164428229 3.4460308489414384
Al 7.15326396990254 5.3580025770868405 6.736206635357648
Al 8.980421520548814 6.656542006934621 8.301826476216888
Al 9.736431656646692 4.5025607948938635 9.91968808526663
Al 6.066303809980041 6.526303991641191 8.979985775937296
Al 5.989191419922459 8.740470630340335 4.358465677175589
Al 7.206076045589358 4.151912577822024 9.171028190928636
Al 8.095275928803542 6.32300109091642 10.865833418100753
Al 3.439086343424628 7.681951936729115 4.039760629557448
Al 7.055991808498721 8.206634971735992 6.908019503039355
Al 4.777016851443268 4.357546956905653 7.922083724295474
Al 4.835739069795145 6.375095821161182 5.922517759277981
Al 4.45735050881989 9.144299612185833 6.358888506252173
Al 7.653892015023318 8.640382093091114 9.691272243763715
Al 2.1496915237739365 7.714156861118564 6.309190212762782
Al 5.16912054966979 9.091311297575594 8.93602714010727
Al 2.629693640421052 9.40194310385067 8.332543415495412
Al 3.5373477084991993 6.726956420719588 8.31123421182534
