22
Energy = -65.98635196 eV
Al 3.2672766676557305 2.697880736976459 4.803089500817496
Al 2.6013640988064686 7.359869941327785 7.489022859421855
Al 3.9873317514089486 5.5981478373918625 3.7690176385050043
Al 3.1868116231608816 5.074848529921815 6.2207799547381235
Al 4.622796857513054 7.64497707031383 5.555038593985077
Al 4.918536765240755 8.612835443105366 8.179914414065776
Al 4.92484710926043 5.868326776092173 8.066793860913755
Al 6.257177150636372 6.062841762654813 2.6026569849223455
Al 6.212204319981313 5.448978539640417 5.443871997617053
Al 5.758403548527672 3.4013634847138463 3.9625728582297453
Al 6.258139689964807 9.849319623026643 6.03772305424096
Al 7.2033867810165075 7.873256844630906 4.362861895065071
Al 6.930193562665847 7.353306733612377 7.026083593166802
Al 5.236417617792512 3.3016546092006642 6.788735059565616
Al 7.688963397186531 9.394273242829073 8.512629562650098
Al 8.188247146063144 4.594170256165484 3.6378959274705953
Al 6.782477592546361 6.901121585944872 9.70225531416243
Al 9.032731315112967 8.740314453820947 6.1897088755852705
Al 7.780178962588032 3.0701608431782104 5.88612751573255
Al 7.407202912833602 4.795812539436486 7.94260113187833
Al 8.936191313717485 5.943638752684461 5.833794189746911
Al 9.225467516713495 6.8247747320472145 8.400887971163748
