29
Energy = -89.57837845 eV
Al 8.369808963134599 10.316390349469813 3.469052074319686
Al 7.891949861772792 7.580796782643216 3.2983705114105306
Al 5.7749099298609305 9.317175255637657 3.6102566266194946
Al 7.204481589318361 5.051882726794447 3.4666443505927336
Al 9.595315032890115 8.599560592864481 5.290129043032886
Al 7.213700869158453 9.742509163835127 5.9580126825056325
Al 8.62687444982376 6.053016429259672 5.479526516218721
Al 5.112834273227032 6.643676901069282 2.7544729919467743
Al 6.101074510417435 7.155251652756309 5.369588087371087
Al 7.543410874820276 3.4978478633481345 5.717558903692614
Al 3.4764983055654852 8.32228549506723 4.524148223910629
Al 10.549461515422902 6.991339534695926 7.149597666269631
Al 7.9281130114413925 7.64150774961955 7.541190232085458
Al 5.031489674019573 4.6139493961502325 4.851142596238815
Al 2.762870625743618 5.7939620172855175 4.071583205928126
Al 4.677547838880983 9.18165674824041 6.693982027924006
Al 6.345066290928654 5.333444324114356 7.30516640384016
Al 6.5273522477547505 9.688939937453146 8.627684669916396
Al 5.019942812023777 2.890270361562256 6.861357930484629
Al 9.018392167698664 4.7354934907267525 7.702908654046373
Al 2.5765186115264624 3.9910330432384353 6.150506788307826
Al 7.329864617022439 7.526865925799643 10.176712312996429
Al 7.119913612831921 2.9503774624301715 8.442318063269017
Al 3.7042960375480063 6.530016742096573 6.5595799501914085
Al 5.16380125723131 7.3416656965217815 8.639058416450123
Al 9.733808927288857 6.594264053535504 9.624544156494538
Al 8.37373780885111 4.391046411654845 10.39373704407581
Al 3.8668741030159803 4.8150431790183905 8.594317422545153
Al 5.8714789718082585 5.220119504139184 10.188241238342924
