21
Energy = -63.11337486 eV
Al 4.545668985580311 5.8531595407522765 4.866669707900094
Al 4.286649988032275 5.74635514771195 8.965839078375481
Al 2.8321326585476876 5.267314741808686 6.8532605476115735
Al 3.6396294227728436 7.789125529439867 6.632841248600214
Al 4.998342424848197 3.7468964494405768 6.620346416111276
Al 5.878669660554176 8.160133297478598 5.064646909203318
Al 5.3715877203782245 9.931556477998877 6.977962463486539
Al 6.3250858584146 6.4524631214104184 2.936736115664735
Al 6.046637531104542 6.344525754612266 7.116672225934884
Al 5.100868351372753 8.36440784936116 9.036688842167875
Al 8.01353801203211 8.49307309785125 3.565962326903821
Al 7.000046191718008 4.810990074416445 5.049981248440628
Al 6.928628764022375 6.639066430672687 9.917678433662822
Al 8.90544023741934 5.837126336179076 3.5577139158459175
Al 7.671241177890299 8.445639756897847 7.9713139562964095
Al 6.524774480865675 4.163383125538012 9.0294002821669
Al 7.666645122405676 3.0803458342170433 6.955260735898595
Al 7.934928370606857 9.939885371515393 5.819158387505204
Al 8.517777788312745 7.176884595643168 5.809915307525508
Al 8.615778672089768 5.6528581443691905 7.963288017639301
Al 9.710955108303724 4.6198358499575445 5.803690360331808
