29
Energy = -89.33790048 eV
Al 8.936947486465943 8.995394863871248 8.751716733127527
Al 8.242468040994885 10.917514472753673 6.989640714715207
Al 7.326883956415018 7.891042822314973 10.54249163146159
Al 9.741855476864588 7.5053362330645115 6.716145991959731
Al 6.247547886662975 9.79434440833646 8.94661275390859
Al 9.018503734529144 9.234564363410648 4.805557363010859
Al 7.630045959440091 6.449441708380285 8.07765799575601
Al 5.558422651760452 10.938522401566397 6.580126112204878
Al 6.64743954509834 5.303103773038497 10.373752418468582
Al 7.044260423355517 8.600372901537831 6.54728397120254
Al 9.497135723457944 4.83834161188286 6.566124916402999
Al 5.141821739624882 7.198124242124085 9.078651408280601
Al 8.749347483071437 6.4891760497192985 4.365272969719671
Al 7.666403543687471 3.742617536034607 8.424496270711636
Al 8.38598686193545 4.013973484900094 3.7516552715497724
Al 2.957422050145362 6.366240654797215 7.387941385742938
Al 6.930098289599766 4.727575095287417 5.971653414006074
Al 6.74929600160465 8.159447928862198 3.811304102208128
Al 8.261553150241173 2.306192159711128 5.924037413694081
Al 4.042332626275001 8.96588239772083 7.514469357434384
Al 5.3680331453410455 6.717301389714003 6.2374249950470455
Al 5.758731454902467 2.3399716831005772 6.932925978684857
Al 4.490693140057737 8.882668399235271 4.873478490666008
Al 5.9746891489655 5.652018076813663 3.6043409469199883
Al 5.041508134958365 4.70820020664577 8.228042501409035
Al 5.962746745579507 2.905323569864373 4.134161588117906
Al 4.112461584299919 4.2053154597295155 5.761743818046451
Al 3.244421512524021 6.4858471340867 4.506488645561436
Al 3.7719900941122666 4.167192563467563 3.095848431951927
