29
Energy = -88.45978117 eV
Al 6.264532899881197 6.264494887698044 4.103921839860439
Al 7.634659165959069 8.638000633134839 7.759336850467439
Al 6.264532899881197 6.264494887698044 8.425067935535647
Al 3.5236737010700065 6.264494887698044 7.759508240215685
Al 3.181295415420399 8.731176647553761 6.264494887698044
Al 5.670220206666789 10.168108311557699 6.264494887698044
Al 4.876921637639242 8.668057621999402 8.789453357979221
Al 7.113052919913816 4.794534975019016 2.0578146353960878
Al 9.040271536853632 6.264494887698044 3.7393756993754694
Al 7.634659165959069 3.8909891422612515 4.769652924928654
Al 4.876921637639242 3.860932153396688 3.739536417416864
Al 4.56680248011624 6.264494887698044 2.0579488357332747
Al 7.113052919913816 7.734454800377073 2.0578146353960878
Al 7.634659165959069 8.638000633134839 4.769652924928654
Al 7.784780510465365 6.264494887698044 6.264494887698044
Al 5.50434330416704 4.947970605921984 6.264494887698044
Al 3.5236737010700065 6.264494887698044 4.7694815351804065
Al 4.876921637639242 8.668057621999402 3.739536417416864
Al 5.50434330416704 7.581019169474101 6.264494887698044
Al 4.876921637639242 3.860932153396688 8.789453357979221
Al 7.634659165959069 3.8909891422612515 7.759336850467439
Al 3.181295415420399 3.7978131278423266 6.264494887698044
Al 5.670220206666789 2.360881463838689 6.264494887698044
Al 9.942378624947152 7.701649718087546 6.264494887698044
Al 9.942378624947152 4.827340057308392 6.264494887698044
Al 9.040271536853632 6.264494887698044 8.789614076020621
Al 7.113052919913816 7.734454800377073 10.47117514
Al 7.113052919913816 4.794534975019016 10.47117514
Al 4.56680248011624 6.264494887698044 10.471040939662812
