20
Energy = -57.86249551 eV
Al 9.65683736554801 6.445373273483459 7.821039011285335
Al 5.1330368643444055 5.863917711502557 9.102799080257219
Al 3.889500855241316 9.237337554221133 5.19181455380708
Al 4.5116903110948465 4.604084943712354 6.542245126903443
Al 6.393261397848957 5.620924964236086 4.780857958508709
Al 7.904375759513961 9.897393629322062 6.185106190707937
Al 9.69006079671979 9.170905039296018 8.06341073759414
Al 7.230960462076167 7.953135928044648 8.321716109338684
Al 10.535807649141894 5.266361497063151 10.187566111658661
Al 7.023420028241234 5.320478178039875 7.338157368902443
Al 6.311989337415673 8.32608854588783 4.580162656361575
Al 7.615990346352645 10.719292627899618 8.898657507453292
Al 8.995618118564554 4.653227025596835 5.656127453636712
Al 4.985864867224679 7.2519027045363655 6.783160832326568
Al 9.387892321333023 7.7600809761340015 10.244315932641383
Al 5.528664218477364 9.806870791527723 7.365502272668923
Al 5.795242175822467 11.16491133934373 4.940194939271519
Al 8.394498545035937 7.288878481869853 5.775585693294805
Al 9.222923140370968 3.864186304567851 8.29257247760908
Al 7.695794501127774 5.68807754521024 9.832437047268302
