28
Energy = -86.13529267 eV
Al 6.027670676274864 6.734954428610846 3.1111321279535016
Al 3.927145036563804 8.73616791030138 6.795728512782376
Al 5.186188498086762 8.919355547492488 4.506614713664117
Al 5.215706410684122 4.2777388570144605 3.2815192195408533
Al 4.9307153807892865 10.200682200543978 8.887007373712642
Al 6.87414038352381 9.191102979431735 2.3924756525515245
Al 8.688053200225461 7.2315711572931445 2.727297587429698
Al 6.518791601088244 10.091426110893702 6.7503918768296725
Al 8.008765258965308 8.965320201643378 4.819575266959162
Al 2.9322570635116656 6.3343635896533925 7.5141268084413255
Al 7.166701743916056 8.685581437455017 9.094759336611041
Al 4.340171753585134 6.2667349750214045 5.207189450168113
Al 4.645554518472174 7.58498731740253 9.231373670398598
Al 6.452267885083499 7.43768897645688 6.688348755261141
Al 8.205156375420854 4.594256774090313 3.0026291367454983
Al 6.85245857634963 5.151148609883126 5.269615058959448
Al 5.4764938221891555 5.1946858084975425 7.642153113463189
Al 4.635064429601124 3.4029504487620454 5.713214625872259
Al 8.99175978015613 8.272850713962429 7.239528936934565
Al 6.989092387051877 2.4898446147262843 4.347788769211515
Al 3.2224517854712404 3.7922353459266667 7.9291355143820255
Al 4.240746802466283 5.078104376569741 10.022515678095054
Al 9.24573005649403 6.453922939769705 5.252286513847678
Al 6.95976455837979 6.13559991617732 9.789057955067442
Al 9.193008914438687 3.7953913940324906 5.521660842855791
Al 8.309622176587505 5.378982507873718 7.6203309892742
Al 7.0819556462127675 2.959677188161244 6.991726803875364
Al 6.593298821546145 3.536570174166007 9.556950075856697
