24
Energy = -73.31632559 eV
Al 3.16428150188999 3.7663239165849944 4.581393988056535
Al 3.7020309167731984 6.503174929234466 4.665684524695972
Al 4.96174364815337 8.982620993406865 5.150519209126297
Al 3.578088867211271 7.611146315727981 7.335443515124402
Al 5.792316525870947 4.611842250050024 4.4166521337504685
Al 3.969485795907692 4.910672703291172 6.965795089572283
Al 4.404053473707759 8.373955914999407 9.881233905797345
Al 5.345704394838628 6.057347508637076 8.916441520572914
Al 6.221815098790233 7.006551789470803 3.513075750020482
Al 5.899684259137626 6.687258448906784 6.227348399897917
Al 5.186764087038903 2.6483635522086475 6.063597971106299
Al 5.960442836757907 8.917688774477922 7.741337147740769
Al 8.560965190411812 9.477647186705381 8.516142286493334
Al 6.699614197799438 4.393228987690633 7.517339248857963
Al 7.010769739356046 9.596842939104338 3.470685254733626
Al 7.083309776359256 7.7986949818202245 10.07959834599302
Al 7.839888082676411 8.82670143600611 5.92745122334218
Al 7.854890136956505 2.9267884281159433 5.625105768095681
Al 8.09987754651887 5.565081008579684 5.037200214884454
Al 8.000655226087732 5.225744670302421 9.725329990425765
Al 8.0569501686853 6.871700832468501 7.660143421475307
Al 8.927943170559386 7.7931176642950355 3.6975635750777607
Al 9.481965395980396 4.515831235867693 7.324906169578461
Al 10.194947809742501 6.929861379258929 5.958199192792386
