24
Energy = -71.32199429 eV
Al 6.484987366339141 4.836433424766157 9.35634505203719
Al 5.401222620793179 7.9630123151029615 5.222015595179358
Al 10.197537799167353 7.277895354090057 6.937348663015079
Al 6.534685236654623 9.834940340066177 8.828668127723624
Al 5.3395977664554755 10.569588640739335 6.422546331290339
Al 8.065562308870001 9.167597178753992 10.91396749822356
Al 8.860779541854532 4.673681661491146 10.407392360642453
Al 9.59782666382207 9.633943808834967 5.411560158448717
Al 4.416577809044562 8.448653057253054 7.6794123786554165
Al 10.343556857210865 11.862520855225938 7.181843553654449
Al 8.281923483255156 7.182816162859729 9.097492280562195
Al 11.334224276550549 10.847457267955216 9.545594598840536
Al 7.1286586667785725 9.880457061411551 4.401855904512703
Al 7.182083642403628 6.61265199357923 11.57507040186957
Al 8.543021067585189 5.201490831582459 7.398844860826987
Al 10.8650766649635 5.586597013943533 8.99948960852821
Al 11.660591269689348 9.473879479288714 7.095992399779656
Al 7.836303795656929 11.31588563811441 6.660754052355023
Al 7.662801732773452 8.214397041302718 6.602556621283923
Al 11.310135291041538 8.170652985157506 9.475362231390122
Al 5.4851510123439935 7.358475421175183 9.741926130584938
Al 9.844742984013553 7.036692081948922 11.507869722152641
Al 5.993127765411901 6.239383917731464 7.198299831270205
Al 9.191078066065666 9.695081733334083 8.393172253426561
