25
Energy = -75.83054749 eV
Al 2.177962125641903 6.508691130299176 3.6192758408223358
Al 4.9090209649636165 6.790293595695002 3.316651273204037
Al 6.363981454311194 4.788338791833313 2.227123723792692
Al 3.512647898740176 4.298417708892168 3.3743841389984435
Al 5.103976826620638 2.469294334640367 2.497403667359617
Al 8.351246811972457 3.99264677953654 4.792634592601199
Al 6.1347609079023675 8.97423322429861 4.511036271593104
Al 7.413489266074007 6.468361029324105 3.9877632083268426
Al 9.94634292380394 6.072108569006356 5.028035586614021
Al 3.3912977488600937 8.020287532100406 5.309058718502064
Al 5.755834200927182 4.549297382525848 4.953472106521483
Al 6.467184196471476 1.8337967715143753 4.620889026658667
Al 8.430397003220849 8.04867003054546 5.857132516784497
Al 4.068620555552372 2.6414135523232605 5.926889707143359
Al 5.788273020425347 6.941205152097376 6.26704219446948
Al 3.178460192812401 5.305436102957586 5.896014078523325
Al 4.715153227518345 9.394263544626538 7.016388377639431
Al 6.9069827835581545 2.867267264495029 6.947126436264963
Al 7.983614211719661 5.502755732597606 7.050562323365583
Al 4.970264781889432 4.603387334183806 7.6532904390193055
Al 7.182134451627734 8.773204325115646 8.021265361582023
Al 3.6237615895343396 6.983197649739254 8.009446038109102
Al 6.343531258742355 6.406546912403063 9.052109748793756
Al 5.043800114194215 8.707389109357878 9.657501005605527
Al 7.116718443033583 3.9389534000090527 9.286960577822812
