24
Energy = -73.31124823 eV
Al 6.445295720670893 6.3370614259216085 3.745910865039655
Al 6.446722678552161 6.322477347604964 9.117115107673714
Al 7.851785619956146 4.4446045718437475 5.012946069472884
Al 7.851762612950027 4.4475790322358755 7.843247581091847
Al 8.707849494432999 7.062751880283595 5.0323911635139655
Al 8.711775820234628 7.07476183321102 7.868175501363784
Al 6.457173758579329 8.729352566140475 4.959845141503489
Al 6.424786170384109 8.698422848168521 7.910024687685762
Al 4.199193123190312 7.048914406249856 5.0135833670968735
Al 4.189921012676084 7.063999134085915 7.860614684867713
Al 5.07249551482184 4.447071232690691 4.974897570397772
Al 5.077405962840464 4.453084504491831 7.80528750035613
Al 6.466489071679958 6.387492052314677 6.430888509699867
Al 9.231299358807398 2.506846034224344 6.449833684490276
Al 10.152019119774636 5.107019039054932 6.4639931151515535
Al 11.003921819610955 7.717909886405464 6.487900181053995
Al 8.76953664843534 9.390337110058798 6.350852855067611
Al 6.333054851963279 10.985733441573963 6.457750848525286
Al 4.083441759368359 9.419651974302859 6.4335247926755175
Al 1.9083940772125099 7.740844432392898 6.456328067003031
Al 2.7688918838099155 5.1279659102356865 6.436986679331279
Al 3.7153524107639875 2.5688294828921765 6.367032663258889
Al 6.449916672140453 2.523265181423124 6.414761958754922
Al 8.09876992836288 10.811279763411486 8.523362496142859
