23
Energy = -66.70941252 eV
Al 7.173247108442527 9.715662491863004 7.861572793563325
Al 6.668507569884561 4.322024481495976 6.3409866158486095
Al 7.923890166918989 8.485685795557327 5.5255286833420545
Al 7.350227411611691 6.043602888820154 4.515940268522576
Al 5.262379949542052 9.566911434296252 5.961761404794541
Al 10.057453205276314 7.083501038058311 4.783931451572836
Al 8.312248667575098 8.042469910710308 2.8939367314008893
Al 7.0073430980622 10.257023377960842 3.782595206824552
Al 4.3588966465636 5.449968217239625 11.136163319545288
Al 4.562223748201694 2.9356772955726913 6.972150664981223
Al 4.544839021273555 3.1348768760110657 9.89929979346281
Al 5.09488304528902 5.386848502390229 8.472664259378886
Al 8.593985913627767 11.104100707835297 5.880587020094703
Al 6.084202527840851 7.1515637351230055 6.864298792896287
Al 6.841757191958293 3.1404811495130858 8.70925893325401
Al 6.860556094359639 4.80007960445467 10.921521443469391
Al 9.036364410738672 7.814720758569236 7.856866498802862
Al 2.5871572680900328 3.9862685834112166 8.323842227972346
Al 6.170041197277687 12.031289325198914 5.835243349870055
Al 5.6658916195838325 7.861253294396399 4.003479730136641
Al 9.232704355378255 5.186812487093219 6.371868748985881
Al 10.42643396387559 9.29782936584835 6.216428140897486
Al 7.8603504881150315 5.602337710566969 8.671024691838856
