25
Energy = -75.58434815 eV
Al 3.605800771162544 5.755338549029357 2.6475612210830066
Al 6.416562235121373 6.947330203894724 1.8734530018735571
Al 5.767788682510302 4.159162211217317 2.257896733289832
Al 8.19554407548108 4.838082524938312 3.3112938163503283
Al 1.548766715456957 4.360807697093443 4.074907511463548
Al 4.398612367986807 8.155333793865394 3.644731690222854
Al 6.5234740942586935 3.115282414378658 4.677896953352776
Al 4.035062450508562 3.5331837669924715 4.281406582484046
Al 8.138864400818571 7.424010332656734 4.192381563437176
Al 6.416340919833827 9.339299655428558 4.97350629545603
Al 9.130791860752398 2.887970554065532 5.18884498604193
Al 5.833678820996136 5.983747448537206 4.401159880503282
Al 3.048240626400905 6.225877612772109 5.280901828252629
Al 8.118841023820986 5.224822175816607 6.017515778929769
Al 4.531485239837469 7.948017096341454 6.4199059073095235
Al 7.342757787782269 7.486005384024805 6.8717404996716205
Al 4.755889927092731 2.1956883650841275 6.556694168497695
Al 5.30184122427727 4.955785983743638 6.660391995418634
Al 2.6538525707938168 3.9117514768694326 6.677419296056628
Al 7.246607328457486 2.994818264481302 7.340741132534275
Al 6.1467431343620245 9.688033334762824 7.602028867692876
Al 3.3324274896950894 6.101997644498068 8.130702661407398
Al 7.087913448483153 5.370318327120931 8.679872455501487
Al 5.470639740361013 7.5011804695444155 8.969483270643218
Al 4.724704173566826 3.6693858226614804 9.040793012344631
