30
Energy = -93.11986368
Al 7.322564052358417 6.646408601463597 8.087623509644846
Al 6.024894405421271 4.579379448638649 9.319817894677811
Al 8.017030701667323 6.987949415928049 2.6057007912304315
Al 4.768443556268687 2.8356904054024343 4.950975264595075
Al 4.645871415768321 2.4255710418380305 7.62317420021845
Al 8.701265740077043 4.478818299284402 9.164411117180775
Al 3.3530529505894484 4.3158918024435655 9.180594341840285
Al 6.049409931011367 4.673867293956396 6.552470273846854
Al 1.9014988274171878 6.637892284714799 5.452638128495587
Al 3.551611726091633 5.0246213511247495 3.700904647839881
Al 3.3376456188151615 4.608331649699701 6.4703847558705
Al 1.9046780559607628 6.310879897322786 8.148457862268511
Al 4.713129820370818 6.869403446556781 5.401286212497706
Al 4.641555155703244 6.58122456835965 8.222504747010868
Al 8.946428589614966 4.7735900431141385 3.7761407381153638
Al 5.318931461790122 7.230386477957906 2.780980302017269
Al 7.403995479563763 2.473664892163033 7.693810830207774
Al 10.034010322604948 6.5396161881396235 8.059325888163105
Al 5.863535458076702 8.804972439712545 7.092960556241938
Al 8.785785421420576 4.6334330038832094 6.509416992757928
Al 10.24901960635809 6.645668338287675 5.338604945674136
Al 7.426731564658504 2.7810044324638516 5.018015308186919
Al 9.209836300195018 8.868685733565618 4.261302815797537
Al 3.929766200846043 9.450584155087551 4.721957833136451
Al 3.2255387471393577 8.536168201799995 7.154242284175244
Al 6.6229091897712244 9.283782838447472 4.57686182218029
Al 7.506072900814793 6.793792886077619 5.307496139333294
Al 2.748323971042967 7.516472084143215 3.1489672996834552
Al 6.251662476126488 4.960621878593259 3.8133409367392845
Al 8.564998668342403 8.751825215715476 6.885829876259515
