36
Energy = -111.81317386 eV
Al 4.42068090871249 6.077676666831537 10.528206568481878
Al 3.3720257707554153 8.14737268290898 9.078810321380114
Al 7.352115913028577 7.203732214347504 6.031345881443287
Al 2.5122445029464333 5.557673202776935 4.15494923536416
Al 5.801376246547185 10.206018335906275 5.199117796091995
Al 7.029550594794263 5.581175649055099 3.97756704208233
Al 5.673902142393709 5.654951498110471 8.222263910310618
Al 4.729465745686682 6.053369035045167 2.708435224499435
Al 4.03841157146739 8.165850823366052 4.332757148398099
Al 9.087737964855656 2.969679075440943 6.852279039184251
Al 9.798586621586136 7.854047980854213 6.803366179152745
Al 9.153984331638636 7.440865188170769 3.6887509818382744
Al 8.674333061949946 5.468600879113163 8.026770166400917
Al 2.459214594652432 7.27345117131294 6.409012621938178
Al 9.458376761342022 5.32285687474623 5.423075266179605
Al 5.109645200685576 8.103873141300422 6.932900671943947
Al 9.252740561402497 4.7860485637266335 2.5145314937149212
Al 8.49110124966955 9.702449304753872 5.009930775592572
Al 4.479548255277795 3.2931348083962675 7.007096094837333
Al 3.273421874247616 9.92520287914558 6.249368448103181
Al 6.895902431666304 4.3634039043590365 6.28646342213988
Al 7.280157686588201 6.488093756788446 1.5022466184135712
Al 2.924763227986176 5.253309834112624 8.210750369845854
Al 6.582773765370382 8.259368738493889 3.4304011379604313
Al 4.983484061302656 3.513361229367067 4.318950147855397
Al 6.580120413268189 1.6686458410700225 6.2650253455527745
Al 7.30024941141455 5.581455345115064 10.375999119006964
Al 6.421120951902442 3.811390916170244 2.0128714035681643
Al 8.038666304061623 3.009964478242586 4.240776573502859
Al 7.041851871918054 3.1694102568706017 8.735061341695829
Al 8.907991049466425 7.761133784704901 9.394235529987652
Al 6.175872501233046 8.034639949028856 9.469951589719805
Al 4.562147970811306 3.5058969449858037 9.730271600966523
Al 5.028088175172552 10.296868176776034 8.370581187017509
Al 4.737279690435298 5.812079694278176 5.672634940291915
Al 7.508092195462174 9.518078609588644 7.565009306925829
