39
Energy = -122.97237291 eV
Al 4.922174449613648 8.587537156694252 1.6263818056041843
Al 6.327662402327046 6.197420506845579 1.5803404213170134
Al 3.5064477179920726 6.032385956639411 1.3595789946320778
Al 9.014388805956017 6.418069296024414 2.685323392560891
Al 6.996126228306865 8.290993468596593 3.3504416786451827
Al 2.442558262721534 8.131657314794156 2.6701006141011385
Al 7.223327187892671 4.235028003860736 3.268895141507315
Al 9.665363235098754 4.288244528712044 4.312644986119217
Al 9.342963623594551 8.507046580556063 4.5300537001064995
Al 4.786020809417998 9.41074412810924 4.572776594303768
Al 10.875397735003064 6.445557911992416 5.245829707407951
Al 4.712481679537833 6.785485738572594 3.7634964535513067
Al 4.543271370329965 4.097998555032958 2.81207172185461
Al 7.2001729415192 9.04299876878531 5.985429286528504
Al 7.777309806844498 6.2398521730528405 5.168470385555638
Al 2.3169211243003924 5.424000639388052 3.8911017392330627
Al 7.614987851196526 3.3861045239914875 5.826824695889512
Al 2.4574751176138703 8.021218368343881 5.28125646528662
Al 5.586637568597173 2.1716005805129392 4.390252168921479
Al 5.082911975162763 7.244055680635743 6.420032407736077
Al 9.448732045442181 4.829635519854261 7.124814457169332
Al 3.0373077974480283 3.186984550725112 5.390546767791905
Al 5.0843109483602795 9.801800949719334 7.399699393773168
Al 9.178024705687957 7.518533396092079 7.152822958077926
Al 5.2716341603088175 4.80489159196976 5.3724970140848685
Al 2.806399716084201 8.180250457047796 7.847122719782692
Al 2.7651938737505755 5.666502852766088 6.546599423411906
Al 5.357960807161449 2.749539680337364 7.121108404789932
Al 7.620923404612909 2.9544246851737026 8.547850952954228
Al 6.590043468750534 5.359637459536247 7.739313945149408
Al 4.457399830051337 8.716044198480441 9.943632674284764
Al 9.856174815821369 3.934744392773988 9.74056572945703
Al 6.7826685307792856 7.987530010438911 8.480379503582219
Al 2.9764711831595507 3.549569188762749 8.133918411603005
Al 4.038950493103841 6.068284318475424 8.84135198559388
Al 8.598474741100818 6.273138173920455 9.524480939316096
Al 5.112771896679792 3.6833821448211004 9.702231144681493
Al 7.412974034133564 4.156122995785258 11.032997328095714
Al 6.045963330359567 6.432015976202178 10.52887125148855
