33
Energy = -102.67823432 eV
Al 8.966588002914767 3.2979941764132357 3.5773762770785797
Al 10.33763944783454 4.642953813168036 5.3578783913643635
Al 8.37047955185905 2.9713526342098016 6.406389870935407
Al 6.756786704552026 2.149066889238198 4.456763040489123
Al 9.0321309733847 6.0995914841317616 3.028486920714271
Al 9.565136751536162 6.596721271616794 6.9500116375621515
Al 6.657064055080577 4.36226789301664 2.7827836366410663
Al 7.5889645248822 5.35847182436326 5.230262557902296
Al 5.700087334287893 3.6587766535592423 6.511462336332167
Al 7.575070473575931 5.057047493856494 7.9971026816412945
Al 8.36103336847912 8.156036321273046 4.711359720437372
Al 8.402729748610307 7.505974613995699 9.257726496904056
Al 4.337320580409497 3.2312345004132883 4.038759687306378
Al 6.517243780913499 7.022655320957327 2.7438612315512927
Al 9.439953077601084 9.271593702108841 7.177276523561341
Al 7.0103211192935815 7.673954048958718 6.9688434155580135
Al 5.022230055571121 5.747055354787138 4.673900877571795
Al 7.032533722608426 10.254931821377145 5.9529609051523025
Al 4.313225470147088 5.16265007153231 1.9655875647881444
Al 3.1063683944254104 4.423412368259475 6.189117989761552
Al 7.242354308929191 10.004419783256008 8.603985500968637
Al 5.376258680566421 3.9061885140195454 9.222047332988584
Al 6.724551530528865 5.822103066186945 10.493070162026651
Al 4.95908493387849 6.116605475681178 7.607390176212578
Al 5.540896699642216 8.491133026859245 4.730677252724107
Al 2.2868941442688238 5.282083472537353 3.7791622964485456
Al 3.820015499882831 7.580976705118153 2.9864315468387757
Al 4.757739155684195 9.241727850589717 7.157940375879262
Al 5.612749181711033 8.142729218044153 9.42888269894386
Al 3.1166176308106754 7.350781462312524 5.660887549134176
Al 2.7480429546772163 4.763953690738064 8.779997651801251
Al 4.115807325732516 6.206364677794222 10.481357105981344
Al 2.889893721536466 7.732379222707503 8.371742211848419
