36
Energy = -111.7590076 eV
Al 7.305133524937024 5.011809597364619 10.749826514983623
Al 9.539493123656142 6.5348359974736585 9.072595926154412
Al 8.211855838396291 4.158455321491225 8.396112946709886
Al 3.6891682156770127 3.785413554468406 7.211724356320113
Al 5.316574724045449 4.304908726162496 9.203041686508723
Al 7.359403659833327 2.487148716523942 6.460824093483067
Al 8.040978360524718 7.625902802424687 10.9144474388255
Al 5.09776978201534 6.687975530879178 10.672775481691541
Al 5.13976645974182 2.610483863489499 5.065542803447653
Al 2.7610616837761772 3.9500505181903196 4.583600686834277
Al 6.813604242264088 6.66167660691412 8.539194729032795
Al 4.039763355310159 6.470397779172584 8.116107180955652
Al 10.99912200295322 5.4076501409053686 7.263823925187949
Al 9.727119303897503 3.608990795769564 5.757393122983539
Al 8.28680269704869 9.000372025873473 8.397666182916298
Al 6.012273600113937 4.900605486511501 6.531089687924274
Al 8.491475314844797 6.038173800080769 6.405295241926896
Al 6.106966074460821 9.114572665887378 9.999977722344347
Al 10.271827573937047 8.082828545993122 6.618299076814053
Al 1.8707028118191296 5.690131392764179 6.793580982198961
Al 2.832188652626958 8.425376744128098 6.5355173602032295
Al 5.387619542419838 8.818981142567038 7.53192227535094
Al 9.863002622950257 4.947675878251729 3.4053332234813176
Al 7.45785930207566 4.060025872477104 4.261039384715458
Al 5.1424690378551485 4.727967015438145 3.1725467756600287
Al 9.32738501748498 7.444980128591772 4.160311857035822
Al 6.559494473445521 6.665466167875191 4.667584741136063
Al 7.682310544764538 8.8622297928927 5.789884591857035
Al 3.968473912732531 6.3916631848722085 5.125421628808361
Al 2.780970258841607 5.862450837080592 2.4311328204397156
Al 7.52856090965257 5.956439831978426 2.261644487292209
Al 1.173350051024299 6.593682959216722 4.4589851524300865
Al 5.1146015514234415 9.036589673037577 4.875866668068632
Al 7.2040629303703705 8.748725522600843 3.0529502163027598
Al 4.936983039040496 7.460394171128493 2.5348561218736934
Al 2.728481169312379 8.668264408242601 3.733736623886378
