36
Energy = -113.6350231 eV
Al 3.858214673109367 7.80231258601204 10.136559029824275
Al 5.543085244583831 8.997473564734893 11.791621342188945
Al 3.8882047381493887 5.460572119358368 8.98439547626452
Al 3.2359891953117748 8.24430373706405 7.643445808403656
Al 6.055375281917735 6.364365654693893 10.560688991765705
Al 5.29360774986108 9.703298312715814 8.918792539279123
Al 3.5507952707750525 5.863856990402959 6.396222498303349
Al 4.23358289923722 3.286142405329626 7.445135505465633
Al 3.087452651781496 8.422728875086062 4.98733973592857
Al 6.473699434491914 4.310416078976867 8.940489560569256
Al 5.240723553850659 9.764534064371615 6.306177151616425
Al 5.731472329281918 7.100259498620836 7.782596337420836
Al 7.615659708258615 8.668647771903746 10.152742566952528
Al 5.297970883402373 1.570002757537571 5.486729253373464
Al 3.7025885579836078 3.7792595564209583 4.804472900923468
Al 8.777611570670352 4.238190386131164 7.397261973588647
Al 2.917271482526709 6.129063127741474 3.7663948624016523
Al 6.10702290261882 4.640581563870915 6.046189366351283
Al 6.97840757928763 2.1913530359274866 7.468359826305235
Al 7.579196592583397 9.126651615689587 7.4786088357734775
Al 8.167383382073071 6.42612273486218 8.757159423255757
Al 7.988066269219017 6.817240458509743 6.108006467676721
Al 9.934393708576929 8.579952465185928 8.829001091941818
Al 5.480233404928908 7.10743889474345 4.869681881413412
Al 5.123335975978523 9.658381869634256 3.6279498891566746
Al 5.972469347710448 3.2463016587921367 3.4206309100435908
Al 8.101682703572958 3.002753178983185 5.03110126562075
Al 7.545309638680177 9.466230934513353 4.820367984643974
Al 7.499221321594925 5.445981037179232 3.8048545037930737
Al 10.492362311599548 6.358846941410137 7.3651693785423085
Al 9.870826766666225 8.9951467513123 6.062167383712829
Al 9.893237854388733 5.093670866603735 4.965701650668242
Al 5.147207680023443 5.582948909993292 2.502610468846131
Al 6.789427890947464 7.8289510273010245 2.5625580956324625
Al 9.240455303974592 7.54100737965874 3.743235935917565
Al 11.62778685069994 7.226343899045534 5.076912816752613
