30
Energy = -92.99476277 eV
Al 5.506160497267911 2.856875099215235 3.7212008902244333
Al 7.599254170497152 4.3552190978648255 3.091495818528268
Al 3.953723177559517 5.184727862379296 3.36534606627971
Al 7.007235674649196 6.86240514604183 3.0040192648884285
Al 6.00639857855799 2.5867635792829424 6.347979972280371
Al 8.45102293592199 3.523743148704439 5.420695833859619
Al 3.508747458470479 3.557225609157396 5.534627941180883
Al 7.830321535568278 8.873418623035832 4.72296536731611
Al 3.5003042359639562 6.154708420720569 6.203633909621057
Al 5.931426514776646 5.175602509860987 5.224117103826404
Al 4.735788502935329 7.581332578485087 4.303502751087465
Al 6.830995763240199 2.6968175079607875 8.883250997050359
Al 6.204080776652091 9.318076918199315 2.6076099935383583
Al 4.658939435872015 4.273359242284566 7.881931061409956
Al 7.244406677559824 5.023921304801663 7.565230136981297
Al 5.3041066044503244 10.069399466286258 4.979341442552822
Al 3.8006044131265773 8.668732966135613 6.8948814426978755
Al 9.274741772295018 3.220298882051002 7.916059862559754
Al 6.118829083425259 4.889572118107271 10.118237196994608
Al 4.760779874078603 6.807431428702156 8.815051783316218
Al 8.494714596164306 6.255681770492522 5.3550005034778145
Al 6.335613095175756 7.559332661039775 6.729881114967138
Al 5.475080270070696 9.33415834157315 9.16390391999078
Al 7.573713291090583 6.9965189662242615 9.299548326171871
Al 9.825902444375542 5.844308782535292 7.873861328518107
Al 9.085889884320494 8.408280494690457 6.979208751704434
Al 7.080809121401858 10.23951113484838 6.991614900306989
Al 4.550380233210573 11.195979162957535 7.316177465197092
Al 8.158413996196042 9.557991586363416 9.322797161136682
Al 10.224300593245733 7.961290798116545 9.399512900453793
