34
Energy = -105.37729701 eV
Al 4.705874076153132 5.972129000377354 3.662857876323327
Al 2.7126251069457883 4.163486208515277 3.866103978305055
Al 2.185838021962239 6.726129276019452 4.5427250652388205
Al 6.696461887003113 7.693189417287876 3.3601406418317743
Al 9.196774210770977 6.704533975190701 2.864151587435571
Al 5.619521831852144 7.189808462446507 5.961401835206327
Al 5.162510000195021 3.32337255094853 3.204242970883409
Al 8.982734908602586 9.309158574930631 3.6845655273654123
Al 1.3268518434487746 5.438330284712507 7.1339988354489945
Al 7.196628521551164 4.89659325018732 2.8830624533765303
Al 1.6702916931626481 2.9838641884989743 5.97178485856539
Al 3.878191936765351 5.066805636145786 6.236985059094001
Al 6.695265615979983 9.773064663988508 5.021314017847086
Al 4.13770486641812 8.652360408164231 4.190273979975795
Al 3.0055041450257596 7.532975535368435 7.068768903837211
Al 10.948570765497449 6.720715495223088 4.863966431481488
Al 8.384754971155482 7.390556792890509 5.5677007600178365
Al 3.205560561876109 2.95579336129339 8.12897011291036
Al 9.052875646396444 4.725863612621031 4.904890470753788
Al 3.576084159683008 5.505994915777768 8.962694431143445
Al 10.530344659900383 9.155357626441207 5.9342014872545406
Al 4.546113891201176 2.5270595324280767 5.713465623044502
Al 4.593335799305544 9.614926260689245 6.8092450393012385
Al 6.448756548429913 4.540236142493718 5.495508769716506
Al 7.178744402571659 8.989132665472008 7.547669991445385
Al 7.32560318491417 6.091616887887109 7.738518240808495
Al 5.165982435822648 7.633372119345176 8.718598194340961
Al 5.719338028359425 3.725692352893174 8.026109136704811
Al 10.134330921197147 5.60351342878648 7.181361984792389
Al 8.322561540496569 3.5867220464959138 7.400420863756336
Al 9.554612853396975 8.026267009959831 8.14488164792571
Al 7.633545433446225 7.709024669593136 10.033335300332665
Al 6.02055302873026 5.414417540086653 10.242236525935324
Al 9.21075989924225 5.392594219609776 9.676830058651975
