34
Energy = -106.6687893 eV
Al 7.848153349306633 11.578021192102469 7.08120414474997
Al 8.585335318083875 9.568074841281017 5.288002705074146
Al 6.2329214269982405 10.917815182702132 4.8967331654463635
Al 8.786771470830182 7.323559027792691 3.949557423000352
Al 6.378973639471675 8.69927550362274 3.5448989432635902
Al 7.257868069083619 9.277337750013434 8.603386353335692
Al 8.727428409849018 7.298083214559634 6.7266673517332105
Al 6.625456126295274 6.333214751540531 2.423098387969941
Al 8.966721761473597 4.892834746417149 2.8845157991687356
Al 5.191169163074356 10.715120107863015 7.369025954961617
Al 4.007769879018126 9.228507375540328 5.243996016973781
Al 6.293743185621231 8.328656148058748 6.286668849323685
Al 9.802822280328511 9.665803845341067 7.785282075026534
Al 9.22180019868021 7.487693933225257 9.369760925941675
Al 6.954074876880463 3.696454376296182 1.6697703903159435
Al 4.366259693998196 6.882687147325939 4.017422183028301
Al 6.768235632482213 5.870443622237865 5.185929980139445
Al 7.666550882300946 3.1874195159010466 6.960300241978097
Al 7.357592658156257 3.2266615428077388 4.360860971241309
Al 4.9665832579999645 4.236623207422034 3.3560059557118382
Al 9.465316626942274 5.108944312472897 8.103346599338797
Al 4.301622425139857 6.52625993590458 6.65929774005038
Al 6.595247242498856 7.3024411043946 10.206963020890074
Al 2.8668093260004963 4.773461277583871 4.9690075683009045
Al 4.645366623876169 8.57794397984832 8.633022413981092
Al 6.689945497916039 5.753959720164265 7.964996159214769
Al 9.404159076407206 4.874942205146838 5.508327365090599
Al 5.216082600174088 3.7925534865912534 5.974518104393382
Al 4.073683783476217 6.1933069694335 9.34619851801556
Al 7.9704431065001815 3.541524261931403 9.582325727974007
Al 3.0357571383262205 4.338317627582975 7.5894122212155315
Al 5.921371098512882 4.759231728193283 10.717635981848801
Al 5.434468822586295 3.268250887188559 8.514266986788943
Al 3.3888742457072496 3.789954365508773 10.24297266850877
