31
Energy = -95.42107325 eV
Al 9.262121583929057 5.214866592575457 8.196047363186642
Al 9.548693362763998 3.645356303161717 6.0421435299622495
Al 6.428868591134642 2.4540590266651665 7.898616327639103
Al 7.001076325075121 4.622726125903037 9.341231862115794
Al 9.663560159147146 7.8336564641380315 7.775327085167738
Al 7.812661930974073 7.2222898744970765 9.964064926464772
Al 9.666743323095545 6.302660688626343 5.4173174222142535
Al 7.307394746075856 2.311580277350755 5.282921208381141
Al 6.997612957301701 4.639256676363281 6.444838982219315
Al 8.431510931765827 4.441807384487269 3.707778851998207
Al 4.466209702857836 4.3427066526833835 8.42115146150803
Al 6.741974431865907 7.048843929876545 7.45138436961257
Al 7.601573077892053 9.506456485358868 8.164287225313114
Al 5.162048922673697 6.5101012675596746 9.982250279728206
Al 4.576807597491755 3.036088723230502 6.057520630998216
Al 4.986479663073335 8.899299324872299 8.7196258539161
Al 2.978860039834313 6.765672040980231 8.365664877150499
Al 8.675804418846468 7.242490309364615 3.083042781501321
Al 6.56170241855125 6.762662917646798 4.554840547013541
Al 4.514637886234031 6.108505781195867 6.0567991180172625
Al 2.35810650612282 4.639589660748994 6.750181660103446
Al 8.418987822984546 8.7938049125199 5.555032258638358
Al 5.7161236002020415 3.7071724722927106 3.600672108771523
Al 3.254344392593669 8.81329293651418 6.614732536805208
Al 3.0167279611378377 4.239133112430267 4.178956704791266
Al 5.869085648174025 9.516088403899184 6.085555403582383
Al 6.726772159306927 5.684243172019342 2.0097808578032503
Al 2.144690294282849 6.926973431848841 4.961720835594175
Al 6.7809740265550165 9.216075767868114 3.483339930722793
Al 4.291335998356073 8.504993025246927 4.126655339288994
Al 4.244024680336818 6.229681625963203 2.864267527605162
