32
Energy = -99.26580456 eV
Al 4.662898456803971 4.78146361333193 9.273267696992162
Al 2.3747434257473126 7.334614328542064 5.662831929805225
Al 1.803911638700226 8.192258824550528 8.172261002432156
Al 2.7815067305153005 5.67457860528916 7.649051648190496
Al 5.448529215453758 6.3193067638972815 11.27926830766477
Al 4.330744341112522 7.590704232514062 8.917846718036271
Al 7.328347856301926 4.542955070186796 10.277079318025004
Al 4.967341339914871 7.457224155008829 4.66606621633297
Al 6.235192493177969 8.514319416600907 7.069360039105773
Al 5.526068370492062 10.255388851015752 5.027678130767831
Al 3.4087470992234024 5.085256835593944 4.924295442136133
Al 6.335984983744395 2.858812886212817 8.389924584467906
Al 3.9878950177227597 3.3541999849173187 7.038065280194202
Al 5.482626598462563 5.782916363730651 6.739079676322919
Al 3.769426839497955 9.327550088118683 6.689174637041536
Al 4.310570013622611 2.61423258271845 4.406347428643616
Al 8.103898474695628 9.938106696468108 5.778530449158731
Al 7.801832932445785 7.102832743669998 5.28143165988998
Al 6.541561460944034 3.135375918852723 5.76858155060099
Al 6.870814389344072 6.8592389852221425 8.990064145328178
Al 8.739281807067288 8.469117616757712 7.919235260185335
Al 9.509562884537928 6.1009779132087605 9.113193074393244
Al 10.364347257738878 8.488904271994466 5.775523844269139
Al 6.644198009275912 8.80094273872111 3.0817456015756273
Al 11.294277728848018 7.794419595004845 8.182259234096868
Al 5.880837203622477 4.9725614071475155 3.8647247441534285
Al 9.216880871709492 8.86391745766494 3.378096861395618
Al 8.532312584973905 4.484589805893385 4.664918496177917
Al 7.965655740332244 4.8092828483815415 7.346554698622007
Al 10.21383952727486 5.888297412997961 6.455678440257494
Al 7.664475642024672 6.372122737704113 2.5478604105709266
Al 10.051249606853062 6.3830897902636945 3.8195640153487025
