33
Energy = -101.79015829 eV
Al 8.631648906743195 11.529347399506088 9.697077796379133
Al 9.422184605610878 10.66925529577228 7.376765932350054
Al 8.885842837635058 4.84564194834282 6.481224461504717
Al 7.457176277030317 2.5229972401076655 6.595931149414618
Al 5.870420576995405 5.449054442697924 9.645174765830147
Al 4.744901651914967 7.8057197353382195 6.005329094035784
Al 5.955808713510462 8.713861272957375 12.610285525316085
Al 4.3976003727029465 9.381157056569895 8.172682934449664
Al 5.705046793936076 6.047260276556432 12.335653768909781
Al 9.1900786362708 2.7664193005975073 4.646580916988091
Al 3.996353154324275 6.557140724894258 8.1463428003042
Al 8.674505026603997 6.060451558309884 8.917271045946073
Al 6.694055724110225 10.799263121359976 7.779928807419786
Al 7.1876691353265985 6.73223765155108 5.368951010964096
Al 4.9539848992705355 10.641373134153703 5.60353534187348
Al 7.029062239502343 6.466926977134775 2.523488278211716
Al 6.6033887184230675 7.716076835462996 8.05325831124623
Al 4.874799740817302 6.003123207185878 4.0692122804625885
Al 6.030586129428067 4.980964367476421 7.044063390779128
Al 6.644536827579886 9.87353402844788 10.286870993913954
Al 7.636751042368787 3.5373069403132207 8.906856849792261
Al 4.759071473164196 7.8876073005470415 10.346348655801549
Al 5.870247583109435 8.661155856504182 3.718426322411707
Al 9.446173938286584 7.499118316489146 6.718314394017917
Al 8.870738478994094 8.17304333353684 3.6269095259691984
Al 7.5060370895014765 9.37403823554539 5.743356394982071
Al 9.222562891753379 5.218380365307959 3.6902763465066237
Al 6.7481931996636515 4.173853344959456 4.554501201160845
Al 7.6402829159116274 7.335023792037035 10.972533554958146
Al 8.957694043253017 8.731792074967597 9.16608131340125
Al 7.76517526072151 4.53105296030248 11.36422923532943
Al 9.50752637187319 6.703421937934047 1.5328147479576597
Al 10.259022688698002 9.553817675043213 5.268286306015612
