38
Energy = -119.01395068 eV
Al 8.73357418699071 10.660222129842385 5.494148697366875
Al 4.509905076918893 10.19714066002769 3.3831078366969756
Al 7.21277295108076 9.80230744181501 3.5381602331383193
Al 9.050399387924395 8.065759690451241 4.68611828814304
Al 5.87602961845546 10.051731599526164 5.897397050237495
Al 7.888664468360608 8.779003429612485 7.420618593268799
Al 5.7218671726928605 7.795348744211435 2.658205221054109
Al 4.0310753159538475 8.220514223829522 5.201272227872126
Al 3.1224089116507807 7.756014034762767 2.7255346182105002
Al 10.708774057371064 9.248930946543133 6.590925457860727
Al 7.546524367200428 6.065629505955556 3.203123255878647
Al 4.576157693309028 8.612563213922536 7.730946819013923
Al 6.598759000870913 7.3516949216213465 5.496777182498138
Al 9.629608162445594 5.470757106101219 4.742225193967966
Al 6.291783625323264 8.270407215056151 9.79949609638966
Al 9.703989564645802 6.897536984736208 7.286947636279572
Al 2.2073114892754346 6.337464289531909 4.724028412722503
Al 6.312199917820456 10.627767735594295 8.532393530963063
Al 7.674624933910859 3.3400734558831573 3.148600194626712
Al 4.854621668226048 5.598636456504357 3.9670916383367865
Al 7.11616711458762 4.648660329625102 5.6674749343343045
Al 9.369086590966964 1.5725577455033366 7.492247289339666
Al 2.316022233722579 7.122250739731616 7.395966032134364
Al 5.282767732452146 2.89924059335546 4.2292136395900535
Al 9.536679668790564 4.292092554020085 7.161004072944497
Al 4.655301034390476 5.90078669283927 6.653242005232852
Al 6.981181618063852 6.208621663484723 7.988967795180007
Al 6.634022833791955 5.866199727325931 10.807358388234356
Al 3.0707091623943095 3.889732146770076 5.334901525636429
Al 0.7177321289604626 4.886690264717567 6.455616881461754
Al 7.151180642455362 1.944655734400847 5.915351428800946
Al 9.569216624724868 2.7993228076638292 4.951091992517227
Al 4.189969267525558 6.57905394614058 9.35668155876508
Al 5.059151767913521 3.1376553367687166 7.039130614360783
Al 9.051619285260566 5.46638158086739 9.557570665460153
Al 2.866935020680529 4.41902243364915 8.109189999842272
Al 7.382364044717205 3.41860141521341 8.364851595439461
Al 5.071844352055277 4.071973196275359 9.566024090081044
