34
Energy = -106.9169466 eV
Al 9.559486771266027 7.2377551164717 9.091933692406403
Al 7.183578569758601 8.361762237292087 10.034781959314959
Al 9.93452005804642 4.450205137317133 8.869460081583185
Al 7.707769201717032 5.423662490504117 9.886129807272555
Al 5.670661011969762 10.012919497014533 8.481094872834838
Al 5.417192098033825 6.463864150858345 10.715877068347895
Al 7.984607201130333 8.780235306523561 7.507014341672736
Al 11.789765489432757 5.974774471138389 7.84578115893742
Al 10.240417678635195 7.6121842087004294 6.4505062376286135
Al 7.875096186276385 3.2867628350700304 7.726972065054391
Al 10.215260550338586 4.568505611581068 6.096249701985514
Al 8.039644185870134 5.964293746332818 7.176843899647726
Al 3.2833016080893485 8.683745996565133 8.62174765376096
Al 5.586046924185443 4.482047668703483 8.673516452940612
Al 6.527475180141949 10.562227719291526 5.894298016363739
Al 5.623647994986341 7.263950294338543 8.07562093598555
Al 8.834890733171544 9.399996146841092 4.966762970118007
Al 6.496167398283764 7.73603766936196 5.453752825213153
Al 8.959622347593866 6.341980776065378 4.4903180023109615
Al 3.3870044185551795 6.050044974329593 9.160150048928621
Al 5.497229575644282 5.265327113484242 6.035855041755361
Al 5.485137887728625 2.5272068693967285 6.637219409821276
Al 4.010713609620451 9.222427596466622 6.156692747459679
Al 7.608401609815691 8.174171836039541 2.9425390369886704
Al 7.919098720244589 3.825892971650707 5.0640046877316065
Al 5.136479668749967 9.570920826916474 3.779601486791499
Al 3.035253766989429 6.7371753673957615 6.668528169581164
Al 6.619591440708949 5.707261232760728 3.5270518573852443
Al 4.067045170796523 7.119848801223587 4.317790192189603
Al 3.1649092415467486 3.932877846743308 7.447669678437431
Al 5.550006523688931 3.1849043374626373 4.007975175620851
Al 3.142062134902886 4.61801845534154 4.892314687404554
Al 5.254514860213421 7.49873793982225 1.9100678908009303
Al 4.261781091770729 5.026653660898527 2.4622590556275212
