37
Energy = -115.49391934 eV
Al 5.154833709708732 4.609507809033649 10.278422033005242
Al 6.5656183008503275 3.0398555981109117 8.300599057490222
Al 7.5738061446078335 5.420361346640482 9.229571649696538
Al 3.9399527628348796 2.366202773337978 9.515555035593447
Al 8.41867445667965 2.1311129024526863 6.5375814015743545
Al 5.894781270592462 7.196498637219768 10.261673883378757
Al 5.99009526065883 1.9415278102139972 5.333313860594191
Al 3.3175606790676366 6.8181420293779285 9.744216446644849
Al 4.210052543172328 3.112202175762856 6.90021754355754
Al 5.112246969792898 5.772915519200775 7.772157740710024
Al 8.320514785892136 1.5158171692975009 3.9267760991706697
Al 9.75715143168178 6.874850282811771 8.276576363060903
Al 6.704998452148584 4.587231146536443 5.921784520911733
Al 9.264176387530808 4.424242017542667 7.337018524324897
Al 7.209307592618127 7.5332644086703775 7.634295374616218
Al 2.6185791732624892 4.588099934827338 8.476298186363028
Al 4.850037708952137 8.670048344091734 8.237814085089404
Al 6.640085453988064 3.516928525921674 3.1539763590902536
Al 9.0821261026927 6.412015420489321 5.60516642243521
Al 9.006379846879192 4.074690148740748 4.435697514426946
Al 2.2968154117958366 4.830259590743919 5.821807949057237
Al 4.200209892964343 3.6148190070067887 4.291759252175307
Al 9.245500869987346 8.931501521223067 6.540534923064625
Al 4.726084047874499 6.24410563157774 5.0611394491109145
Al 2.8327249104319656 7.211392699465365 7.114410880918784
Al 4.368085079517231 9.002029809130393 5.566597478167188
Al 7.285815855495718 6.123560697203473 3.482754644823293
Al 6.9445084923872855 8.222309475634724 4.979724381624565
Al 9.412135100964178 8.26669868837519 3.789270396025394
Al 2.5438151356483956 5.409249034227584 3.2368496530577877
Al 6.619723276848164 10.095495035105841 6.829496532893214
Al 2.3289361553534653 7.667823501517416 4.554671586706362
Al 4.9359865413359065 5.367466110856856 2.128056937808388
Al 8.4518457369191 10.696920994944813 4.672150495393137
Al 5.069937646228826 7.95475293759347 2.99004880326177
Al 5.792339097917485 10.581686250171536 3.9782263999284346
Al 7.49984012125802 9.364648095975284 2.2763316037045374
