35
Energy = -109.16095083 eV
Al 6.218209752501651 3.415688576200091 6.847774164174261
Al 4.470928450963806 5.980188700512068 5.549168344906086
Al 5.678389030283743 6.761481511750966 10.240080876227506
Al 3.5745896191730577 3.519682013324071 6.347134081165941
Al 1.826402537365253 6.701968132424714 5.353312479518892
Al 3.0157251812002017 6.655328185257442 9.712808434103648
Al 2.0534258974172004 5.219983295318952 7.606946766016124
Al 7.064352944828144 5.343063772234153 4.79475730914985
Al 2.071027874382508 8.063772028281448 7.5801171062887684
Al 3.461049421229207 7.504277735495397 3.403822150381874
Al 9.789614544697423 4.415298250737268 9.410492350170014
Al 5.377192631686551 5.849478448213137 2.7085640747272133
Al 3.827473221472533 8.812631658683916 5.611604830570328
Al 7.028770447591462 8.782261300529948 9.03838620421836
Al 6.087846618718676 7.899993657278635 4.369102718339623
Al 4.670263549955795 8.137154857469723 8.112615676622172
Al 4.713297861578437 5.24808551286137 8.15386964191075
Al 8.263010500870426 11.255665571211088 5.52466391557036
Al 5.13376911010374 3.5341459480143977 4.202746806231221
Al 8.202736928230257 10.991499090191747 8.130664666598717
Al 6.306642920811054 9.60992720006476 6.480960868494108
Al 8.175684451492241 6.781008962653215 2.6849954309930215
Al 8.469061766185197 9.053891575887084 4.091591746259851
Al 7.351845330894523 4.063460960745519 2.1950297257107425
Al 6.857943635010053 6.8311354666911495 7.004753249575434
Al 8.448821265747567 6.790960063292891 10.49567810830838
Al 9.020885289757821 8.897551369316602 6.75346214166389
Al 7.162827745920063 4.834402071198758 8.997289779116258
Al 8.257621803099552 2.4411914763347062 8.320888285337077
Al 9.395134440304012 6.741042893652668 5.282148681560899
Al 9.702296804292983 8.980389541634382 9.398804475105791
Al 7.78406959505801 2.7401134932675753 4.698434397890363
Al 9.565459481700515 4.5506809313058225 3.7885680896249747
Al 9.590051736650217 6.670188303216717 7.983476889709291
Al 8.895723544504756 4.434553380426567 6.637431469438399
