36
Energy = -113.30816441 eV
Al 7.334421004715537 5.137143084950698 6.423550463254322
Al 6.836928434282704 2.3694611640511796 6.18492892133678
Al 6.827403909692099 6.6623703929715505 8.519109232875943
Al 7.826920589609827 5.9757288071473855 3.800253611902094
Al 9.089709165371245 3.679552745215819 4.956534298288623
Al 10.390767707355062 5.227198455349243 3.3501859345530733
Al 8.667234682437577 6.878156303548705 10.568790101492352
Al 10.407338697540816 9.029859510837097 6.047199716888641
Al 4.7919466585786035 2.1793186857978863 4.587200585852309
Al 9.921520427756908 7.7894894990517995 3.7532445216771717
Al 4.75617448931371 3.8183510507170135 7.009210710358891
Al 4.3714448963828145 5.366975739459662 9.251899802566198
Al 7.607791771993886 8.8311241391353 3.011741822470427
Al 5.2648714938858046 7.936005482322685 10.363153644800903
Al 8.885991269873685 10.728476137069872 4.487161195494886
Al 5.542906694299733 7.45872119799863 3.695412522391176
Al 5.532165654644005 4.7548932961111 4.35231824091981
Al 7.757939141369146 7.945477089669889 5.747158596189277
Al 3.2128187973131466 6.521531210370041 4.28006276677
Al 2.9111218022007246 3.8925138926035667 5.028052250295791
Al 0.7721949424976583 5.502517239117972 5.199721197422503
Al 8.159451693686984 10.259787317393341 7.177613782808918
Al 6.278535604332584 10.139839719336065 5.092955037782286
Al 8.978932846139832 2.7037088704178966 7.622108222651148
Al 4.000628470214678 8.927132292561208 5.556109636088865
Al 9.849943168426705 6.164806186603885 5.9804849768201205
Al 5.032324239542889 6.557046178028069 6.443558385813809
Al 1.7457291199114155 7.781065316909972 6.2043974915189235
Al 2.651734492182527 5.475440696384327 7.2663870214627
Al 9.494562024567099 7.849521004696243 8.127750143146134
Al 5.812884364504318 8.976712086108273 7.562419041802136
Al 6.376836129380644 5.48831584235568 11.020140083541898
Al 3.4499750961037714 7.865839402632837 8.31892601347768
Al 6.730066890323622 3.8038414069047937 8.881898874038777
Al 9.199427837203821 5.184277303001112 8.522043725665727
Al 7.559507969211864 9.167953430016487 9.636469602426367
