31
Energy = -96.09367962 eV
Al 9.890018489678335 8.001605509016743 5.619506222595207
Al 9.786835052724223 5.501219119814632 3.991261935339096
Al 9.844751264449112 7.564486116781126 8.257922698451557
Al 8.589896153772697 3.0127319675381274 7.7667531117556114
Al 7.3276561145266506 5.060515070443254 2.929205837269395
Al 9.407841102676139 7.95983770857097 2.9535486003085234
Al 7.785940897963874 8.791181478839777 7.1010817105661586
Al 7.860326298724396 3.896130417932155 5.34363853560618
Al 8.966230996887047 5.226397742823541 9.303331175790474
Al 7.77030101521244 9.4951206463048 4.468830474321419
Al 6.800159991186671 7.696238879764576 2.5108715143345264
Al 9.47442076643475 5.4810672376666325 6.649995194826895
Al 7.392705293167328 6.746997937533174 5.150053652842338
Al 7.349049916324519 7.415746862414986 9.325983763710438
Al 6.435062433402024 2.598398336444974 9.34013816947123
Al 5.894531987648362 10.474009596003665 6.2627180304596655
Al 6.754346182310338 5.270970421949849 7.581217687834761
Al 5.756191716311329 2.7381526424302063 6.730781154323617
Al 4.974246191453162 8.852858145839207 4.086697414085346
Al 5.704150874674173 9.467828664230838 8.795405758065389
Al 6.4886544768847925 5.040883811562726 10.403777036267117
Al 4.981899568348799 6.139288403843155 3.8179219602015815
Al 4.366749772101371 4.2295648112147 8.721916096102108
Al 5.240022700909663 7.551755578138718 6.808707181776459
Al 5.506037043782047 3.5016073307303253 4.179941864028334
Al 4.343858692082728 4.942822474358586 6.0946879391037
Al 4.704990884353179 6.9335492588310235 9.727362113543368
Al 3.3415021648033605 9.741078987290196 6.056689961427032
Al 2.7213937007880236 6.240951967207344 7.769729091102392
Al 2.9556311364411103 7.177976778482656 5.22563233530076
Al 3.0953297964720092 8.759758772491553 8.535424455683982
