38
Energy = -118.80121461 eV
Al 1.555376543838117 5.848120564164506 7.261499525618097
Al 0.8254330915766904 4.259533071583538 5.104532750818774
Al 1.9543062883544204 2.375815560863519 6.657660242279624
Al 2.0653607560506404 6.532198380326824 4.592996391210212
Al 4.425469925166793 6.120198155933638 8.0582470615386
Al 3.085070929241582 8.017183223200457 6.675901754324553
Al 2.909346442625956 3.9512054695162426 8.602451486895161
Al 3.8469422230757515 2.1979371591282146 4.64588143254524
Al 3.30793295648666 8.67535137186288 3.840713013174956
Al 3.6172037973229023 4.6157913412276965 5.931118589829252
Al 4.174940247309337 6.295159470427919 2.500602451977364
Al 2.710455205561365 4.178615145799608 3.195733939748821
Al 4.679946282018333 2.334717184725221 7.236584449397714
Al 6.714630240664931 6.332730061244343 9.390063944081316
Al 4.92561580515128 8.77587294705675 8.715337126063796
Al 6.619774145621553 7.602334775833369 6.933907221838554
Al 5.01949068739289 6.721307784542495 5.017557019813247
Al 5.074950277789064 9.502989502821743 5.623707189799978
Al 5.565623342061197 3.917994543703095 9.284204401356455
Al 5.864431363419691 8.521390809828343 3.0502823928371
Al 6.920505484481509 10.425614121725651 7.278813626000541
Al 7.126362027987157 1.957357419307324 8.070700021085448
Al 6.519491275248427 4.594824642113328 6.7506514433266185
Al 6.828484832753357 5.998916839576252 2.4510336533707404
Al 8.016753184853354 8.587140280008168 9.085189589282216
Al 5.475579388610139 4.238177831359222 3.9726669422071073
Al 8.371360178378833 4.040129665726356 9.450312922733321
Al 6.682669541777334 2.164083786641257 5.34769423224454
Al 8.440352466390022 8.331781901478616 2.4612349066180497
Al 7.905231169220171 6.7033367692589065 4.850384729763549
Al 7.701025465586998 9.485561289409857 4.83767451489164
Al 9.052078302001679 3.4549026200449156 6.800915697170511
Al 8.164197657627101 4.016576327934226 4.224190734222638
Al 8.81802235635617 6.043091602587659 7.634663376010716
Al 9.574175013304227 5.737800399761308 2.696772423448389
Al 9.314585131604023 8.535060092285468 6.711085857449886
Al 10.404007198913678 8.075300650113903 4.286142533665913
Al 10.319413396553895 5.42830255911358 5.3846074761519365
