38
Energy = -119.05220119 eV
Al 4.357518548915973 4.1496581043823 10.940429387332689
Al 6.072979742971859 6.285306276324669 10.296842019282998
Al 6.681892097318157 3.4560445453752426 9.451014692757322
Al 7.08544026135605 8.568674231347584 9.04400022947179
Al 3.2450910472582266 6.5870809659245415 10.040481759673254
Al 3.9892617443027487 2.3248892103310834 8.777629727003067
Al 2.135626055458877 4.259196526552509 9.054307841342675
Al 8.959341069229453 8.117331839143123 7.2313310672501645
Al 7.359000803785089 5.871895668561486 7.928527912577975
Al 4.720596906263198 4.818710687976887 8.247403991385207
Al 4.9593724593280735 7.344405179218407 8.006351158536358
Al 7.6922407881303405 10.211897286321424 5.860223456319926
Al 8.380270535580292 3.255224036023815 7.42967390938624
Al 9.712620977585996 5.586975802767812 6.426885495631027
Al 2.769029444996808 8.778946508209655 8.345871782885736
Al 6.450083446812779 7.872718550137494 5.8041431425718
Al 5.231353449672208 9.90653974554935 7.325199613711545
Al 2.4590481871713044 6.213515841177837 7.182407602229785
Al 3.101353050342377 3.5877094497074333 6.332046194168288
Al 3.480518491086614 8.267079833220238 5.780235514798216
Al 5.688506505736366 2.5760310093983585 6.831745711797693
Al 8.971026338038795 7.8158406541655125 4.628775212616243
Al 9.575793148899756 3.13684908345652 5.000180438299011
Al 7.312478167713685 4.617113686883918 5.414793317728169
Al 2.8553515157196325 5.390889444512609 4.14595367968144
Al 4.928732133850286 5.766632299098914 5.706734870956036
Al 9.38817830707534 5.349982611405339 3.5158045953829427
Al 4.905043831680083 10.222559906178699 4.602459786244671
Al 7.213933466272698 1.8248299236002672 4.875787499699397
Al 6.822913186371607 6.296641394836042 3.5022425184630266
Al 4.395084817175778 7.609366812401978 3.376164169786314
Al 6.966536581773044 9.030887005209092 3.3228008778607028
Al 4.922654064572769 3.4150771730613543 4.273588023483645
Al 7.33368643146626 3.5727683551166476 2.8606785154138987
Al 8.850163153689175 7.583825719968891 1.8960504818505832
Al 4.899650843160672 5.043191997022815 2.032688993097792
Al 6.0132654718293965 7.48815305465841 1.152992423173867
Al 7.65783074146476 5.3056571164712905 0.8719831456095044
