33
Energy = -102.53411767 eV
Al 11.189476349543519 7.268763460013979 6.641856961109097
Al 10.500922358117148 6.822188134500564 9.15607785777142
Al 10.429424465880214 9.762750187895636 7.13843489265093
Al 9.815068219605825 5.850757514722901 4.942500361828276
Al 8.964960582997572 9.085327249578654 9.27082996386882
Al 9.319004755107208 4.944226063386148 7.582833943170997
Al 9.001538797190827 3.2462739254559256 5.610171672618027
Al 9.451393852293378 8.73161351962889 4.808099101125524
Al 8.042273065046428 4.413864360410161 3.3109755743928058
Al 8.495088875142919 7.502288761664837 7.079359147760013
Al 7.921315813959324 6.368918224302275 9.511460151152548
Al 7.8062458935643235 10.101724993403709 6.606226573569373
Al 7.189335354155429 5.457902243029216 5.604420512434882
Al 6.450262104506831 8.65523035095689 8.781059279615118
Al 6.378106972455684 2.722115738563107 5.709768909750557
Al 8.369108182611328 7.1483375246909135 2.9605609559581936
Al 5.315128189554259 6.2851589538186055 9.84675805288971
Al 6.573306516096763 4.414883442624072 8.027713618744164
Al 4.6434234715346125 2.6041336193801485 7.798830706228902
Al 5.863529185046391 6.3555024040293295 3.3525961914177524
Al 5.0126274651148846 3.65085428833044 10.229753501072835
Al 6.804996415102833 8.211291571160494 4.975732558314303
Al 5.251752101805875 3.7666252684252357 3.420499396418286
Al 5.125207976438779 9.628305107245792 6.594845886411603
Al 5.470676381931909 6.832082927009952 7.004195796200034
Al 4.4102907980056365 4.565491917768524 5.889142420109391
Al 3.658473263425474 8.097264659156108 8.559188507665096
Al 3.4489702329627487 4.992084666626184 8.383457012522083
Al 4.0953128556117555 7.994694345449573 4.684032081427075
Al 3.214612901159498 5.61291982479328 3.73747374279589
Al 2.4190444983572825 9.270660764390167 6.368981984881374
Al 2.5696947132159162 6.477626949954975 6.50496189245521
Al 1.3165461197190125 7.675255764894093 4.424319518930336
