38
Energy = -118.52369957 eV
Al 4.92818180532601 8.933026991278302 10.023418011844337
Al 7.373027617217976 8.075505386066393 9.119607855476398
Al 6.124131079487491 6.640830380953812 11.241877030565602
Al 8.810884530449146 6.094215748718155 10.26013923220546
Al 6.008595619698113 10.012477036505773 7.671877505826803
Al 3.774477302995526 6.468086015024674 9.678906318164255
Al 3.262740359076602 9.314959989187322 7.932264299428078
Al 8.915212668429824 6.289179982096885 7.571687168331783
Al 6.336624453327868 5.509771866422494 8.80275037912105
Al 4.481556723901799 3.8752646172049614 10.014951512845958
Al 5.079474709404703 7.376943792573498 7.417394511296878
Al 7.452785044774665 8.24900849426159 6.294669276583444
Al 7.091601161852463 4.025166629548986 10.920683062505821
Al 8.20207200822667 3.662669350998516 7.99777781111806
Al 5.008025288258193 9.096541071469106 5.363263245914664
Al 1.9251840417798471 4.766769394102825 5.494929127302733
Al 3.668619462174197 4.969109796714042 7.46755326510958
Al 2.6358949590034464 7.689708484874693 5.847270817173719
Al 5.6207037452322846 3.024785712560165 7.722381972795435
Al 1.6639125558087309 6.698726579455014 3.6325862058213074
Al 6.613463454284717 5.404158997533815 6.2121855573201
Al 6.951537278424975 2.6541001581260395 5.3746966222057155
Al 4.439230558118737 6.073548697034641 4.508345890252247
Al 9.319539157262652 3.9725594931479296 5.555274546722824
Al 3.9909531528037316 8.31560912497278 3.0550789412152373
Al 4.354305009811537 3.479374783498696 5.3427013624916375
Al 2.9664064856475907 4.145983984713109 3.1245307502647828
Al 7.119254841944451 4.945422611358368 3.725754121942794
Al 8.967040499209267 6.657162718388157 4.853397143747095
Al 8.32817925643593 2.6357371184705793 3.052543987731823
Al 5.50488864670554 2.847778343760211 3.0098252552880793
Al 6.6452418173370384 7.6861553442579655 3.7702062420207585
Al 2.9519844853715895 6.382008360549816 1.3467635494102776
Al 4.3629611459625295 4.096205271974509 0.8430656384697613
Al 10.134047128984005 4.8351758539438165 3.1283438937531964
Al 5.615390211117093 6.442310892527877 1.7341041118557092
Al 7.178853113521565 4.201669786331223 1.0665989081209535
Al 8.354554045887157 6.614952953204398 1.9837713872887133
