37
Energy = -114.8170203 eV
Al 2.7995813777866645 5.515049002300693 4.814613086700128
Al 3.1769671579588192 5.153016907081208 7.520226965725091
Al 3.608865866642669 3.4938745940967437 3.1505166176328663
Al 4.369906804420744 3.43176564621875 5.71362243012342
Al 3.0944647411541704 6.7604869674079815 10.631362022239296
Al 3.72731907459035 6.1333063283508285 1.9860079045224568
Al 3.9513506697981726 4.298756811942263 10.247794139184393
Al 2.8113915555635227 7.715739043075909 8.248006444579353
Al 3.5314233745229253 7.939759487827508 3.9592098890796823
Al 6.628694859019922 1.9099370693114297 6.385014093094634
Al 6.15404266020663 2.721991856894369 3.8588591017916496
Al 5.271337340609486 3.424224222132235 8.171650650114893
Al 4.714083516420701 7.085860767814169 6.269144826235292
Al 5.49234472062934 6.4435725646110145 11.646944588838608
Al 5.543015460272533 5.554052275852724 3.8675415839311875
Al 6.219105612902975 5.807293021573875 1.0347082404136287
Al 5.309934132305163 6.327983462474964 8.754036414474559
Al 4.971286773538566 8.739186922837291 9.993656088492024
Al 6.8044768933045265 8.571955570102196 7.776866760242174
Al 6.763326573275901 4.589125800736366 10.19115601790682
Al 5.751747804608099 8.098006668063956 2.5614552605934535
Al 5.479920885535823 9.574738017984606 5.233782774587443
Al 4.358345051010707 9.692752173055574 7.547365620080774
Al 8.042849210813946 3.31322642762421 8.224032327278227
Al 7.237034850843469 7.418666516813174 5.034828652981366
Al 7.0139421770933 4.658739891484085 5.938284751457012
Al 7.481407961789415 7.564001799296821 10.227265170581983
Al 7.801169771170783 4.32501010123217 2.5449078756119565
Al 8.782352249202031 2.8633803299118115 4.769615584051858
Al 8.021987507680683 6.111767656425596 8.155356584478943
Al 7.485792800698803 9.835700599306367 3.516984934696005
Al 8.451344632359026 9.695086200817821 6.056405220365497
Al 8.19678169171877 7.155423867153524 2.229177641456833
Al 9.80715955385017 4.533841059051983 6.686798328750994
Al 9.318357303240601 5.5838377859307 4.307468614839024
Al 9.781405752992704 7.306091484401279 6.408711306912121
Al 9.710269396953445 8.317348704264406 4.009457133317415
