34
Energy = -103.76537539 eV
Al 8.266768335173726 4.67308483775275 3.242723377269267
Al 7.165053962597558 7.065591202744853 10.678797431192255
Al 8.263456683500548 9.639050152925535 5.8268129106122135
Al 9.130823038532615 7.221787265067813 3.422835945721318
Al 3.4136448379596853 3.768963282060918 5.708948678566576
Al 10.951510138295845 10.232331566271682 6.1154542696423455
Al 5.609263089038166 3.346594483913874 7.387238483824036
Al 10.087092727580117 7.640443348556137 5.833914910297658
Al 9.963797793049022 5.96224406527258 8.061374707719906
Al 5.53297423374294 9.427320302374381 11.573349776845001
Al 7.251739753408854 6.584650601125707 5.401439526271348
Al 6.714003476904687 10.426270683819256 7.8413492535694695
Al 3.2956744107087417 4.364171372844325 8.273762074959375
Al 5.574744750604859 5.387209124601849 9.32734967677581
Al 4.805563349528091 5.9884624423642885 6.609855722119573
Al 5.466947167707286 8.420017157951259 6.203348332858529
Al 6.705312980265769 8.928377977375979 3.7561431476192664
Al 11.310207927181459 8.351995158732734 8.118326054604681
Al 5.21340087091819 2.075316993888524 4.918028796403079
Al 5.2645743572440455 8.405080059796692 8.990904446511038
Al 7.737968799911408 9.792970502888675 10.328949015095914
Al 7.691599615477326 4.883117599260416 7.695559947374658
Al 4.530049644469967 7.028131359341963 11.31160938798637
Al 9.570073764947503 5.05225441793099 5.536336248643948
Al 4.048398202579399 10.345624780779653 7.3913083092291325
Al 7.79334888708379 7.734452263914442 7.9533787475055435
Al 5.505814267490136 4.693998196348148 4.220845146119412
Al 7.6247067953209635 3.2115202629753647 5.4924424726536385
Al 9.611927693959458 7.816194221470193 10.033260034184536
Al 6.494003536896354 6.618339213771147 2.5964948377179478
Al 9.345749848182347 10.167760521131566 8.331746231564198
Al 3.05790622977207 6.784297925515066 9.146669621645025
Al 6.792510808084326 2.58708940110616 2.9466039268284043
Al 5.7645764879967825 10.930475720239121 5.2780270161822465
