32
Energy = -98.65680451 eV
Al 10.852448619211305 5.339966539397751 7.323072991833761
Al 8.808313884475046 3.778165022136807 4.493014103811268
Al 8.581106095123323 3.989791408353752 7.191022277806581
Al 10.400815724555905 6.214242818439028 4.7867820297503005
Al 9.205288605604279 8.541610282647138 6.1228000387272985
Al 6.483971200510156 2.684792377236617 8.105932886108333
Al 7.275143412181069 4.598141188361474 10.27885260363603
Al 8.814674955338347 6.795871218653093 8.160847366853831
Al 6.463245814069167 4.656488512422666 3.0679720459421937
Al 7.831384202899633 6.281933402514671 5.238341985641508
Al 6.308317379494118 3.9962325119327335 5.653796005546803
Al 6.875599398704858 7.544021718178885 9.770468992262089
Al 8.944022318252157 5.617814632826404 2.564962514553737
Al 6.076238853636651 5.464510197320643 8.055208282506925
Al 9.1596086832418 8.25572718362921 3.4740960841943718
Al 4.615348937841172 3.566827100488341 9.734087816177091
Al 6.641685057327306 8.038062281034119 7.0351318311894335
Al 6.732830722216782 7.3721683898487536 2.3078953565583467
Al 6.825291756411206 9.068104664717964 4.576331381436886
Al 4.829298869350905 6.124649372452443 10.606695338514783
Al 5.423609809787417 6.763926584575106 4.403180411581609
Al 4.042220655538198 3.4979036319368007 7.010575828921445
Al 4.180148996936817 6.169382340731063 6.439354390469455
Al 3.9139137124397063 4.359396153076071 4.290055131880477
Al 4.40530130381974 7.928122026405126 8.522853239929725
Al 4.151054513824022 6.106195545186842 1.9819801419012408
Al 4.2886934328640605 8.929745985385477 5.8494657862127974
Al 4.382320588023519 8.930740258794572 2.950268779796849
Al 2.9437801791405027 5.530039310060832 8.610670353474722
Al 1.7252736880744353 4.895525391725633 6.02387021447869
Al 2.751628094406895 7.032093876789328 4.257231278092262
Al 1.963829455522581 7.776915573309734 7.004489333606097
