39
Energy = -122.34533866 eV
Al 7.09400486778788 0.46902226188237983 4.542319845382069
Al 9.613916361019037 4.8375338116074005 5.399850186724872
Al 8.704198446597927 4.478455489096348 2.8875460318639643
Al 6.520829608007464 2.6269415221682775 2.6741557448906286
Al 9.578636180839263 6.290464581280246 7.794223231431778
Al 8.61381372121892 4.767328697823976 10.066994910920105
Al 8.31400712657231 3.7291974335565428 7.517271343483428
Al 8.290741334126393 7.443224378802395 2.8919432561761362
Al 9.105203006851621 7.514492604547729 5.399944286098132
Al 6.2784707679226806 5.664636848630713 2.188841496542325
Al 4.8278135469470325 1.8480336995468876 4.862780737327736
Al 7.6028713391906075 3.068173039069953 5.0496642477513864
Al 6.945207303475615 5.907831075759717 8.211632684214887
Al 8.156856024591141 7.594090891134278 10.022213475930632
Al 6.996828000220494 5.74775705731233 4.852321093402589
Al 7.538153642934513 8.482255759643119 7.4719693695866285
Al 4.554043333350595 4.226073884961591 3.7003396037933065
Al 5.817084645461338 8.541297706575907 2.372120479081318
Al 6.6272560115126256 8.593071762754446 4.933748694502794
Al 4.8454352002112895 3.600387592898634 0.88037025441974
Al 3.547056265493593 5.792960909669461 1.5413447460085865
Al 4.162737026607979 9.545546569544653 4.318070401706805
Al 6.173009669880976 5.865029796166048 10.873019451621674
Al 6.408342746933212 1.7141157929345379 7.0549000063526615
Al 5.2333915630654335 6.996260407743216 6.57672626350917
Al 5.531593539234082 4.263891826221817 6.459838412368786
Al 4.493026097590828 6.83173192292542 4.042277108815786
Al 5.059026866606093 9.62846311964664 7.0533760348611985
Al 6.107585545831798 3.457731854024736 9.141857823262464
Al 2.51985732216421 3.100339919008352 5.287144762618871
Al 5.418865132690255 7.970668952981046 9.29066101342178
Al 2.082708809070535 5.410698321077677 3.8750340772036433
Al 2.6282166642177223 8.166017662427967 2.391146798593422
Al 2.4986325089697687 10.237605868192652 6.391531567051794
Al 4.228841907009643 5.485146699679574 8.780231149103082
Al 3.708759139808842 2.8405121551075245 7.813553523597401
Al 2.996005553204951 5.5330280539592795 6.409674830674586
Al 3.030763000559191 7.894156416203603 7.8562192235160095
Al 2.136692601117048 7.835183601745981 5.133781143495148
