35
Energy = -108.46533928 eV
Al 6.523167206701402 6.522397663788137 4.940021168004428
Al 3.758871368522296 7.024891419558229 8.339934696331516
Al 6.52261754215566 6.522329119693475 8.801838322597781
Al 7.469535899875791 3.8779081487628746 8.339702763466057
Al 6.175376707584878 2.3605012516661743 6.369099083543158
Al 3.2210981600066444 3.723120635385706 5.692910325976141
Al 4.723834429184006 4.6099437352249355 9.558547323302786
Al 7.28204062202857 7.98928219043587 2.7489664340785014
Al 4.92509948436763 8.69427450003596 4.182323204672763
Al 7.9516665604468795 8.980011892118483 5.378732893205867
Al 9.203586025104125 6.82178623688469 4.181346950596892
Al 7.413595932504942 5.13162566252037 2.7495618929225425
Al 4.87445724785333 6.446800085260537 2.7488679490224057
Al 3.680291460213688 6.531946047756789 5.3783239747091995
Al 5.77808703111691 8.252930896987628 6.879795598335896
Al 8.393834300483071 6.303729436028705 6.8795538752324195
Al 7.935752040032844 4.056147978742554 5.37996451217979
Al 5.441768219159451 4.051893735632047 4.182196826892459
Al 5.396206807679821 5.012481596264861 6.879913592611718
Al 9.077945266146044 5.921481044774284 9.55794815554726
Al 8.340267929220976 8.665699431729642 8.340545273609026
Al 10.598323700852802 5.0643577607651 5.694916940162508
Al 10.30054496923377 8.30516691368208 6.367366214668422
Al 3.090746286759893 8.902678989857371 6.36781190184637
Al 5.748097929810542 10.78245184552305 5.694236477437859
Al 5.765484796130352 9.035290955196686 9.558360792949738
Al 4.90003942434313 6.8801714997862184 11.036558070878241
Al 7.644600821058615 7.748836483101915 11.036238769765886
Al 7.024314482530663 4.936324937928522 11.035467120570793
Al 4.439406910788249 10.52596473445388 7.910059228688335
Al 4.093175337907648 2.717844109952488 7.910082669988599
Al 11.032061123803606 6.325754139239422 7.910626054433037
Al 6.9559917046437345 10.529992958946703 3.4210260324700834
Al 2.8370092833068763 4.894989990229419 3.4200462832029577
Al 9.776251471431644 4.144140454104183 3.4222571081183197
