35
Energy = -109.96888009 eV
Al 2.977683295108587 7.521812952844081 3.46616418104172
Al 5.7144985076681305 8.22311090145044 2.7176308701222323
Al 4.676330572461848 5.5675890590469335 3.097501528201989
Al 6.059067684320872 3.4710554900971258 2.26654924966034
Al 7.258551900017885 6.011610423026899 2.039551935526439
Al 4.003333122020854 9.821830017094342 4.317827333710184
Al 2.724025148237583 8.235730190336652 6.289619856257453
Al 4.6074406633264555 3.4410475935734066 4.845571531220033
Al 2.9054276180393246 5.5754586350136 5.211589225663126
Al 6.678881356457926 9.763948358047463 4.797733544598173
Al 8.705963609180158 3.2157113424196617 2.65880099135893
Al 5.181951652473875 7.304430414376421 5.3127858849872345
Al 7.887739141300404 7.496516143204077 4.283410428439044
Al 7.037053638563059 4.886135962229829 4.4810385444242735
Al 6.955661992848017 2.0686541287224833 4.512529412675318
Al 9.594347653027127 5.577282358848202 3.4863344348014067
Al 2.3235799687786938 3.487432952548651 6.7286321420282
Al 9.260416488655103 3.602373552862307 5.497469311785081
Al 8.725725803185783 8.779532039654715 6.47291317243284
Al 4.947511426290684 9.771729904809812 6.86648617436276
Al 4.6873289759432675 2.0789536352370463 7.222442449011023
Al 2.320491697709948 6.0335428381531715 7.937926829817048
Al 4.680705898407228 4.896574437034173 7.295047081950274
Al 7.053593146007938 6.315617421704308 6.884681596981041
Al 6.864070723632573 3.447617429629758 6.73482235085901
Al 7.379591452691123 10.986805298223727 7.137717197516427
Al 9.743442583377 6.332313344701625 6.019998812111961
Al 3.1746627295635634 3.2400987953256677 9.265962138096866
Al 4.64555434498224 7.510699104760433 8.157133579982016
Al 8.734589299096099 4.409183193656309 8.29463477192066
Al 6.951850497113264 8.787994854878185 8.590914043171242
Al 4.154801920248326 5.601077406081035 9.984844927051173
Al 9.068906924120048 6.990439440353098 8.568451046691827
Al 6.069823155959457 3.6180952239195814 9.309726123986806
Al 6.677046848170311 6.347633698504076 9.68506858449155
