31
Energy = -95.41937157 eV
Al 2.9080923923195514 6.494753918862902 8.707729781348247
Al 4.688277480616008 6.764309617375926 10.660231465732426
Al 3.7845829251404406 4.99659485729907 6.550034890952187
Al 3.3371927149806027 6.1077331429303605 4.067754186266987
Al 4.672398341083853 4.425035477071855 9.015002251494554
Al 4.098054419325565 9.123820903205308 4.2289843850752735
Al 5.382246386419807 3.9454157893960424 4.721471228283517
Al 4.558019297082117 9.139706682673857 8.879502781085085
Al 3.5700546942176605 7.782117702177122 6.460030693018024
Al 5.773499234070082 6.946495577533659 8.117508213103795
Al 5.1730456609809226 7.72037331444485 2.253926552670089
Al 7.097148294389803 7.853792345494217 10.511629448588733
Al 6.992512709404884 5.129055421674018 10.216410049761864
Al 5.224052042261938 2.590252446532019 7.116821206701111
Al 6.817766074356569 4.877397529375818 6.986121301074347
Al 5.7320400904710125 6.811011826151582 4.798099358662349
Al 5.757219340696283 9.507474439187646 6.395687015264413
Al 6.001769342687633 5.181345605592765 2.459871810814086
Al 7.415339529229224 2.8234306677650767 8.804372808398856
Al 7.601549609668759 9.183483470846346 8.267784335509402
Al 8.667470361122431 6.367613403412901 8.550716783752154
Al 7.864130129487146 7.116815374383041 2.771308487209851
Al 7.846130325723633 7.388382723873697 6.123510734583669
Al 6.79213286523259 9.362852150409887 3.875849273263953
Al 7.616676684643952 2.6475060936901604 5.78912679946013
Al 9.413320472421468 3.871892325616995 7.398902222362416
Al 8.499174618733138 10.076961037552598 5.806727141866399
Al 8.110021180386049 5.073718076196058 4.518189408331355
Al 10.06491454835768 8.372837118631056 7.207310378681546
Al 10.322913556617706 5.970113878704569 6.014662015927503
Al 9.86897024542683 7.982281609845861 4.353542024108532
