31
Energy = -96.53124387 eV
Al 8.544214280115424 9.555708041322376 6.71368120962013
Al 10.229443453098167 7.770233266644255 5.563344706999936
Al 8.926904571690352 8.450392427621733 9.300490153267987
Al 5.919503958527588 9.526238375732142 5.839966734821245
Al 7.666457826388757 8.025888662022437 4.53287383917583
Al 10.487705262737915 6.645307761673968 7.998050728851459
Al 6.418012373116683 9.160018636645388 8.433856617192406
Al 4.988857819068299 7.605307254845246 4.0687052902489445
Al 6.76300541120931 6.480420512438056 2.421517705281552
Al 9.333767200326882 6.242094845746275 3.4220970227956897
Al 3.1858038093533154 9.087206316724991 5.283773170811833
Al 7.659736046614603 7.033845853241851 7.1870706159423525
Al 9.344027402395652 5.22409576424891 5.9462510625412905
Al 3.985755380939634 9.934157212050224 7.713164327973189
Al 6.635498217359035 7.604616864610611 10.638600862033481
Al 6.726723255396952 5.5764617994987935 5.027986830912182
Al 6.196264029686275 3.8437882533538494 2.5828364386251317
Al 8.510284482356935 3.711692547782412 3.8376854425005162
Al 4.7099526663842175 7.340199943308011 6.924335436569006
Al 8.101847757140188 5.6744824668662615 9.57944399943659
Al 1.8907808207400305 8.148079106200253 7.595156365367282
Al 4.062666409735843 7.962543873352489 9.617965202006403
Al 9.736740165589078 3.9598138366223607 8.302399222281656
Al 7.097628397658767 4.349499637029024 7.423705775232968
Al 4.2503475537487505 4.775597418878419 4.101626883695303
Al 8.73222968017766 2.546144154752075 6.280476155109765
Al 2.5805210527206697 6.323418738554906 5.626285796657802
Al 6.086160137809148 2.9521220148615286 5.295668187078971
Al 5.463700657009064 5.730387186838049 9.00496556381081
Al 4.463797757798933 4.521888334119203 6.7958168572867965
Al 2.823107174689929 5.7597939039988715 8.461646807456
