36
Energy = -113.84491371 eV
Al 2.995348841214564 7.52697675689411 5.188547329294784
Al 3.293234059791735 4.893465211411767 5.732219496244285
Al 2.984351351084077 10.258519159446555 4.668906201061479
Al 4.445620611386334 2.5040728807858215 6.4890275853659265
Al 4.881681792616745 8.753860744864237 3.4336891711231403
Al 4.797072172913315 6.099790648177736 3.6507112771938806
Al 4.763962260179599 3.5206193790332905 3.7598836638576434
Al 3.8293771081897803 6.757782386428169 7.749616806140489
Al 4.740610876985303 0.9819148395427856 4.383134265154719
Al 4.501987109840013 4.231954839208112 8.409608561502418
Al 3.5277022798744477 9.390449358277857 7.203483826009208
Al 5.618272148662697 7.684585923245432 5.944924724895219
Al 6.010470677093776 4.853329422024257 6.014735361743012
Al 4.630842016179188 6.110674577192756 10.31722365627578
Al 5.528422540209908 10.49773805591764 5.585936160447062
Al 6.894759949980602 2.9809467375589964 7.831059226688378
Al 7.223839844226857 7.365239875539334 3.752635964544798
Al 3.9728826826428283 8.759511571392983 9.814701718780547
Al 6.475861086798133 6.431633600349974 8.289559162865839
Al 7.343703584227603 10.126153930802694 3.483155857306176
Al 8.609034117949225 6.501923491564269 10.557941718877112
Al 8.155947615217427 6.605796942610513 6.158832801476799
Al 6.920287468556975 2.2430763861772767 5.091580286593714
Al 6.100192004705751 9.501341625521754 8.051786638568382
Al 8.47242264228235 8.403063857963323 8.448225041986962
Al 6.79603414652331 4.4149724794188225 10.153442547340115
Al 7.315891220999077 4.6217840476389584 3.5687710508764643
Al 6.573847164688834 8.246650999937932 10.373671309607571
Al 9.61714857478343 8.715975886594617 3.946569042042493
Al 8.796416289204226 3.867383504400904 5.767909566313223
Al 10.350999807416958 8.308805117708582 6.537561670804612
Al 8.76845389715153 4.976639231563312 8.253092392369904
Al 9.682654009725127 5.944927312325048 3.952592191349409
Al 7.883397286653977 9.363882630966918 6.040625302794399
Al 10.717541831262656 5.551444665122076 6.451415674966849
Al 10.734336914958623 6.957719908568312 8.897830733714013
