39
Energy = -122.94399873 eV
Al 2.2648180989803155 3.0897677492283058 5.333253187481101
Al 2.270243546591358 5.567943097546108 6.707568420556913
Al 2.780737523807699 5.352763176423471 4.027611718507438
Al 4.881997716441356 3.6830187881066547 4.369791970702043
Al 4.146386300000464 7.915418109487192 10.357317263167115
Al 4.040459188976938 3.4168487528311084 7.303356098060035
Al 2.6067924889080762 7.997607318091419 7.761243141924885
Al 3.918522976052412 5.670224017063972 8.933803718305278
Al 3.370664926045798 7.679069321969227 5.172621470510278
Al 5.02100588213433 5.72137481917126 6.307926779612703
Al 5.177968992179225 9.295692937354207 3.837891761397824
Al 5.092479763945151 6.472056321208751 3.5165848029583495
Al 5.472199927261341 7.916125373876354 8.005199591053213
Al 7.201149268052608 2.6406435947934095 3.857262196232155
Al 3.5411038919358004 10.179544127520781 9.023024063173615
Al 6.684319757510534 3.2908196380450407 6.437117742574502
Al 6.308553225373551 6.336904710435668 10.154619513284471
Al 6.091455664323205 3.9556077621953656 8.929504181297665
Al 4.325201857488719 9.814795058780362 6.37417506071706
Al 7.634150765216875 5.80966738225865 7.5717102087508605
Al 6.976775738750705 8.982852623481918 10.196884417796664
Al 8.387117142524094 4.696777516578049 10.337865709721475
Al 6.587567925891782 7.78867008795541 5.6477091960954775
Al 9.120687758821564 1.9498049314481927 5.6763806248902595
Al 9.607288230914202 4.572920202735396 6.128353524246353
Al 6.114730775446872 10.694165459188545 8.376589872571632
Al 6.906556972817722 10.621804579220063 5.825948273290259
Al 8.710977772988537 3.061786104801192 8.196493826780593
Al 7.673387612904143 10.345187285195172 3.316871806382364
Al 7.3967413246073095 7.5827724198845825 3.022939188339077
Al 7.3129053738665855 5.297295301830275 4.6385296239679095
Al 8.990717439227073 7.244941595424985 9.5394023913015
Al 10.538604540563732 5.06583562874057 8.667993642939942
Al 8.103706477972672 8.91751074737146 7.654210404789625
Al 9.767504771213723 3.6763195310487604 3.5704765090422073
Al 9.966638877214779 7.105594296562476 6.9061667695566875
Al 9.08995085812317 8.947107443293225 5.2040732322384216
Al 9.726012273897249 8.74156115457558 2.585417513885567
Al 9.715745317525988 6.425029980774179 4.049939528394759
