35
Energy = -107.04271375 eV
Al 10.933508905434678 7.8824126691029734 2.9994549509322157
Al 7.667177112516349 7.3704408839186195 6.610167372440229
Al 0.44302735439823504 5.987095235150305 8.698368125859673
Al 5.907660007306311 3.103052242650634 4.816891573436951
Al 10.699121884690538 3.3356583104069686 5.613702234238605
Al 5.883249950617952 10.276412707103146 9.893227314742179
Al 8.37133319133019 10.10895064049688 9.226469087170223
Al 9.758076487375801 7.910216750964411 8.225728661824377
Al 5.095779545219391 5.843503891461276 8.728384766925878
Al 6.988097563164849 7.818823434733545 9.166485882752326
Al 1.3990594868157367 8.438615147064414 8.287027489516328
Al 6.4935414096729405 8.713318850515051 4.561388702601257
Al 9.295073967421974 10.167141549636899 6.762886972453631
Al 4.36279014029675 4.7079804100804 6.229450117542917
Al 7.422037318944161 11.298951520713898 5.14309792951512
Al 9.08737955064755 9.572624423922644 3.841924504021041
Al 4.8301074105261 7.928235172722292 10.830571913454108
Al 8.549306330167354 6.952459188065031 3.994607973964862
Al 3.956249673197038 8.964608882471532 8.391491577515769
Al 9.346160090977849 3.296330327392382 7.949292760109712
Al 2.771111464484827 6.727439399073008 9.903095997392095
Al 6.706364089802881 6.253174447581373 11.529189674517127
Al 10.539204367057092 8.040059582810386 5.701320714249891
Al 10.440969390925142 5.381053478042263 9.310499206703769
Al 6.193693883884477 5.941351477006201 4.627778634465872
Al 9.115925671072613 7.1076761706300635 10.752261297949575
Al 6.917929682136508 4.597511107131783 6.994926324780187
Al 7.76087008985169 5.049564029546464 9.435677382473706
Al 4.881976132054674 7.517860172399361 6.3442994758709546
Al 10.84114640542996 5.571548852426732 4.298221531579388
Al 9.73266321101118 5.65856815843559 6.745811972897497
Al 8.359511339789709 4.177069103390854 4.673958258006972
Al 2.614734918203089 6.2873745095958435 7.183086545925567
Al 6.328878610532364 9.748627906933953 7.199345820958697
Al 9.995365960806415 11.898013473183465 4.803747277835865
