37
Energy = -115.08158489 eV
Al 6.012905606798079 2.0113576599488203 4.68335327293101
Al 8.424376117464723 3.0241546577537193 5.276347480044199
Al 6.567460228528519 2.7763143565388426 7.276443418045997
Al 9.478550427561688 2.807422032959142 8.267699812602938
Al 10.457788873185407 4.4825004458594275 6.172858522699338
Al 7.217190543300331 3.6986061659206007 2.8376387393499813
Al 4.0292674434028255 3.2824549783523755 5.99278272236626
Al 8.710388910448339 5.487392736355437 4.24744174582613
Al 4.540130546427177 3.5156189727284723 3.033462532857133
Al 7.096279124963032 3.815543045746616 9.757615161656469
Al 6.230321929032821 4.754344026276731 5.4463190782188775
Al 10.860185530850847 5.77842132127508 8.53131442556179
Al 8.181320668061922 5.081934094788223 7.661897444447257
Al 6.245290970044178 6.231685269305515 3.177020516244197
Al 8.482315931513567 8.088279890281783 3.9413340218469406
Al 4.769720909552432 4.339166143981869 8.469482598768199
Al 8.851813837187233 5.761209613880595 10.521121045212643
Al 9.99916820661478 7.1434668237030134 6.137997823621869
Al 7.311507256891633 6.996192395681503 6.333671829896163
Al 2.6613765159470173 5.394088070302972 7.018472317296704
Al 6.497290890818705 8.754520754805473 2.1465213365837337
Al 8.883143419305695 7.769465805820453 8.62152874853322
Al 3.767772789685067 5.57963546089054 4.468683774001817
Al 4.090231765591073 7.889949567535362 3.080643966136567
Al 4.881185813182749 6.893427233869083 7.395318819530246
Al 5.782320220611165 8.494320006666882 5.074477827891034
Al 6.356127930056796 6.430507318578406 9.619321034892844
Al 8.442565617006906 9.446576783461001 6.380151747478073
Al 3.227144117027948 5.891695679359206 9.933788337310054
Al 7.370769583427834 10.674160533633204 4.016947873406804
Al 3.0724903909815704 7.875577058138664 5.6216304599751465
Al 2.29128290459655 7.754569892262005 8.268682103675674
Al 6.548235976491943 8.940660235700154 8.414821844304395
Al 4.152351592648519 10.530280571037935 4.422617614671201
Al 4.411412542999162 8.30819278741922 9.972566939896009
Al 6.15645882131175 10.891348140167922 6.447719401018501
Al 4.098617899687886 9.579084482967898 7.502059444881726
