36
Energy = -111.88651495 eV
Al 2.000893121985652 5.762249432008122 5.053092790458839
Al 7.321135139627381 2.6877884799310867 3.081112181104462
Al 7.184331026647245 5.581243833407083 6.517083171900375
Al 0.6420089556176196 3.504850914372687 5.39839773821668
Al 6.129969222556791 10.328599141544125 8.232370843348475
Al 4.400042516104599 5.786397543729046 6.489790200012716
Al 8.184160682420188 3.931966842784096 8.43767569825602
Al 4.532522496546818 8.102592466493029 8.005750258645437
Al 9.808018686099665 4.652473249994192 6.372663292713072
Al 3.2929546970381094 3.2303855117001863 6.460607450295519
Al 7.659946974818762 9.39954868616926 4.485644793964464
Al 9.928191165957132 9.40258863227678 6.055858925391752
Al 5.894258087616972 5.776487925955883 8.911347719133593
Al 5.464266172594762 3.821117649138151 4.772528781362089
Al 10.255561053501687 8.793185814031899 3.4549583341391803
Al 2.838037573324208 3.373273745210879 3.8563381824311755
Al 8.14967792354549 7.370747061460635 2.6544001740861707
Al 4.791425458436983 3.4494336233802767 2.140338724548884
Al 2.0449119059167287 7.332624200184417 7.322133389355062
Al 4.023573658625979 5.8624515331898905 3.349718812845975
Al 6.146876903429839 7.13418855029293 4.585510735487507
Al 8.493621831448705 6.543338122789899 9.155849730573944
Al 1.4006625505794443 4.642984420056443 7.750978288328614
Al 6.471666637983949 5.401934856109516 2.414310755468176
Al 5.709354894002029 3.3413226413269563 7.460467674139016
Al 10.73594890584758 4.951230924727941 8.93318065985737
Al 10.516799295537108 7.188356283765343 7.434965745387772
Al 3.6824912703871937 4.413751860362362 8.918207169669962
Al 7.8018847050049915 2.922148821041338 5.833180309566717
Al 5.455626841435631 9.538134152595312 5.817827485518064
Al 3.474238831950295 7.929801021114251 5.013131327999044
Al 6.633575910341435 8.244027077987539 9.732320574629462
Al 10.73594890584758 6.198041542131457 6.402865040342623
Al 8.696391131401127 4.784187944046586 3.8516912496244475
Al 7.651987084448986 8.342227143473114 7.18468046248325
Al 9.069158691523322 7.007110583038133 5.157730514893883
