30
Energy = -93.04989539 eV
Al 6.501525639010963 10.256244117581458 8.810966146044326
Al 6.481288991392032 10.498040717404361 4.714849637016632
Al 5.019989136967495 3.6705579153744274 9.83689610734652
Al 4.2934321152699475 3.850099762063365 7.217603155831701
Al 8.789987268509716 4.220441963629425 4.533442460377156
Al 6.498083968882723 6.05454519439734 2.0335974993188293
Al 6.54347748496515 5.604610439047376 10.85799761361983
Al 8.089091148304155 3.701598911047556 9.814673466162288
Al 6.5152916978754005 3.5756643459243005 3.0236230238949977
Al 4.254496542353996 8.84598114630919 5.133625991793277
Al 8.812414881199416 8.605513148632731 7.920899615672912
Al 4.204892089726013 8.56768375231107 7.943856034379276
Al 8.734425065979677 8.881440687333066 5.111657946289471
Al 6.556835920980835 2.3917916210828456 8.065546505328944
Al 6.538078554877121 2.935957633575092 5.565459120514335
Al 8.737352300814898 6.697939684057103 3.525871797552428
Al 4.220044194673941 6.098146838965303 8.989300817989857
Al 8.842053767147815 6.137704815550277 8.963477781958241
Al 4.264426640766019 6.66217449998823 3.548660230918247
Al 6.520211075608036 7.751113587703587 9.4155815283237
Al 6.488385468389564 8.310591018939798 3.396901294796769
Al 8.784430833429388 3.8862863157432805 7.19020166737862
Al 4.253764499099773 4.185327343810764 4.561464519025933
Al 4.3381800761841935 6.3872249140096375 6.282036295530121
Al 8.694321051082659 6.421582679985629 6.258217783543171
Al 6.513520286869614 5.749070006295632 4.866015613608599
Al 6.53058374781174 5.357669919531934 7.7496168230245805
Al 6.50518459618309 8.237547674211562 6.544729426586435
Al 8.117437304111618 10.994240886444066 6.804895839909853
Al 4.857986937018013 10.964401744534436 6.81952754174795
