39
Energy = -122.93452307 eV
Al 7.919256479029369 8.163495456829095 9.905049764557825
Al 6.614047140579327 7.637577955593276 12.318781367684515
Al 8.2377125148758 5.842828684668608 11.328380822761993
Al 9.660267546012523 5.877651070205211 8.981763447043376
Al 9.090585422092454 8.409144443746895 7.58170486758646
Al 9.762177405394992 6.090015796549339 6.228887395337455
Al 6.160611954354507 8.885164812472745 7.829087276976272
Al 5.284447544432108 8.893187978908609 10.398798895273272
Al 9.976877282669566 8.53242533521997 4.990989056131545
Al 3.7427674259130637 7.228791147131816 8.57481119917701
Al 7.2885899586577905 4.128822187031739 9.565403251675527
Al 5.732558437990901 6.225255686392775 10.21436216886723
Al 7.614553002823211 9.741491540312289 5.7812457377321005
Al 8.99133385992211 3.8877406167771476 4.589925966610014
Al 8.874100837387298 3.7901383062667495 7.386404366696633
Al 9.854505388831855 8.596955920267513 2.253698406757091
Al 7.253206623040142 6.3808331921553645 7.742108172322537
Al 5.4294665527095844 11.344004074684412 6.515225562211103
Al 4.361125206541876 10.74581636904416 8.854301885867786
Al 4.936872118571153 4.766869500398799 8.207223158075461
Al 6.348760721656917 2.4393728575811453 7.819694413926346
Al 7.55147286766474 7.111337315930902 4.887335492459529
Al 3.5269829468965845 9.205965122328506 6.741470418543276
Al 7.353454294044455 9.301939252010222 3.189504199459272
Al 8.044755318573598 1.7946168771269362 5.775290673061917
Al 9.62282435230404 6.107305059518744 3.39966735113247
Al 6.633721157640792 4.5929590308207295 5.916206042348928
Al 5.131981018830706 6.95153461571845 6.149732277063769
Al 5.094302537633973 9.463136048272286 4.568405579323747
Al 7.674769212463255 7.08931953232395 1.6455021514515313
Al 1.3738041239470575 7.607477045097572 6.768384840490476
Al 2.8608945885983097 5.3895214215602785 6.6038558769815845
Al 6.9754476806955905 4.9843408858142215 3.0513345409185035
Al 4.218179483205576 3.0965289326824035 6.198241976862143
Al 5.554262441906646 0.7169398751969074 5.779370248409813
Al 5.363657410381175 7.264690138247086 3.0750372729016635
Al 6.0320624842185175 2.7492151970728034 3.995395791957788
Al 4.374220475990371 5.026927936920744 4.229470361360712
Al 3.00548528673194 7.4647638863334675 4.484048827216212
