32
Energy = -98.47084473 eV
Al 6.28688805317773 2.7656425691092497 8.848935094529622
Al 8.786439605249763 3.4796011171690253 9.709102492100133
Al 8.01062198953153 2.496841448236834 6.636070199331396
Al 6.613208765031125 5.080321940567603 10.343032154895981
Al 9.03145920550374 6.174553364306559 9.832594031279472
Al 4.996411580392954 4.930689431808387 7.977059411930695
Al 6.167571670992915 4.076541138057167 5.422647731018583
Al 10.204605367873826 4.033757218572522 7.401288613791672
Al 7.6352363646308525 4.926749672660775 7.676401797762498
Al 7.3607359811587765 8.08019451132887 10.905744536148381
Al 4.8799352536745095 7.028871985229549 10.558580941118839
Al 8.89109739298827 4.732207242371462 5.174500164434058
Al 6.9398296705967555 6.902084057098125 5.7313644821612595
Al 3.872412836207703 7.23694083867164 8.111731413420841
Al 9.660976942034042 6.669380630425355 7.037664039635111
Al 9.30131516203741 8.590579840116733 8.899811507267424
Al 6.792984131836065 7.284251377797276 8.38376366173017
Al 7.222936914446718 5.645792328903593 3.3266081857963217
Al 9.886049929440855 11.136193437035299 8.200592043513474
Al 5.485898970000987 9.488709439113375 9.176694492755106
Al 9.842790987939857 9.297417356248252 6.247319705771408
Al 4.599662117362266 5.949884597975747 4.490727542949552
Al 8.001726260379925 10.716585832841242 10.083500126570385
Al 3.1806368118983808 8.140133861528914 5.603414755188143
Al 9.279347763156661 7.433769679191242 4.3314260154164455
Al 3.132928325897386 9.780548791495256 7.703916808278707
Al 5.27008718305677 6.78206459938216 1.9143402836141363
Al 5.179996537362004 8.583108324030576 3.8376129551519442
Al 7.520824203766305 10.280248559347115 7.40340134337797
Al 5.478410338934483 9.064630860039246 6.469381613502549
Al 7.512256113279519 8.23252938440787 2.424458976988499
Al 7.571620285004062 9.576077279775651 4.733215593412563
