33
Energy = -100.69922153 eV
Al 6.151735370476287 4.4152642463372205 4.19605040993827
Al 3.767987976643249 3.8777524115591966 10.379610942505021
Al 6.053870947712936 6.372030586660502 6.379212360499298
Al 9.81231180082057 6.934281738965034 9.045064588289673
Al 11.33548567560224 9.061857295508615 9.833576968238367
Al 8.836550794366149 10.623273525309282 6.161214783676975
Al 6.320927777265649 10.091545177460073 7.397707753340306
Al 4.58205106087308 8.345203860170098 8.319794937555573
Al 4.220569910378643 5.13912305537664 2.378289438719554
Al 5.623176265663977 7.140649346155642 3.6749268151637007
Al 5.116870220365872 5.770045932596533 8.947458548984164
Al 3.023533781975322 6.625759984684849 4.2926820706826225
Al 8.75018320230867 7.086629528852567 6.650021454013657
Al 5.7571255280958065 3.5951295353615045 6.765103301176961
Al 7.800832557576543 5.180646971359388 8.457155893435553
Al 10.72815951628356 8.753625670301384 7.280510341380216
Al 1.3847129617060183 5.116903462805955 5.86325987813774
Al 8.351096585391229 4.362371854182055 5.794867349181401
Al 8.829318341199649 10.027641988767066 8.819103457364566
Al 9.940117268063583 8.638980292926629 4.697575650157047
Al 7.158431660783061 7.800707478203928 8.944244870024418
Al 8.956767482112175 8.545701499735094 10.993259615554715
Al 8.058202044615316 2.6130056444115883 7.750103005493541
Al 6.854948605947021 5.7184811445936035 1.7801104276601663
Al 3.166144242487942 3.983650147642709 7.800977154647477
Al 4.551089761703359 8.623554480125685 5.652326760120873
Al 6.119545045661521 3.1496736311232523 9.429120381099164
Al 3.289527460112349 6.568154128669217 6.997112405986449
Al 7.176773836111378 8.739295288951828 5.148464726441189
Al 7.684132419022705 12.25048336344421 7.910709145826744
Al 8.529134174173281 4.098745717501594 3.1297415002866176
Al 8.446878350517235 6.593268625909482 3.9534584075023362
Al 3.7784150287358518 4.191339561516246 5.157840483532572
