39
Energy = -122.44427249 eV
Al 8.702098769964275 5.289899245803895 8.630439323255764
Al 10.288433990082204 7.016583177489827 6.98980285630467
Al 6.573845206940615 6.425205096446955 9.917446036032453
Al 8.196784325268696 7.961374404970861 8.35866026159865
Al 10.904825779286208 4.429448084770618 7.211473911264844
Al 6.323890424876515 9.198647388076967 9.756840973972007
Al 6.737315714755879 3.632502784379131 9.722799398511475
Al 4.030793232391167 7.382739058805298 10.730119663940458
Al 9.388433147190257 2.5954687657199838 8.858385217917654
Al 7.847527615100892 7.798847369494832 5.698012587454279
Al 9.922931453858688 6.849370938590115 4.282044564243828
Al 4.2124607814088435 5.103030008295824 9.311367806413598
Al 6.255707578052216 5.478943114001365 7.288927557448048
Al 6.380746977273057 9.526581394554064 7.021490570209522
Al 10.61280714859514 4.083199987827147 4.393404251973376
Al 2.386083239315981 8.986204739286652 9.334992197156248
Al 4.746169957028216 7.643368049211414 8.147294189794316
Al 9.741775006219635 2.1244924908867606 6.137526463471708
Al 4.347562419933908 10.549798988642753 8.399227337306138
Al 4.7915885057571455 2.93934002381219 7.828537841427489
Al 8.567283188011746 5.095373617198444 5.937869533998322
Al 7.339466577456207 2.9052730282900177 7.07589660874893
Al 2.1627746257069203 6.73139565341275 8.036935279502558
Al 4.398065162166182 11.13166594238426 5.762754568308259
Al 4.959692874002416 7.449261217377527 5.523597267416717
Al 2.758528068785246 9.050278537654869 6.632790510766148
Al 6.236811901523005 9.697715274162867 4.334567685824668
Al 7.8830283997729955 3.0045860310925083 4.315787459675468
Al 3.6356728712748487 5.046924131942795 6.577414079207091
Al 7.979109221148109 8.117730821199178 2.925465486035914
Al 8.787907256910623 4.891647841791566 2.5526889749678356
Al 6.759496804548565 5.870704109157322 4.140885882213784
Al 5.361319015747599 3.502521441408929 5.2750905432904425
Al 2.219782513746029 6.884864234066509 5.147574707882379
Al 3.382992210944156 9.25165903800476 4.023443593742528
Al 5.180374675368585 7.6912621505442695 2.719040322262443
Al 5.897980093719464 3.829622146469848 2.607245163706893
Al 6.860478481170483 6.209398678763938 1.3483063094458878
Al 4.033582822113366 5.422923270000044 3.859549871762567
