35
Energy = -108.77316218 eV
Al 4.450488036349073 9.638053519795042 8.199181443978095
Al 7.020970167587416 9.755213688757314 7.438826162632105
Al 4.834683908360282 9.381118386453686 5.5732603947930075
Al 2.1414139258152596 8.61926804310622 6.38647324575528
Al 3.247480333266257 7.8542283437287335 9.794015032619509
Al 7.20354412811467 10.156130984023065 4.646558205033024
Al 6.0116297395430065 7.628083865556603 9.241326978493873
Al 9.342032215978442 9.148546732438183 6.25324555429694
Al 3.3515713751413814 7.741289747034077 4.068242979384625
Al 8.499165503078531 7.525950132627571 8.330632912323264
Al 4.24683253383377 7.100556448265789 7.128596235283955
Al 5.859232124949424 8.207543760856165 3.2357517927506114
Al 1.8545030213007456 5.996913369465909 8.154170120256854
Al 4.415360551425986 5.4377098344713595 9.447558194186438
Al 7.016874610111954 7.5182624581881345 5.781195749333795
Al 8.674549677876913 8.106774990839465 3.662492762677784
Al 2.1991496673037845 5.848176273576181 5.497561827546926
Al 9.664117945846414 6.524083845690448 5.995922498047385
Al 3.668177716967079 4.228584650511249 7.1512401168268624
Al 9.158501588312092 4.931891091007804 8.089354060109104
Al 6.387033899300644 5.3925898812884805 7.477857556589048
Al 7.343388347644705 5.387596741158905 10.020842051613855
Al 3.269584083398963 3.596506186282772 4.444285199883815
Al 4.2467129309061535 5.876750515875977 2.3602248931257486
Al 9.45612079932754 5.557303431121782 3.5717722109442134
Al 6.90556827156949 5.8242682886476596 2.783146927140736
Al 7.593773965001751 4.533977258294018 5.217299709939111
Al 5.076961818304807 5.622964727788575 4.959297119261297
Al 5.6523485768527655 3.159809976436814 8.847477565170783
Al 7.87415425632697 2.7238948808046586 7.390958170335998
Al 10.092620555734387 3.671103626190367 5.803692758449732
Al 5.690947028428369 3.4422327942832025 3.338151362825231
Al 5.450508760146533 2.76895943127436 5.991030709674151
Al 8.304069407825555 3.306531814893686 2.736754189861258
Al 7.693973013642402 1.7147864121840073 4.904556226130504
