33
Energy = -103.3528451
Al 4.551796911594769 9.68882010760722 4.0863875066494195
Al 2.668798837091913 3.1331745676094247 7.564219583872453
Al 7.187315692170144 5.061833176210146 5.68418782531965
Al 9.802528778228096 5.313537666879624 4.782202398387587
Al 5.191462622164312 9.213207882594947 9.346484923434426
Al 3.47919915867599 2.8929698923480323 5.0264010802983
Al 9.318152141504427 4.891265825368448 7.502612635337806
Al 3.446904540432499 7.465528759671854 8.305045414351676
Al 7.005810794283139 9.453505204628529 2.9565158236229783
Al 1.8713190296727735 5.668027912744822 7.199375302620459
Al 6.787519886470238 4.64281722424915 8.450984416910682
Al 8.2094359500295 6.848410704504142 9.093870508971102
Al 4.147856698682553 4.6946494721389795 9.118260034311929
Al 8.77030889078426 7.321176578576285 6.4978653281235
Al 5.903951266555054 7.395551763126614 4.780394310602563
Al 7.579737904710615 4.856254950381585 2.9530575257007254
Al 7.503814504453392 9.52410705522625 5.56867318052099
Al 6.085507619603695 7.204711160178973 7.414290853424178
Al 3.120323233212424 7.706444751227461 5.628984608397163
Al 4.475569232932586 5.197886993265642 6.404424186289113
Al 7.673160857400361 9.368384620404736 8.253360203126737
Al 8.591626653170065 7.4756827077673815 3.814171824488044
Al 5.289774963412464 2.667317401276916 7.380359030687041
Al 8.67187373475586 2.858881797910441 4.218724674505211
Al 5.676439618511674 6.663723869722907 10.051595205908596
Al 6.288154831158474 7.009089477826894 2.1272898599131858
Al 4.781795577574849 9.541238363502895 6.732250101468237
Al 7.8872865894536295 2.6035999626112925 6.836920986299673
Al 6.0827396610301925 2.7426243482137873 4.5879898743245775
Al 4.944006141300635 4.994934819511435 3.624777607099364
Al 2.413272758818557 5.331882281703159 4.574623073987949
Al 3.753017966196118 7.319912326011026 3.0549775495471025
Al 10.566253539632315 2.975562960666129 6.105439147165579
