33
Energy = -103.15499657 eV
Al 4.933986315252812 5.329185409044017 2.986945752702673
Al 2.2650294161378715 6.316373438359058 3.0578600291432516
Al 4.3049942554991905 7.965258568540192 2.7090811283032306
Al 7.492685178538281 5.0552602486849505 3.601350576904112
Al 6.8770397147764415 7.579911262102052 2.800531289924576
Al 10.07182669304392 4.789621844923341 4.341422260250206
Al 9.448614489950446 7.129161581219771 3.233326357427887
Al 5.675746450035803 4.024576200083498 5.3429813417334096
Al 3.2166436584371705 5.252228647064076 5.253230361922339
Al 8.287413203590543 3.6597821202828977 6.016353785101595
Al 3.065871458284075 8.050308698916629 5.122161739750432
Al 5.722898872433418 6.86327265382241 5.208733553083334
Al 5.59230665025088 9.501917382651907 4.406353445852547
Al 8.622829344131416 6.557177485153678 5.831167266995924
Al 8.297873496292757 9.042000177586225 4.755272468923283
Al 3.9568813703465673 3.9613524245888088 7.4861118362783206
Al 10.673597071186036 5.017412466769058 6.921113326774282
Al 8.807341309048633 4.219833819759341 8.620830699415567
Al 7.065682832925452 8.125463705925307 7.2520940475356666
Al 6.886775569270625 10.832901706261417 6.284306612316285
Al 6.464041544245782 2.6267510865579795 7.635510411058398
Al 6.530971051452581 5.4497455578312355 7.643779577664197
Al 4.633970899491353 5.315086602128338 9.848197642827932
Al 4.5157555822866735 9.291632698349568 6.926906601778686
Al 4.016266258090139 6.678892682996379 7.425037553048858
Al 4.4356633854655225 2.517960406934895 9.61937921629586
Al 8.066426465405131 8.760642413933255 9.881880703903715
Al 9.30842715211349 9.744018926877798 7.447152301362405
Al 9.493596732450142 6.952386471467274 8.38418564811477
Al 7.486493259065602 6.193962328140267 10.126917727023775
Al 6.7674868128049335 3.6654468280383656 10.135557015741746
Al 6.206461876530779 10.271505153164656 8.771244834455496
Al 5.363007077647337 7.813574448323774 9.477628332867058
