30
Energy = -92.68302978 eV
Al 5.383712061461941 4.5089285785790105 0.9907396242038996
Al 7.472112324842848 6.189751885343203 1.8556019712948135
Al 4.582547310364654 6.607544290087014 2.3455382087870604
Al 6.284414508924277 8.830127853370628 2.4953984813003283
Al 6.467480470100239 4.0475396611156675 3.392619334085943
Al 3.627212288597003 3.6533744694815873 3.0316842380588644
Al 8.774695876896086 8.139779730697501 3.6440568491691696
Al 8.907863537520106 5.31652470023245 4.124402240973875
Al 6.546322977265596 6.879400610753679 4.276462516146954
Al 2.0484531335962624 6.130983720933246 3.7508125415063955
Al 7.94740563436874 2.533066009438069 5.25984656574543
Al 4.155707902555256 8.235526519273122 4.478719201537507
Al 4.478170646869229 5.475281710093806 4.82729429909307
Al 5.089674104080077 2.815265126751058 5.510013616793442
Al 6.766418509974436 9.341915384544004 5.3271055917722805
Al 2.628891337962997 6.762692523552728 6.380218339050983
Al 8.423922193092219 7.136175767454246 6.284412876972816
Al 5.356453696512589 7.477380674270824 6.840979411477325
Al 6.908018397288051 3.0541805413320726 7.9100687928267766
Al 6.878943485410707 4.917032437108151 5.93556838269646
Al 7.3907179550250826 8.863874122984504 8.123629707556299
Al 4.398256497514432 2.269578696765273 8.298827809278677
Al 4.701170997619442 4.873833477467746 7.3986097450005195
Al 2.5219129057839575 3.9802281071968975 5.882274972241767
Al 9.389591043195264 4.462642297293726 6.986007937869046
Al 3.2583471380564752 6.594725679625159 8.927634268369644
Al 7.279957433237892 5.758720724682932 8.443260185529535
Al 5.6109118751507125 7.468252750639535 9.595669803280796
Al 5.212814692166689 4.512958455798393 9.988217871164682
Al 2.445079991466885 4.099894420034761 8.631505543115452
