39
Energy = -121.38325176 eV
Al 4.69015979930016 4.637355228338399 5.995500085965867
Al 7.730589978925622 7.783394549887377 5.995500085965867
Al 8.236864763888166 10.087893458851857 4.592007875714964
Al 9.224810587805019 9.474231368707935 7.3182601851748
Al 6.570082490407851 10.347063469580576 6.674429187323592
Al 10.220973666774146 8.211514771088481 4.681670671202322
Al 5.553738657558596 8.861186674076297 4.751307427200345
Al 8.059190087004481 7.305498299126536 8.62254283640868
Al 10.095158147965545 6.603044250508119 6.877305555175768
Al 7.826044545342226 7.74898358813507 3.0552700842731366
Al 5.197912341825149 7.260580429590838 7.05955708082059
Al 7.22283743640063 5.160169348634943 7.05955708082059
Al 6.210374889112889 6.210374889112889 4.589468136444742
Al 9.028946777540254 5.753100855079433 4.511016145876814
Al 6.86701112066718 3.559563104149484 4.751307427200345
Al 3.3918030006855258 6.667648923146348 4.511016145876814
Al 4.361559691221299 5.1152514790992445 8.62254283640868
Al 2.3255916302602317 5.817705527717662 6.877305555175768
Al 4.594705232883554 4.6717661900907075 3.0552700842731366
Al 5.850667287817927 2.073686308645203 6.674429187323592
Al 4.183885014337461 2.332856319373924 4.592007875714964
Al 2.199776111451634 4.209235007137297 4.681670671202322
Al 3.1959391904207606 2.9465184095178474 7.3182601851748
Al 7.4955113616891476 4.9244132747793685 2.4123809320775593
Al 4.925238416536631 7.496336503446412 2.4123809320775593
Al 3.128642657570043 9.29403096880813 3.741160128460539
Al 2.805928131490186 8.500004730913728 6.3738653923939745
Al 4.024045480570113 10.907501149999996 5.877139603210837
Al 4.35573835608673 9.668103270627288 8.304861400544484
Al 2.8995364457361217 7.40615774497993 8.927913586518502
Al 6.953329224723178 9.691556844787955 9.250307593394739
Al 5.49232513589778 7.3885263354610125 9.781080498105188
Al 9.292107120655734 3.1267188094176475 3.741160128460539
Al 9.614821646735594 3.920745047312046 6.3738653923939745
Al 8.396704297655663 1.513248628225779 5.877139603210837
Al 8.065011422139047 2.7526465075984885 8.304861400544484
Al 9.521213332489658 5.014592033245851 8.927913586518502
Al 5.467420553502596 2.7291929334378255 9.250307593394739
Al 6.928424642327996 5.032223442764766 9.781080498105188
