33
Energy = -101.29620573 eV
Al 7.426295760787781 4.081077354301847 4.43120720686748
Al 8.595940445361922 7.788376828453426 11.28917336396258
Al 4.949055986571197 9.772115496879579 7.207462821000223
Al 6.070153797479835 4.421843472865838 8.851668694104271
Al 11.179045291961986 7.411372521085436 7.612983958128557
Al 11.049557285904475 8.12452111461938 5.035095407797513
Al 5.992232364232475 7.220005337328267 7.4392108933432555
Al 5.167109828091692 4.891633607592237 6.201192113261937
Al 10.777462845789733 10.141022599921653 6.978981571224735
Al 10.335660368237358 4.816521648641255 7.628321868502746
Al 8.57031938686718 8.045922651513683 6.561914638535108
Al 6.418892322375304 9.17303170899846 5.1445337977524686
Al 4.933101226963874 10.196231342693604 10.801795875402318
Al 9.500116185318399 5.883203369123726 5.013938469556509
Al 3.1939781500751407 10.96680733218559 8.942482293345783
Al 11.244570624182447 10.658807145352988 4.421804414520755
Al 8.20823001966074 6.3090118788897644 9.060716225795622
Al 6.771552840939504 6.647600989179223 4.711378215012034
Al 3.9317570741494308 8.283304305903787 9.137186007881501
Al 6.500039816524397 11.829133299358167 6.057282036291274
Al 5.994237222395428 11.680297892431886 8.784367243992248
Al 6.592655147330212 2.679909018752919 6.786287492762445
Al 9.630796823881857 8.952945930773142 9.067617862101594
Al 5.743676338556706 6.602794766397875 10.335317152231605
Al 8.706013650877114 10.53809162812108 5.03106828595821
Al 12.175786776949918 5.617252033148789 5.766905123784851
Al 6.890425126700719 8.974677706555909 9.34783105518715
Al 7.778640001752272 5.125798678930831 6.829280037234033
Al 10.630344520766057 6.600800409328435 10.110349899574034
Al 8.196815587100586 10.651452208455868 7.714102190024348
Al 6.218529422293727 8.415433444974108 12.132472621002337
Al 3.7504288737266456 5.751930104249946 8.352925822618369
Al 8.494710761447324 3.3652040482425245 8.831277216493653
