32
Energy = -99.96581081 eV
Al 5.9622635396583625 2.5721188086296993 8.134203795333425
Al 5.788747454011996 5.65326309116245 10.194084755458311
Al 4.179163603971708 4.059351965100105 1.4844520005059276
Al 3.8801871545158018 6.4086831233742005 3.0912576206703637
Al 8.249801856622934 8.813973974573914 4.820246344455348
Al 5.779556372036544 10.249813354517402 7.709826181774289
Al 6.262103102204362 3.0234360829672897 2.9690150822480827
Al 8.419102818665635 4.157147182195611 1.7151100648098672
Al 5.852047434291802 10.232748542655663 4.835003663341968
Al 3.588127274098145 6.362137463638473 8.572753485603505
Al 8.246803611723172 3.872846096607648 7.097502358457413
Al 3.65963019354887 3.657576638330388 6.810679062537756
Al 8.115038162252372 6.355685895926932 8.780286379161423
Al 6.247256079577954 5.817805736402264 1.8223601356792614
Al 6.125455628334301 8.08517899397308 3.2137627110441267
Al 8.15200192906042 8.737185559262945 7.611810505318122
Al 3.802878276457976 3.883006094784052 4.186956856801399
Al 8.43473490229722 4.035644950579837 4.469385441683324
Al 3.6087450049815373 8.708966106898732 7.293521561969655
Al 6.079221364981015 2.76443708451162 5.551632799057887
Al 5.816388413741273 8.019195074277919 9.092006766687637
Al 8.435541496802673 6.520348106769843 3.350875782957201
Al 3.7408916912577133 8.661154377587863 4.564078451445765
Al 3.740752580623573 6.223177885218126 5.8437684091771445
Al 8.253258121034339 6.398993211144082 6.070231450030523
Al 5.938487529427709 7.80952795438701 6.182300243815852
Al 6.081646983850205 5.462299317274881 4.585229172610628
Al 5.8897865207633915 5.290734120434411 7.426408265118521
Al 7.869107642216553 3.878643014175066 9.685025676955147
Al 3.8131600359453426 3.8650071797874435 9.393387500417735
Al 5.756847037381543 2.939993109626882 10.838758134874173
Al 7.965904033771102 11.214557753332162 6.338717190106674
