31
Energy = -96.04794104 eV
Al 9.832917673900743 5.955308460255131 9.500759292387663
Al 8.432380041056694 8.198638052487118 9.485204841226112
Al 5.883182768072566 8.139906851574981 10.503373689638451
Al 6.9812343356265965 5.739691180763059 10.043558564499197
Al 8.313038955010779 3.8267069555619533 8.853646013251657
Al 5.788631358275603 4.189715673417306 8.084488706991293
Al 7.318534053578898 2.36857291559846 6.79637383046357
Al 4.846251947191538 6.5702982663353 8.492137815486997
Al 10.247554737631722 5.013299941486759 7.017182424096168
Al 4.754017637185079 2.5274102546978 6.234304429134901
Al 9.95000593811659 7.605141212435445 7.0850376623742655
Al 6.417527517020195 8.85721955699076 7.879084586778963
Al 3.8944658733032655 9.007595393573226 8.979945418871168
Al 9.07553247388898 3.4329197984384896 5.167866557221689
Al 7.5760946059895415 6.2557147609714345 7.409830797132341
Al 8.89052601262053 10.027309474576569 7.475292419216586
Al 6.3389575912491 4.525011576729133 5.122069650073095
Al 4.304166615012253 10.088044509349308 6.5359198393967315
Al 8.955949300164747 6.139571969060876 4.968224704051014
Al 8.106684675027925 4.552596804244386 2.982994565950708
Al 5.425373550960475 7.241044870792739 5.902201688674586
Al 3.792136250739877 5.05864330000562 6.425566210886506
Al 3.7526509531398444 3.6019583711811483 4.018143180596984
Al 6.8425061346672065 10.842350457461123 6.000662187999587
Al 7.85823455481877 8.43893482909217 5.477147696975369
Al 2.803482347824232 7.480610926589441 6.910103245478123
Al 6.780247024329917 6.877377627961314 3.487870305047076
Al 5.548965312246559 4.653993056889801 2.306650409808897
Al 3.9900569024446786 6.315755636590032 3.8337388642291517
Al 3.137625170516684 8.74437132362984 4.575135455849171
Al 5.7004523871112385 9.263670689982858 3.9848696449353906
