31
Energy = -95.99211111 eV
Al 11.046048782469699 6.991910221714755 9.23256354495061
Al 9.777932177173248 8.506221134411401 7.311337382390348
Al 8.731717923867755 10.2198519889094 5.484668460405446
Al 8.505613028873386 8.069650003628633 9.60047091830029
Al 7.577801251061903 10.080372359310093 7.874075246323512
Al 4.9687134660304455 9.744618119773746 7.136129196739181
Al 10.475816036916116 5.955499343382753 6.737527028681951
Al 6.42607116702221 11.598803243128181 5.86709604367986
Al 8.848821719618785 5.512936196806841 8.845196416022556
Al 8.788459513618161 7.6185453962884955 4.955432692131792
Al 5.918563456410365 9.00145539570475 9.635995089348304
Al 6.371060506703489 6.31909991422953 9.6031313070088
Al 6.972865932744234 7.499768699385955 7.142677692006592
Al 6.324410932756908 9.068637270694596 4.765381626136648
Al 9.620848246200955 5.230860967879364 4.309531360120081
Al 6.4882493201173705 6.321992614554562 4.567137602236145
Al 4.103016250044282 7.412594708153731 8.268409428925974
Al 4.688097883964349 7.65028214216615 2.9571818189613253
Al 6.794426414249125 3.7782656641941603 8.592266227073425
Al 7.921936190453422 4.909447206506952 6.391131891149579
Al 4.072187908756308 4.971609872584872 9.331785433297453
Al 5.172006355532153 5.258821605647274 6.785572430056306
Al 4.015527826199108 7.703588050984185 5.584465673356622
Al 6.1620456448828405 2.8195498392729212 5.997210066618113
Al 7.44632310408532 3.8370638855838446 3.818757709696411
Al 4.39677178079688 2.740773417009179 8.074854752432733
Al 5.610090189546186 5.1676449317700905 2.328270978102891
Al 2.417068925711001 5.749390350944631 6.6965379871387
Al 4.816863077723893 2.981450970268687 3.599978689723706
Al 3.735556685050998 5.469828164045764 4.247111083083201
Al 3.3193067224548183 3.323684742099907 5.77233264493638
