30
Energy = -91.95896101 eV
Al 9.532423259317572 3.3062974302851558 4.723830663141572
Al 6.477148907841051 6.895435500598018 5.522823329299485
Al 5.761033532342656 6.742651707865099 2.704072863372627
Al 5.649528535342622 4.163807788258758 1.8592747780225962
Al 6.716132320965944 9.719007354413218 6.290050744618416
Al 7.468661374810549 5.74308464294789 7.9315761095857225
Al 6.371178393809865 8.063288822506616 8.49326892866219
Al 5.264878444360482 1.6111374750988499 4.538769069710698
Al 5.30241446774417 1.4352183424803946 1.771115068737071
Al 5.203957758276129 4.54404200554883 4.480097809926338
Al 4.863456578808547 10.281884952018824 8.350978531031439
Al 3.268736971024186 5.521033627456392 2.46338236110427
Al 7.375050348874173 2.6298368298775037 3.3925935058572776
Al 3.598931132741759 6.900105676437613 4.654923206028337
Al 7.746696336752188 5.229865848944823 3.5451013218322003
Al 5.422918534133792 9.03193358880047 4.036031346577638
Al 3.396703282986224 2.965611525650604 3.152006570901935
Al 4.845865601770854 5.570645464569991 7.007719118998965
Al 8.237332031861937 8.01361777195146 3.811109069140595
Al 9.131734862145944 5.70482687197332 5.746678163307674
Al 4.5153359606337204 2.7675787250412953 6.664861324605214
Al 7.167408471436057 3.464166280908891 6.064202615336143
Al 2.6015640382533705 4.37200240721113 5.420641616574724
Al 2.268075029743117 6.509357651896448 7.163170858501325
Al 8.693774531415508 8.034505578377109 6.933092503464473
Al 4.247287459454043 8.533930919696884 6.523263889371473
Al 5.255314274807513 5.859949419334981 9.696993421541736
Al 6.1069001615516125 3.5524190954723824 8.61233087170148
Al 3.141315055296365 4.151998721739957 8.587468976795678
Al 3.5922468312596023 7.904762462398977 9.08257585201259
