33
Energy = -102.74577042 eV
Al 6.8179333467958445 4.766407933501018 2.502946698024617
Al 8.910216054419609 4.134410576617947 4.529179843267551
Al 8.297308347229379 6.746212147766823 3.415330929921952
Al 10.208378315824156 7.038931468721472 5.514881236202184
Al 10.735956335622102 4.605938123452285 6.498450920866585
Al 9.422440616414352 9.084105876219237 3.8892610230681885
Al 5.465247159043073 7.129740682261487 3.3734636510068
Al 6.429335837892859 2.721052550611948 4.283623821043499
Al 4.368004543135464 4.594028868898769 3.7962074071610528
Al 7.363785127475141 2.9785160737482728 6.77249478428625
Al 9.266267823505359 3.4767849276908205 8.54860841735601
Al 6.569213381680827 5.31669378039557 5.2083355457571034
Al 8.407521005120389 5.631636091242317 6.988201120859755
Al 9.78927509792955 7.450420390929851 8.379308253158795
Al 7.043467398950952 8.152938691052956 5.282105411330337
Al 9.05427572770773 9.389526122408038 6.47668966797234
Al 4.635820638595237 3.475445408375761 6.319853530946557
Al 4.370694259206025 6.3602342064717075 6.002463249980202
Al 2.90225654883519 7.963759563020821 3.773682189010995
Al 8.463110188145027 10.048705359292107 8.940519338163208
Al 2.0386033881737236 5.671072739493295 4.617388649872905
Al 6.036566967277199 4.947428335265645 8.092285959002183
Al 7.076937073061347 7.675744838406443 8.030119284596307
Al 4.47046577608241 9.138709338143327 5.449477523124496
Al 8.138733691042669 5.5123409806665995 9.773233542779998
Al 2.1968917339479104 4.44260119398276 6.8831133239660165
Al 8.098169332601316 7.994979638117006 10.701612198813026
Al 3.5068520245459203 5.814793016575588 8.642963627522404
Al 6.381287413211482 10.107511741866759 7.068716330964137
Al 2.1851555819265682 7.592688332867619 6.660967786703126
Al 5.61025485355054 6.699172064021857 10.140197273817297
Al 4.343624530857663 8.325451914039075 8.077868922451199
Al 5.883468173125783 9.49953531680868 9.853966829937574
