32
Energy = -98.03259832 eV
Al 4.709854158066334 9.866775816111065 8.12287821773295
Al 5.877787831072265 6.2959561076771395 10.588402443070574
Al 8.310376309614435 3.118221755264399 8.409748165430791
Al 4.036103616465719 4.522376005171336 9.39651182058962
Al 8.324135616830835 10.383221106466063 5.398850261497044
Al 8.59343996641774 5.7067368899398385 10.038807324926323
Al 9.542497563313935 3.1737907704742083 5.920060508245568
Al 6.414598392275864 6.342423034933977 6.004716985511111
Al 6.083293761106869 4.960502872237616 3.760031257740752
Al 8.713990071888372 5.625987318381988 4.653022959010787
Al 6.889565358825833 3.5872476717283788 6.0261708658572255
Al 4.796979466989376 7.603797673315856 3.371220315339596
Al 5.780862223282029 8.917766136704163 10.254577510822338
Al 7.140170699636324 7.481903106270788 8.389816982506941
Al 5.886371772883914 8.813546112902722 5.974193193683886
Al 7.510629845421701 7.882733015945121 3.8280546761405327
Al 4.290958449432992 4.556176038610044 6.326557007534067
Al 3.735564852092501 7.164951526088294 5.7597613592829155
Al 9.788385954592627 7.919378424208735 8.90793612428865
Al 8.892486480231035 5.5170679426317815 7.36280219634588
Al 7.5381263708186435 10.04757063825074 8.103149424759799
Al 8.173630363314256 3.129424082230949 3.630165039602925
Al 10.214741962433973 10.05197054751483 7.336047430516248
Al 6.546301349101434 3.5194798434616574 10.66088421475157
Al 5.951140420367457 11.453572467940512 6.341915179282228
Al 4.406147103601584 7.004755431942247 8.262876004621003
Al 6.0767823427238605 10.315109328784017 3.7791790028284753
Al 6.31521651305957 8.878410862264838 1.5792155832975852
Al 5.21580241533175 2.544062332964817 7.992580973302307
Al 8.846867887867047 7.908152927112841 6.224746838870583
Al 6.38072662327733 4.976467111756693 8.249934918291096
Al 3.2665551174024126 5.319109049773696 3.7763142638317087
