35
Energy = -107.83099284 eV
Al 8.251792080260904 9.085055377588883 4.983731984914727
Al 7.954931002898329 8.50971233985685 11.6826224474889
Al 6.68152459005821 6.850582636714286 9.962833650963654
Al 3.0922200192907603 8.531812818113037 8.133820586424442
Al 7.076333704627065 5.973085608955995 5.538327189103723
Al 7.4403288516225325 3.019549760066798 5.885139333472053
Al 8.281313741518288 7.082835926177194 3.258801841938937
Al 11.554262125162195 4.8745436180333055 5.5876248842301806
Al 5.749948363088786 8.33402957357873 4.342053949697235
Al 9.714320761970628 6.919481428466999 5.5042607411707545
Al 3.335630206910361 7.383213735228744 3.1165278748811667
Al 7.622637396307055 5.102316817743158 8.19304700875551
Al 3.3836782066260898 7.8939283969063485 5.689985480418856
Al 4.743368080631091 10.136244941993306 9.373755026217706
Al 10.184953473759045 2.353862592369173 5.017449378912071
Al 6.166119917572911 10.910819759193139 4.920195705482603
Al 7.414453034885544 9.652913083453225 9.31589826926611
Al 5.4158305351731055 8.739926547437612 11.484341034259783
Al 5.176581706925389 3.9292610575497915 7.053867643425321
Al 5.163336512385192 6.622728277786373 7.484159271671169
Al 8.011800705749717 7.819561405404479 7.417674154652162
Al 9.599053688406741 3.8495204549196433 7.07929490882614
Al 7.756312182813625 10.801953302660111 7.025966040439332
Al 4.764167554295576 2.3908567405075 5.0046383944097395
Al 9.262773187187126 7.373391521568844 9.827531773754885
Al 2.735869163110105 9.102051285743313 10.932551018717401
Al 10.43986223894879 6.168977789497446 7.919479680387543
Al 5.5430230830575455 9.270565728125064 7.009521832883479
Al 3.948095926721338 6.877278909924074 10.04698233894002
Al 4.465738305839165 5.3867163129839355 4.940099870693064
Al 6.42975278460387 3.9077041656474143 3.57244026068021
Al 7.904664880682558 5.003325944200698 1.6143484958188115
Al 5.226650645691481 4.685289549972699 9.511130826507157
Al 5.706528052209111 6.299047226706506 2.688048427392827
Al 9.084494679192206 4.62918079100393 4.153616467606102
