36
Energy = -113.59287241 eV
Al 3.948543405956622 1.4753838889152315 7.741293281699874
Al 3.085418835331907 3.957349052075075 6.673404290162611
Al 3.7076064554569927 3.6284544196085515 9.305544342312734
Al 5.471985369872347 2.7118061495951626 5.91674186684429
Al 6.2154051279035025 3.0505441198813372 8.505460517901467
Al 4.500001209952699 4.778583567660698 4.473452995368
Al 2.9089576975770006 6.467220195833412 5.934793114511562
Al 3.1743907942899803 6.099699530751942 8.621984865990365
Al 6.990689532959223 3.590480097997625 3.9061146733865897
Al 5.424028391108119 5.4823531696866326 7.212017400589052
Al 5.634102733550651 5.3442591879590715 9.975692917930193
Al 7.7298936542935115 4.223288155818869 6.487366448825078
Al 5.9972837506939545 5.641206936561503 2.420186238218362
Al 8.48113791998618 4.499263535542645 1.8122030396478965
Al 4.520434062846089 7.345625093126572 3.942907282244144
Al 3.0224675245721526 8.652655400768996 7.8909334924001175
Al 8.206242971186345 4.668500738697844 9.112535637760548
Al 2.9769967965668527 9.119518826183901 5.3474150107505505
Al 9.324334254983528 5.0666697290905045 4.369777072158441
Al 6.857688769742316 6.355763559040114 5.040097854028763
Al 4.684471153725149 10.034925216205677 3.566534887332166
Al 10.301873974442596 6.274161909386828 9.423582285650276
Al 8.319286595615914 7.108696674740604 2.695777697451131
Al 7.5998857819173855 7.025385052571643 10.40429912232107
Al 5.274438849036372 7.878665329241038 9.139796721678342
Al 5.863975866829657 8.333027846319911 1.8380567358050561
Al 10.000761150917848 5.662000376022346 6.879979374195717
Al 7.656311927136755 7.070440012194119 7.687838135931069
Al 5.438976667468409 8.404043746447094 6.445659933674466
Al 9.293251699253059 7.773333729629701 5.101870292564916
Al 7.039768014895997 9.016075625382753 4.257026632573324
Al 9.646770152627951 8.706716373634503 10.09942013619622
Al 7.217799025866573 9.583982511924997 9.20122248190217
Al 10.133549563436926 8.369017737695723 7.489660087315114
Al 7.912744412780529 9.678772562801491 6.6034087825062
Al 9.475404605009539 10.959008640796037 8.512823049962433
