38
Energy = -118.50515495 eV
Al 10.415283111281624 7.382879322495791 8.524913167600591
Al 9.095608730426468 9.12404600223301 6.248831964179938
Al 10.920371893629582 7.156755094482702 5.771600755367971
Al 10.214059650491457 4.811312349463598 7.737461254641959
Al 8.119567795345507 8.489285747250088 9.087247777171411
Al 8.635753199544848 7.50150238586431 4.136543616545345
Al 7.38761929922778 10.873417395235446 7.152189890596395
Al 8.214753247760193 5.668577553341189 9.331301385634765
Al 6.747281515116203 9.480180887810867 4.690386638566405
Al 8.397066589073145 6.6541736136127065 6.79944559676446
Al 9.512282254133877 4.941907792686217 4.8533606639070275
Al 5.820752591300796 9.935401459537395 9.289474886521907
Al 8.44999953259729 2.569820102689678 8.858654762089754
Al 6.193695731712987 7.678996917432562 2.775696773261576
Al 9.94941110110859 2.651041742398843 6.199003475365455
Al 4.85381656125632 10.453539098570364 6.348702561167223
Al 7.489723725737993 4.217149356186318 6.874151355416104
Al 6.389864134013525 8.30333546634144 7.118968576682597
Al 5.844882704946902 7.1246157088884585 9.598682402334994
Al 6.474223511423469 5.7995381894515425 4.858026173873109
Al 4.506035388267377 7.714414900725123 5.427127165211696
Al 7.8014369502377905 5.496043240578002 2.4391210607941227
Al 5.904479163887792 4.331630754003288 9.565693228170232
Al 3.5140719736592305 5.662489434959957 9.4521908843292
Al 3.781389372374164 8.403982304465726 8.205040552050495
Al 5.151657346539242 5.713749455760596 7.218858642262654
Al 3.7361076234208705 6.692663654875616 2.8672855599325238
Al 3.7920390163040163 9.645656359478417 3.5994251146370075
Al 7.445316902820701 1.6625425962694946 6.131316818179403
Al 2.3307077863259718 9.605667244994518 6.2832810805988
Al 5.1422987472091295 4.357302976018793 2.8409758045047946
Al 5.552487302670218 2.3373067316980323 7.85241110602037
Al 2.3567591192652 6.339156772722368 7.113349721815673
Al 7.53060552306075 3.2827120666587777 3.9452783598033156
Al 1.963693035548042 7.477727071972249 4.672407690107882
Al 3.2339145331618306 3.654994615837426 7.322917299566528
Al 3.4238244560628366 5.065980899120436 4.998167312431543
Al 5.231119167442782 3.248685302428418 5.335048279652468
