39
Energy = -122.96171835 eV
Al 7.829967442658693 10.753021763825993 8.541747213921534
Al 3.7582005363637774 9.594642890651873 10.246261229965935
Al 5.1070847052245325 10.237178269533402 7.934217803327361
Al 9.728054032354242 9.961083595245402 6.826663357188745
Al 6.402374088666595 8.846703044406823 9.849463066409529
Al 7.091826460943264 9.7305265628714 6.101016863314938
Al 11.554254690139702 9.043200055072901 5.141702446846103
Al 4.53864676832773 9.14760042287657 5.548573647248497
Al 3.0179911588238126 8.350586391984208 7.995574274874859
Al 8.299513383528007 7.987395894515394 7.980175628125208
Al 9.013299982806947 9.61521086348193 4.0624824188055
Al 4.416168181330718 6.9433752317316015 10.085873463966342
Al 5.56962273273152 7.4261643519506055 7.4919994482395245
Al 6.39765405989784 9.397952073046648 3.410443544929248
Al 11.183684248734197 7.504179858216235 7.472988407033876
Al 7.074296695632339 6.316649382974589 9.68751834299787
Al 4.547045375922221 7.4128252646238435 3.4349295233892736
Al 6.789324828652876 7.261684739051247 5.0715368984670395
Al 2.8327245421818024 7.065811888283081 5.75498439673615
Al 9.589703301504747 5.787932019280467 8.994968040314935
Al 9.454775841548713 7.268096565646258 5.4255219606611425
Al 2.769654176787361 5.462528394584932 3.6368277831450277
Al 7.502249861196373 5.484473332687901 6.991144429406515
Al 3.688486115637335 5.421287328203003 7.926260880159408
Al 4.987239014330477 5.287767594962423 5.491594307505877
Al 7.709952142344135 3.705853283135877 9.265355239309942
Al 8.353784698426612 7.222162049949197 2.825948395867753
Al 5.196863862191234 4.360482950011013 10.011649148466018
Al 10.354890485304633 4.946151823545519 6.533452517809957
Al 2.1195529126577566 4.371650431805347 6.086919588629365
Al 6.382247537496632 5.361550552780977 2.9793526961764187
Al 8.617446405047785 4.920921045682006 4.475406406581717
Al 5.644235572575344 3.425157254641626 7.473752165803763
Al 4.034243946339304 2.422510392895306 5.665550813124953
Al 10.298375890373809 3.1352033933339682 8.59519067547101
Al 4.56518142192613 3.492876917647596 3.192525069251432
Al 2.0229382777713663 2.803555992556563 3.8910655466500805
Al 8.469282820453762 2.94124342900649 6.6158282596217175
Al 6.614010775415841 3.1096516775504273 4.810383074506562
