38
Energy = -119.13325795 eV
Al 1.525464080366441 7.006287837376755 5.163637733554623
Al 2.5471831698359555 8.6518990208268 7.790805023260719
Al 3.204370213464922 9.05728708228304 5.163864576641006
Al 3.025275492918151 6.172961545583573 9.09084592073957
Al 1.5825494345298925 5.136656202424897 6.994662125819739
Al 3.687203349077889 6.959499566062929 3.4040645018420483
Al 5.02668684727574 7.931257401225844 9.152125015005687
Al 5.18091087831705 9.332158426448006 6.9077304763849705
Al 3.937894943354397 6.753240526925489 6.459856356696366
Al 5.832868072750321 7.921965726414184 4.7008615994053855
Al 5.047743877334328 5.482510449043525 10.740825946677568
Al 2.2158350258293256 3.6258176181871957 9.098544004817965
Al 3.0482996256295327 4.661788094117835 4.516327874077671
Al 5.833313722639369 7.184358946471692 1.9239630471740337
Al 7.489087810010804 9.87894372272295 5.793588499512301
Al 3.8229045750574886 3.5921464815849893 6.83652738076913
Al 7.4681719988036175 7.790444645743875 7.770909536056516
Al 5.80898092541777 5.558089842232525 8.073726342944946
Al 7.858770928493856 8.634925818415322 3.0433031020616186
Al 5.60101327112367 5.156375162123532 5.293565422186217
Al 9.99289517859516 9.801583393099927 4.479167514326609
Al 9.794114033447752 9.207433470524805 7.253299230592976
Al 8.737072152705244 7.539504220123874 5.374635277608795
Al 7.253124687094353 6.937309636661752 10.396594367060262
Al 7.687813110888175 5.791383525549125 3.5028465779925333
Al 9.561063329087043 7.785337214620945 9.594475733765734
Al 4.927113815499465 3.2374312042223345 9.264518373262353
Al 5.220841368090692 4.572633133587204 2.6848904042363047
Al 7.86320243667906 5.38410337479641 6.4365408815536425
Al 10.192198573152098 7.165430856994549 3.0902911398482127
Al 5.0161194147967265 2.6222175368816583 4.565631110867026
Al 6.580434753902279 3.0529852999717413 7.1831551400412295
Al 11.512298798245528 7.697339792260941 5.426887866982604
Al 8.541167077079272 4.999538914799837 9.018097645150041
Al 7.78261515583896 3.2069997091208973 4.65749657016529
Al 10.260435982700885 6.386140784964352 7.392577996723995
Al 10.063503813638864 5.038531849606985 4.901521562369051
Al 9.432115370541446 3.277908352210248 7.02387685775938
