39
Energy = -122.81618257 eV
Al 5.940963499673392 6.038634008097909 2.4765480793152066
Al 3.7790217450281336 9.650451638586611 4.575552213919557
Al 7.860233229646902 5.16053666703701 0.8584285384847302
Al 4.247443529564265 6.98904577024701 4.302814950731351
Al 3.9207420418499157 9.32337664361378 7.35999734390644
Al 7.745125400675081 7.891893245167176 1.4398599338847913
Al 0.5170300774854032 5.9944650746233945 6.748224235073798
Al 2.9279030216989703 5.223315235694118 5.8348713433578725
Al 5.242851431603813 4.563565682846291 4.730183191773218
Al 5.759942057090454 8.769201701118881 3.040890616914337
Al 7.48727899662578 3.8886926440187533 3.2362453482993807
Al 6.142222571762119 9.073705627781072 5.748972016667368
Al 2.1423468083846497 7.890465029576629 5.778986400033101
Al 7.08360984023867 6.57919295006448 5.101765678864245
Al 9.037750638767333 6.223503087043365 3.155601757958472
Al 5.106543026050475 6.725768384833319 6.9159780431240785
Al 2.6343400676869226 6.968425037651778 8.275113291084667
Al 2.050879368132646 4.147918736042194 8.203214051487452
Al 8.346150480018746 8.840138754220424 3.94209186200817
Al 8.790082192589136 9.692331349576449 6.373548390067771
Al 9.093394703178799 4.578286955953459 5.25778780402241
Al 6.842308346529025 2.471571126661438 5.5051652485115286
Al 6.897802248986792 4.640860260329018 7.226181654149545
Al 4.482847637540675 4.986946988457558 8.950549441455754
Al 6.267285654244951 9.95907406670743 8.354066772479422
Al 4.907186191329241 7.776411454213076 9.463208494133935
Al 9.792559726245946 7.218201317094956 5.639046488377803
Al 4.469725495831581 3.158687417844081 6.925916973335859
Al 9.055657470351434 2.649788251711073 7.117422345417494
Al 7.670202785194534 7.550234929418063 7.727933247961164
Al 6.548461046204385 1.9072158115549165 8.226918838982948
Al 8.821024694576497 10.238964975276765 8.929874143362108
Al 6.747523051272499 5.849281244947012 9.716351531413817
Al 9.598923828575016 5.473543541588918 7.637160887747395
Al 7.409177935303015 8.405780265470582 10.396592281492676
Al 8.455253059460249 3.8288934552217593 9.446116561827628
Al 10.403977404706048 8.10389757239158 8.153613866225575
Al 9.330930998707561 6.398086835283912 10.083151457407991
Al 10.125803844543347 8.852152409389157 10.826560822093695
