37
Energy = -115.80597313 eV
Al 10.147313290874978 4.28792617903557 5.41978639641764
Al 9.074320187475886 2.7853057701487915 7.345842038882954
Al 11.17299908552833 6.682121270734962 6.144278240648483
Al 6.526166918117073 2.2782690109835713 7.3340839410816425
Al 9.77162876355771 5.259488146969125 8.074182258139126
Al 7.884442989949781 4.109925180528753 3.5690793011297903
Al 5.739722976466568 3.0794651471076815 4.719672949009021
Al 7.382819323556085 4.3017494275926795 8.861534276154112
Al 10.406041153705 7.923124700798061 8.627697102512535
Al 9.011997867272273 6.478582849098065 4.238967217192906
Al 3.9777223241532758 1.9838608645124 6.737495056116726
Al 8.186305925693247 6.754822402322447 9.757412015560204
Al 7.502833397036617 4.832743856909453 6.15378253895261
Al 4.733078511894003 3.526762410838643 9.09516598743925
Al 2.2964997116676447 3.8030682359924772 7.804575984258776
Al 10.52853994076143 8.793226287174422 4.637325982410539
Al 5.753671144052531 5.649590026640065 10.490034321235786
Al 4.8199847581682835 4.6547669467201995 6.67416231959765
Al 8.025487085439424 8.761419238211644 3.067688855237545
Al 6.235798722792595 6.687279629624327 7.790276444987613
Al 6.544692955215777 7.525997803557163 5.0483414191774365
Al 8.619390895235057 7.382494599635307 6.725125769876017
Al 3.641124166530515 6.197490589476385 8.695870618680702
Al 4.747363311150129 5.549324979789288 4.083115904943914
Al 6.846822478341124 6.3829927990996005 2.5224449812306604
Al 5.8761227385032315 8.232288341212518 10.036703088430238
Al 8.239564192513441 9.866623828247636 5.641083879432674
Al 5.8518480780820825 9.583817905390193 6.77713786072592
Al 4.140931604333096 7.242514688177006 6.193169022258857
Al 2.278498768577915 5.341146843815481 5.631940499049588
Al 3.7429437536728942 8.92419591697948 8.286615734873902
Al 7.986204333596252 9.315219453309865 8.517811681240488
Al 4.81579318475676 8.091025412282745 2.9426231387933677
Al 2.509339850916816 7.399128011731653 4.0613373859418465
Al 5.998689647982106 10.192505462197879 4.132616230481083
Al 5.656162988621195 10.775088692028895 9.194155045930405
Al 3.5868670394658198 9.62438115678159 5.226598577624163
