31
Energy = -95.71482961 eV
Al 8.796076563526968 5.1683878062616 2.850395189056339
Al 6.378292952058126 5.962715725038814 1.8216623904849323
Al 8.564879820136213 7.905876385360624 2.067706795096454
Al 6.541113210023904 4.179388751639899 3.898789374712858
Al 10.102657465081565 7.181657701022257 4.119768177045252
Al 6.024537848042658 8.517218563797977 2.7931845290110378
Al 9.179316786554908 4.741396854416302 5.404394930449895
Al 7.29190747374763 6.68246248553665 4.7078696221887455
Al 4.516599490742683 6.434551336083452 3.751331754011535
Al 4.244042505666759 3.698322608683111 5.160735514602317
Al 8.161992375836823 9.21982342791427 4.519909069370757
Al 6.839779180880831 4.1217029938545515 6.54240213477051
Al 5.564678756162714 8.750794836438384 5.326991580902047
Al 9.586745690258352 7.208952993921732 6.644840351752062
Al 9.257608129332281 4.582316437879513 8.076933099555962
Al 2.3655766627269808 5.650847005684429 5.071983509334516
Al 4.920298157318786 6.040547927646972 6.480163715000992
Al 9.75509721974613 8.70351196892854 8.836876473625223
Al 7.718310221551911 9.193350973943902 7.122615075255009
Al 3.083636569611198 8.057124346500608 6.137992420700254
Al 4.541224625335834 3.431227194310682 7.813797915670213
Al 7.27558125313072 6.461000534373203 7.976746063684401
Al 2.4549090111020297 5.143727991058561 7.708606902576958
Al 5.267589653671915 8.350168705353175 7.942057303871477
Al 2.8540964706918786 7.580459852697001 8.841639595680872
Al 9.42122671793653 6.370188773315206 10.120918872337457
Al 6.917108937225998 3.8624829324919547 9.262213832901775
Al 7.3127532878289445 8.571249732227994 9.772373186565924
Al 4.742471803957111 5.648553157945682 9.237710128788516
Al 4.850731361712546 7.953215230929707 10.604434847854757
Al 6.874045504032637 6.021845755025704 10.801549508329984
