33
Energy = -103.16431433 eV
Al 5.565494884799386 7.996883217562119 10.66154601683977
Al 3.4365998976650087 9.459696398141793 10.124629465574898
Al 7.736790918369459 7.6607436014883925 9.211570699952972
Al 9.924650736592977 7.826305195362681 7.820672855632444
Al 6.094383616157447 5.4515984013789005 10.16824996988617
Al 10.572082741585193 5.117845242104266 7.118685673737146
Al 5.617432465870731 9.715214119328033 8.464209603343095
Al 3.551272142711874 6.521197662250192 9.581363070032836
Al 8.405016937618134 4.847999848234755 8.727264038733908
Al 7.688333965193826 9.281540580139245 6.93139527735366
Al 6.587020068914893 2.894855446047462 9.53966146838839
Al 5.602034097561551 6.882488772621838 7.863015678745475
Al 4.280489514101658 4.01108572187132 8.698591574327136
Al 11.908064320021241 7.404581077927917 6.13422090705459
Al 7.979954626690642 6.392280281175088 6.465186692010396
Al 3.1343252384532865 8.50535388097493 7.699440395514025
Al 6.517369884073668 4.021110057867826 7.099295106058371
Al 8.83871920286175 3.822680802236192 5.547027433607359
Al 3.2425392493555036 5.81402840181572 6.961449375716338
Al 10.118326960305453 6.119027010155249 4.629769742012133
Al 5.124816450106165 8.828410996104337 5.944275001829345
Al 2.645254465944005 7.760171432223727 5.182340030731528
Al 9.752897967260195 8.855649644279353 5.218180056156245
Al 5.564801504083775 5.883975105762382 5.312193742053581
Al 7.20393744927904 8.145764478543725 4.502291070895895
Al 6.455561159571452 3.2427160091949827 4.440148088160845
Al 4.6684344701106415 7.785477047722016 3.473450606714726
Al 9.149884520471124 7.871975789674877 2.746962138886742
Al 3.1171589776077524 5.235621461231688 4.1608850726291475
Al 4.182929207769504 3.4566011810080064 5.925120028779667
Al 7.805818884506311 5.509619158661498 3.65500611305988
Al 6.70845799613856 7.259982675259577 1.8925642178669935
Al 5.33402432756837 4.932398150970165 2.614217637035016
