33
Energy = -101.40171564 eV
Al 3.890099675496753 6.785029578855966 5.377518762397812
Al 9.720042005312413 7.64308019240385 4.812743753281819
Al 5.8547466372195025 4.577300126566261 4.136821890613757
Al 7.628066486885127 2.9803934096141576 5.376522456755706
Al 6.137588230903773 8.172717610480031 5.335496900633012
Al 5.709007298773982 3.832330882525892 6.998635293025457
Al 8.27534218984545 8.270504703695387 7.063213489652258
Al 9.333954566887538 9.167507787496277 2.6274772291630475
Al 3.2503329197998765 2.8128847878023233 7.451579300125024
Al 4.993135654200419 7.412698577076473 2.989039393145526
Al 4.243035515404872 7.0816376969441155 9.773972991990538
Al 8.565598722845222 6.615768057722662 9.129999615325774
Al 8.200621522834687 10.006704339779729 5.039833512189874
Al 8.521294312291152 4.0027892129671745 7.708872177597268
Al 6.706554190893702 6.866870496321446 10.960477398540647
Al 6.621521080933567 9.46662559736355 2.930234169582948
Al 2.095671798730944 7.873128602266973 8.370022227075058
Al 3.593049011762056 5.14223404929438 2.7848889416082963
Al 6.4775924824764015 10.33934516674683 6.957201706949917
Al 2.838709515298964 5.53526771650867 7.528079271866784
Al 5.97236253970645 6.4405631087567805 7.732548822411218
Al 6.174625392279624 5.329733435916197 1.5181971110853774
Al 4.334892863710023 8.699117632428209 7.3894347187394045
Al 10.112481457885007 6.264240515307086 7.052315439071172
Al 4.319405965185702 4.289507372696154 9.345926912861627
Al 8.467364672665356 4.448087697072366 3.2294018615167386
Al 3.380755205127783 4.151012896613703 5.273551732477576
Al 7.721577731405063 5.803647256577126 5.697869872933719
Al 6.596499063346878 8.718302233583081 9.126627345223959
Al 4.993274672422606 5.051200539628277 11.798038449241355
Al 6.8740732560229345 4.47005818828279 9.659788106599379
Al 10.12791040828264 4.128881879956856 5.454720280075792
Al 7.675801365822368 7.014009180423002 3.1381536365462006
