36
Energy = -113.27428824 eV
Al 6.350563989610316 6.335400678141036 10.350668471584424
Al 5.409179804825892 3.70234665656867 10.23458999674439
Al 7.393584916187857 9.051991721709964 10.378795121150961
Al 3.8087644544905017 5.737400006876335 9.305587338736746
Al 4.864212295306271 8.46160421380417 9.378392230135699
Al 9.54366027241477 9.439203668881063 8.060754619713245
Al 10.149500492118282 5.088654516881012 9.320709706446927
Al 7.505972748109553 4.508949936762892 8.553436190495272
Al 8.308656317547332 7.089896916366228 8.702846569447457
Al 6.630539791056408 1.9516373176361514 8.506444841112822
Al 5.926464875869386 6.555104098462257 7.542886730842998
Al 6.812247041530965 9.363496530520088 7.681658871401327
Al 4.401132911871996 8.68332407865573 6.713553955912239
Al 4.828242089582008 3.8865709979942973 7.587656798793349
Al 3.312437107912165 5.907225260858579 6.676001094547044
Al 2.3800815993933426 7.8900664368462605 8.403470286874724
Al 10.47415384881811 6.96400642994291 7.191856894411935
Al 9.475262215113275 4.457548910816008 6.730824934045525
Al 8.025422241597743 7.582411687849299 6.069060436154911
Al 8.504889505179516 10.54657025360993 5.79775768734692
Al 6.91404272466482 4.625702651620668 5.932629783371727
Al 1.931350094700982 8.087946950909439 5.751635819842688
Al 5.897726961194282 2.0798181053967557 5.820878992342818
Al 5.290398586868246 6.7628149326040194 4.98234185392855
Al 6.238744819942562 9.578291707438074 5.0007050682320795
Al 10.713214102128163 9.032517413390213 5.407204885904271
Al 4.204634907016111 4.038108576866517 4.943428553113907
Al 8.943335641949341 3.7042622961848894 4.316830594909476
Al 9.961132144967353 6.406265209052847 4.597012049822501
Al 2.792656206702491 6.118267213762994 4.0049107081708115
Al 3.814442957123537 8.913323762204108 4.029536684987322
Al 7.495380374353887 6.024334588150615 3.7103284784852053
Al 8.455112013625712 8.629968501544019 3.668104527852574
Al 6.431923575174605 3.3229373572115013 3.5270413988064333
Al 5.890296565240267 8.018398585109951 2.5817978265812833
Al 4.940333389916735 5.4733254134751474 2.5583535818545244
