39
Energy = -122.27599351 eV
Al 11.497286518772814 7.614656715932884 8.38436379646148
Al 11.374810534373232 6.180361961423005 6.0792449455260655
Al 9.826023394817097 5.316867800145411 8.258671198476913
Al 11.373553735837207 8.841854128948215 5.548844935184717
Al 8.000251814783443 3.449489111364755 7.59635949139492
Al 8.800499942770715 7.792849483599522 9.348386489137793
Al 9.434720664819615 4.5204978889581175 5.446703765387959
Al 10.016816536541748 9.754288317954229 7.699688786970862
Al 6.186412721241203 3.382639404106183 9.602404206995468
Al 8.733440550767755 7.2767974207128026 6.657883457557611
Al 9.658261563421453 7.0711469374655485 4.060446758918625
Al 7.410846602007751 2.839252112832471 4.84372982311712
Al 5.491934881707053 2.198258639343701 7.205389416772509
Al 3.6154649324945694 2.779200499853106 9.267289752694259
Al 6.821255183261994 5.259732166319041 5.868490587409985
Al 6.076096816839203 7.975424445021294 9.610687210891262
Al 7.1403581013461705 5.7399956051566585 8.699330920667999
Al 4.75626290747756 5.615040173265853 10.226061160409671
Al 7.41788464622343 9.670554804163075 7.743199962253651
Al 4.73902354129441 4.856889800833027 7.570628132072635
Al 7.770983414030803 5.282561131466717 3.301545053357641
Al 5.883392692273407 7.465060131037707 6.833446417050577
Al 4.789287706259306 3.535432277589076 5.055075851466271
Al 2.2506487836814215 5.055630747370256 8.877027511143993
Al 7.009108205496698 7.702683392460918 4.241054840640575
Al 2.6367001963899237 3.244925788955635 6.662389314286018
Al 3.5700848269401892 7.343075953950394 8.41667073608214
Al 8.683405581728064 9.589770667596873 5.19788058589242
Al 4.7233716896998175 9.753474286371286 7.904796357281269
Al 5.958849440505423 9.871737652947369 5.351587396165
Al 4.652893115650525 6.268464943208446 4.493480756709829
Al 6.0046002899583195 6.853904123692796 1.899225837157344
Al 5.220296825965984 4.3114777493051575 2.5962957922652623
Al 2.356706291355167 6.000350455254477 6.324976032543368
Al 3.463251785195256 8.518670639037488 5.878341994596582
Al 2.5314928460818584 4.53443251689719 3.9409334604788975
Al 4.537569894290972 8.725339511865707 3.2981743402844366
Al 3.3792236013528605 6.335598157343662 1.8880553782579728
Al 2.059907005689826 7.345644082558183 3.9804824559923784
