38
Energy = -119.6589082 eV
Al 11.153292382810664 5.64468997825564 4.7073834921750874
Al 6.434844498680432 2.204620257161093 8.26658470554252
Al 7.598611926294963 3.560438430017828 6.196771903519834
Al 11.812848748194847 8.230034638614546 4.773058018698894
Al 8.67529932415867 3.4354453284438486 8.878251414966675
Al 8.813831263899921 4.647769301485567 4.042011661598949
Al 10.069573528095605 4.485757866859998 6.840823884645412
Al 9.292979442543025 7.3633783144279485 3.7992930388823885
Al 10.566225533660928 7.234244642045822 6.905109656637136
Al 5.199885113533464 2.4357631561597204 5.966566236874009
Al 6.343057723467084 3.76921615605022 3.706358316215356
Al 4.222965477430019 3.64928781565134 8.487727184477839
Al 7.561549208888993 5.063077273740781 10.731672352870689
Al 6.801999416093536 6.41131794632755 3.2091930035329943
Al 6.531057714913935 5.15674620225526 8.112478978137087
Al 9.532079555883396 9.472612339769642 5.526358289562291
Al 7.995951113101159 6.361082099090737 6.077771987947829
Al 9.162682501607163 6.188713907460542 8.833798218419357
Al 3.842827610359521 2.842911106677845 3.733044780498242
Al 5.394398335348419 5.446635744409993 5.581472399682768
Al 8.383860665924386 8.601926925489195 7.8279094340619
Al 7.110945854257684 8.661263240001148 4.7217918053753705
Al 1.651412631819246 4.390703229188027 3.732847832493525
Al 4.822586705000712 5.677039819631228 10.210510203722793
Al 2.934002974111146 3.928753560629373 6.1435535062561
Al 4.187312745086102 5.474492815921303 2.9709375913175586
Al 5.8371390980389535 8.045356018676408 7.00700301922006
Al 6.975598059155243 7.468029082331689 9.820971123997516
Al 7.123562864430493 10.714161266382899 6.529849650517163
Al 3.7976438789428077 6.129986876124926 7.672169226453025
Al 4.695752110373196 7.825669414767245 4.114323492631283
Al 6.552914596465687 9.994389407536872 9.467659687523032
Al 4.359978880432584 8.25355057641253 9.292715076647944
Al 2.681704487668493 6.409097631510305 5.144178402326504
Al 4.809690790295491 10.252913235889677 5.103414636128805
Al 3.2240090876508067 8.552742388331373 6.6291067800438475
Al 6.401000388712386 12.406384180562496 8.459482166253666
Al 4.463412961882543 10.628287024919603 7.794336039358422
