39
Energy = -123.14375179 eV
Al 6.606223275106677 3.8556537688490637 10.219328155711697
Al 4.560906816667566 3.814571447386869 8.259885976269427
Al 3.0172716754848823 4.394924274715725 6.062522762147739
Al 6.424211970840446 5.498042153247698 12.359180261925918
Al 4.775552080007668 5.865400571365946 10.316984281653632
Al 7.064781021161032 2.944632556885385 7.732394336718133
Al 3.2498993161298686 6.290296726533365 8.251679227957254
Al 5.634179263766858 3.84421198717921 5.654979425558642
Al 8.98936069292614 4.532529739565082 8.938658898014774
Al 8.238943045219617 3.1056992975356605 5.292798292135989
Al 9.745190628509595 2.3811247634553574 7.446290645204307
Al 1.6815080997652805 5.618652167309506 3.9048877472887105
Al 7.929173253328502 6.52824422945055 10.272434714207773
Al 6.544757653082496 5.712856945896607 7.930204201563742
Al 4.7800309548545075 6.507415546821468 5.977149410564791
Al 4.324448187983258 5.103224927769107 3.555328746077968
Al 1.7374417043046861 6.901270774704177 6.219671742070878
Al 6.1238436162981715 8.126658962149094 11.54863184096801
Al 5.248027275144609 8.049797917063698 8.841191493812433
Al 6.924266305097783 4.13108322860438 3.2728789459772885
Al 6.140656681685242 5.7772150017380355 1.2458669641033329
Al 7.540855119193276 5.9200544459488675 5.386068279417993
Al 9.966021030756805 4.935436152541359 6.439773154137624
Al 8.718696957229902 4.764154726862944 1.2627017495264743
Al 3.5219921874701345 8.813502835078438 6.876590667278768
Al 3.2723161406160988 7.891904140039533 4.131891179223382
Al 9.047626544907555 7.027772004302427 7.83260678168098
Al 5.86681755655717 7.340077303264483 3.611887518002494
Al 7.7409098622032655 9.08078704962796 9.177427366588766
Al 6.826584102837036 8.26895453525849 6.622538561277134
Al 8.360939324740539 6.953451075061013 2.714895261945639
Al 9.765281600017763 4.872699998543628 3.755059118539297
Al 5.518935078157672 10.462369245090246 7.6478750783843275
Al 5.179212031515148 9.65888367951909 4.870970954512595
Al 9.91760456598112 7.318333629613887 5.165967047454241
Al 7.914960289389594 9.032854947654222 4.21704811898847
Al 9.294926447520059 9.485812443189774 6.737492774961121
Al 8.025766379334343 11.571551934753355 8.137900147370319
Al 7.300273006425126 11.138284607642326 5.628749912995261
