38
Energy = -119.29529633 eV
Al 5.636562599310793 8.125353187547786 9.31147908229059
Al 8.212873335663698 7.288177980665157 9.999023798438083
Al 5.338120298848608 9.419612090509181 6.991501518606044
Al 6.175945993576481 5.890842836906103 11.347123076600042
Al 7.874618832161652 8.533890324704027 7.697945599472915
Al 2.8471648089737602 9.92546063370397 6.057280391233267
Al 4.820500875944703 11.15357740140183 4.72327692040333
Al 3.094314381519575 8.280160762641167 8.163639712227049
Al 4.11126755766155 5.921176419615057 9.499681751185545
Al 9.583472103778714 8.796829168815849 5.688236774344818
Al 9.303683696143928 6.019038291295639 7.7250244056474795
Al 7.263755344290797 10.034998891083589 5.311313293946592
Al 8.454527013475031 4.601915250280895 10.198121255748987
Al 4.863734676028086 6.755496314151897 6.554652434515814
Al 6.649979338677222 5.821164136131997 8.250236534419418
Al 5.889362872054331 3.579949377544391 9.774288092805131
Al 5.175166969586757 8.431577029377257 4.367271203447545
Al 2.6238602475952773 9.188033933258557 3.374876282154072
Al 7.558499388697848 6.88671138751042 5.606539786436391
Al 10.648916650702626 8.002051577735639 3.3802559419444314
Al 7.851789999168396 3.4664075182477716 7.765785290883782
Al 2.424631860767809 7.36231600898472 5.4235195265585325
Al 4.443600254539466 4.016265307882677 7.5443859411217895
Al 10.671144288257409 6.251446663464089 5.477575953616482
Al 2.3749438806105334 5.725018704715774 7.452961196462245
Al 7.898019143094224 8.388594374963272 3.3037442136130224
Al 3.6322456704083055 6.531262448333381 3.135369834757049
Al 9.032549507937544 5.863196641603859 3.2938821360360264
Al 6.188854813003465 4.538725252585323 5.485706354591813
Al 8.942502994800472 4.247604679637863 5.514154216621867
Al 3.387329223603826 4.747172948272229 5.208755174757181
Al 5.7141405267960135 1.6321371777124578 7.801234588152379
Al 6.317949754190754 6.214871239384204 3.256721873168963
Al 4.499553155731102 2.2815807951790674 5.418161963482253
Al 7.359660876472736 2.0020877259605965 5.518145185177113
Al 7.521216294441682 3.658058676821079 3.179385649478158
Al 4.75648572911892 4.023929770830994 3.03616511738662
Al 5.904704910194953 1.492673893714236 3.2374454629251885
