30
Energy = -92.53477578 eV
Al 10.049093283041623 4.183018012029193 6.945589079557704
Al 7.599984287694428 4.805098981577797 8.094426780624417
Al 6.436982615814522 4.849708452261543 10.449758006916927
Al 7.864068071190756 3.066983882661332 5.89095324472563
Al 4.766472116671568 4.642002862289853 8.114462996634439
Al 9.7457999893349 6.8497436230403155 7.399240339450541
Al 8.323414738446203 7.411117076394438 9.505441792977548
Al 3.9925346288374888 5.990659760824492 10.460834000881018
Al 6.25845284450213 7.654352831093873 11.228490456786554
Al 9.798136592496204 4.0426410879887245 4.295316466325397
Al 7.905174076385942 5.808908752398361 5.52748950756206
Al 7.336450468312853 4.06860528912518 3.363457554685097
Al 5.870019183090042 7.020941804245108 8.669461960470365
Al 5.496514835311945 4.079118302629995 5.464449821380174
Al 9.381173140811471 8.211035296398794 5.084434982190263
Al 4.233808948617736 8.849212695737426 9.866779932327821
Al 11.237763434810292 6.156223994121603 5.201178543263193
Al 5.2284670586140285 6.723541068001408 6.206284369572673
Al 3.1445001907142283 6.985098463795935 8.10415645653965
Al 6.819564322611753 8.030668733189446 4.236273811381197
Al 3.040004812589318 4.818688645141365 5.921224039228671
Al 6.737989917929503 9.673465007915496 9.172365347889983
Al 6.615370629378023 6.277156153231932 2.151213823983077
Al 7.424525045248911 8.480835540589638 6.8886391532126545
Al 9.105577732028486 6.417755178247502 3.16191552056045
Al 4.712037626982023 9.277140602069931 7.241708534953407
Al 4.219414644233609 8.961186547504791 4.68517800038278
Al 2.344005999864733 7.404512145990482 5.657557121567558
Al 4.9447729963296405 8.220596729906038 2.2196953894366613
Al 4.378275798892917 6.050332510385764 3.8023729953193683
