35
Energy = -108.93071663 eV
Al 9.488098721096758 9.072774903808433 7.575354600089215
Al 8.892576647106372 6.687373442421283 8.725828485953093
Al 10.495671041406645 6.815950535351531 6.295606458499528
Al 7.2603024789356745 9.024072381119348 8.858378967818128
Al 9.52746155197325 9.169250492628835 4.9109255690761415
Al 7.167877875992597 9.912775766457472 6.182699871489929
Al 6.691728903476608 6.82246807584308 10.420292027281187
Al 8.949253391006714 4.650466959169046 7.018904372537601
Al 5.028729761562046 9.063182184698011 10.381551437084186
Al 7.576112972865382 7.180764481158297 6.362074916085332
Al 6.619547838409092 5.214957450459178 8.217898254987823
Al 9.179148357109014 6.810054160922718 3.7874032289582047
Al 10.35946996636403 4.57625471847842 4.54866798406275
Al 4.960446856946636 10.132178227295823 7.824466795042034
Al 6.964233266576606 8.457236711705093 3.900910058861191
Al 5.082268941204725 7.355893353390176 8.129461857124044
Al 2.7875856015511093 7.67877287391391 9.920823886679456
Al 8.914710362230435 2.47375977034959 5.427006873620676
Al 4.46654901057569 5.435304620607478 9.979662425403312
Al 7.419639015234977 4.85008611308192 4.693016033919245
Al 8.639678500147067 3.597507672096142 2.5983153629406686
Al 6.636786051160132 3.065926518459061 6.630458633820829
Al 5.009970232334572 8.371980310983233 5.687190572045693
Al 7.119585238574968 6.106781167367134 2.2580260183418717
Al 2.779893183821864 8.695632629774098 7.368659089028381
Al 5.033845272598484 5.5402072572237895 5.824982727973753
Al 4.344762036695802 3.727891739229047 7.788804049023862
Al 2.576083618942142 5.989217425860729 7.900750577912748
Al 6.706595344665962 2.1073404944201632 3.84008929981964
Al 4.70690993833894 7.003076026470469 3.4241896201340163
Al 5.297019338302811 4.29752518974077 2.9450669336853705
Al 2.740814342301259 6.987504231306439 5.234550333900985
Al 4.416273519317695 2.845747938178224 5.0319138318025765
Al 2.4074144035469365 4.332181749842932 5.950927894754023
Al 2.7221339000545863 4.893408660231098 3.320757304940238
