34
Energy = -105.94794194 eV
Al 10.166563431203365 6.73492215367982 7.91994844902808
Al 9.504338802324845 8.160371457394819 5.756568558677838
Al 9.317505220586527 4.131650879629701 7.9331938345907576
Al 8.190274414004966 6.135233074471841 9.55897600766776
Al 9.038745933524378 9.523043949848878 3.4311729327858274
Al 8.557414935653165 1.4967723136573798 7.980973179122983
Al 8.857908127543416 5.5899345197833705 5.730394792651924
Al 8.663771894687864 6.897776658296952 3.4509312389767235
Al 8.523850435813525 2.9006060383070063 5.597902159790157
Al 7.013212574870413 3.472181581757883 9.238063848902685
Al 8.386722916371214 4.287107125118121 3.3600545779288176
Al 8.03937401363476 8.604865935050217 8.048853086134622
Al 7.699629225171899 10.12684934051553 5.7248588662574385
Al 6.959160055276902 8.283181427942738 10.560712228689297
Al 6.672080079796671 5.32048008301977 7.319085819803029
Al 6.613597016449039 7.487348570113155 5.636608600874129
Al 6.197159668788348 2.4698566321662505 6.862439411363549
Al 6.54478002299496 8.430500998447997 2.942407247184677
Al 6.1373408217114624 5.780762269755014 2.5002389878888756
Al 6.207566958865744 4.412190819537776 4.819583911756769
Al 5.562356571684089 7.503181621609964 8.317711128427907
Al 3.9440151307238067 3.163302109428054 5.684232088148008
Al 4.311417738636197 3.9849178661571933 8.303134658345954
Al 5.618809935046037 5.5020268234224075 10.192296807319183
Al 6.936019506569879 11.219531275785156 3.3409964287170535
Al 5.69831435875208 10.02903214669773 7.387558157410444
Al 3.636472833626751 9.32914648788644 8.941200341086835
Al 3.7903835843878135 4.722432872298269 3.4341304341375323
Al 5.042196074926881 9.737545082613742 4.759931508266854
Al 4.354851721657826 7.656443833474749 10.886676633371803
Al 4.192051875455949 7.356536496030999 3.9912526095712786
Al 3.4850699532142193 8.324335998941319 6.511947776598456
Al 4.042642181967175 5.78497928181654 6.1878328887622525
Al 3.0956836946495128 6.442233985914407 8.68941251033202
