36
Energy = -112.74679207 eV
Al 7.840814363845119 10.231785694766064 4.726077665009685
Al 8.096624555453351 9.512372572309177 2.0674645226733084
Al 9.153628010831602 8.92472862075985 6.657650944087505
Al 11.578169718374035 7.7912793466541785 7.767748087484252
Al 5.337432778606707 10.53193903452185 5.686429672054594
Al 10.153502873069737 6.411306696181296 5.948191163429993
Al 9.067949389133958 7.926142349122389 4.093302197714175
Al 7.220413291098121 7.046909612167772 2.3632586934914968
Al 9.267960906527655 7.956910223084884 9.129426832904795
Al 7.026456624056709 9.206803411850226 8.208319111545935
Al 6.621301481222196 8.025104346049636 5.784706079564155
Al 5.707368555653287 9.120253931082313 3.3764621632380036
Al 5.098571195659457 9.698230169336332 10.07520138717555
Al 10.164980238373332 5.447599397832885 8.534317262655062
Al 7.262529064330292 8.398429140632897 10.815136443615408
Al 6.543940206979808 4.524676740683144 2.621078995883125
Al 4.382284619318228 8.9609818941441 7.661091117016032
Al 9.062702797243993 4.038121222827438 6.42991119759221
Al 7.565819388060881 6.137480631126885 7.632487792904889
Al 3.580405611064913 8.444756815549733 5.032954216517512
Al 7.608238010136558 5.648858189298029 4.853825948887423
Al 7.779865535889091 5.856748886411754 10.273377772591667
Al 2.3382026897198807 7.3370088060907195 7.18188053690751
Al 5.0434504599651975 6.5159559875439985 3.927874934501825
Al 8.333273505074336 3.4852084774832743 9.063718655836926
Al 6.545752367915614 3.37385182423482 7.026051861673299
Al 5.254184310348745 7.084051282543341 9.544925378266933
Al 4.977054466463695 6.095639953089053 6.852889843023861
Al 7.426874549203955 2.8660240805408432 4.558220547514308
Al 2.833217995087687 5.5308766468682355 5.276382108721302
Al 5.666285835374056 4.526197909982165 9.206209686471784
Al 4.941721310550253 4.0394766415381405 4.711964804607128
Al 3.1030593369096926 5.506400250002808 8.95203752595435
Al 2.5105336898593253 2.6642319683744935 5.042884163674025
Al 3.8540037078932667 3.5332391917225623 7.294157612565277
Al 5.060179818858531 1.6091713117470667 5.6311363303985855
