30
Energy = -93.03839679 eV
Al 2.7264356530353586 5.636746070074373 3.855511684596557
Al 2.980974277336425 6.805576699519406 6.37004367246568
Al 3.3787422289793905 8.23609802421923 3.9032755025689596
Al 4.047575283261198 4.224750317533415 5.779381799353929
Al 4.883643391160366 4.337133152084766 2.9948451700203136
Al 4.564269719562496 9.292894032730148 5.960011988800085
Al 5.465782073423777 6.4043687314525926 5.162286689699838
Al 3.927964220118552 8.1137756413432 8.494252438374497
Al 4.953503725473784 6.875866223080834 2.288792931460303
Al 5.532399937721356 10.466435956106638 8.101510949651685
Al 4.9570344404325395 5.683113590100305 7.842594941579157
Al 5.934094496527597 3.1678632140554788 7.348658132859147
Al 6.328435731913273 8.558590463070129 3.852760929850216
Al 6.685049001485329 3.5787278708660595 4.701825251542525
Al 5.044338006844719 9.598388279818566 10.631262991543775
Al 5.973635997554153 6.999824482931999 10.002648227620368
Al 7.345629867190826 5.95168136692981 3.1479105956802216
Al 7.617569565279362 9.197701854793563 9.661111348162851
Al 6.522546144494375 7.827607981544065 7.453161592082693
Al 9.240851493445922 4.9122679703991015 4.6879402789349305
Al 6.8906151173804675 4.544593872731588 9.4041223425285
Al 7.523959431253862 5.274233195244517 6.859397166523207
Al 7.3178365324712535 9.882521953363977 5.952098947949784
Al 8.547015632992672 2.631025042541271 6.304470971532806
Al 8.204792771410542 7.350151420798749 5.319276509833208
Al 8.719607552985051 6.680155188423533 9.419856194525696
Al 9.128489138884525 8.698766507446477 7.5200000707624595
Al 10.093335243665747 6.270495214558202 6.964260887568994
Al 11.058708414874445 3.6677909441456373 6.42082383235384
Al 9.418289589576242 4.143979418828268 8.609030640309369
