36
Energy = -112.14095724 eV
Al 4.341346664845426 9.514608226008852 5.711888404866452
Al 3.24120869047412 8.344705159516701 3.382334007689065
Al 10.15816349199273 3.0022327068915384 5.912062478274113
Al 6.920524421848363 4.978096028607629 11.717916570765535
Al 4.582249810454281 6.1864587450769575 11.928001175883363
Al 3.5396835271640152 6.79532458424244 5.38600938702043
Al 5.885481095226899 6.34124058964971 7.1181900526980835
Al 7.654067171061259 4.430814985298539 6.065491642336942
Al 8.576565105109973 2.9179600133334076 7.995430335625215
Al 5.045443856619932 4.903185893719731 9.624665153005921
Al 3.431034656789652 5.134157523488062 7.408113890602239
Al 8.168681056352721 9.747539922016225 5.263763725853436
Al 6.029273168576282 10.297002474544902 3.7770668754698082
Al 10.127433982944208 5.220627043124637 7.473723532752866
Al 7.987609740352577 9.283246572807164 9.961648923657512
Al 5.289550274643027 8.75573910526905 1.8136247635652196
Al 7.153758860423388 5.150145922439195 3.597473465476046
Al 8.4077882692573 7.0253385659395615 11.13359122765009
Al 8.393635762880686 7.208797963605205 6.430801091125369
Al 5.7390919787756305 3.4384743307823737 7.57554070660967
Al 6.274818527788537 11.423538898174762 6.308436637997985
Al 9.836468088193602 7.336124170247258 8.858235209641615
Al 7.748316493705011 5.45963319621307 8.892569625888221
Al 9.41597978305067 5.770784305581058 2.0151475051003325
Al 6.9397538459505075 3.012544752810539 10.016136749569197
Al 9.73415992600423 5.311126605213428 4.600145185006518
Al 6.077590931533167 7.63050216966939 4.517116872065015
Al 8.71239479809707 7.783781787071676 3.70611001381529
Al 9.177554419402323 9.644511263186658 7.654618217545626
Al 3.8573351755848893 8.07375588205455 7.825286512005174
Al 3.132222121116243 6.754345838008224 9.931149436293289
Al 7.042776056971163 6.875884147657742 1.702547986148961
Al 6.486999170822492 8.98876011341394 7.568375763001571
Al 5.030831808265216 4.527661027110609 5.131929167821182
Al 5.944353691875167 7.464302025779753 9.80259595501789
Al 4.614540142936596 5.96573402853415 2.8909483192432877
