32
Energy = -98.84199678 eV
Al 7.219970746918827 9.968641254700902 5.865368892476458
Al 6.481950868001005 9.641882246325546 9.350639734568388
Al 5.163131071755443 10.847245021828877 7.4124543544587524
Al 8.178520206774923 8.19488362963022 7.932563312157712
Al 4.244236196123884 9.891367882349238 5.156392205866299
Al 7.818495609798396 7.421333159137908 5.399772070263983
Al 5.952229523764828 8.38194499339755 3.7945283603936892
Al 9.516868878487992 6.096649911328156 6.989839638547634
Al 9.734374825052011 5.902405512944045 4.195600366640405
Al 5.51320492765999 8.136715375210017 6.886704463576561
Al 5.7795237471582155 7.027265295019175 9.743706317469675
Al 2.6655055646901538 8.143619886458147 6.5552934700516285
Al 3.7948532642175823 8.764648896131614 8.936893158693687
Al 7.483488267835909 4.7254434003446155 9.910406745008967
Al 7.301439624783306 6.187650757235989 3.0815231195262034
Al 10.359878504889542 3.735733906218861 5.6253212261143375
Al 8.258529836937408 3.542568542170405 3.1928698753330798
Al 6.551953181780891 5.746806697930354 7.483862142758448
Al 7.658291793371758 4.6027391371388235 5.498547978024124
Al 4.909006059072214 4.253265012101758 9.255548593761542
Al 3.082762824375345 7.718589337231731 3.8948018150560606
Al 3.7733916922019883 6.203164050690902 7.927935414472129
Al 8.185733306021433 1.9197060809106685 5.747426051156297
Al 4.678458135686184 6.4879725518241464 2.1746326244834937
Al 9.00646111676393 3.631480341772821 7.9297084404247755
Al 2.3295748222288037 5.675455152774904 5.56585079644012
Al 3.402406622186271 3.786319594822187 4.019382069801422
Al 6.455545408954925 2.9134402351006132 7.544122944872829
Al 5.646895277395256 4.090907956738354 2.5383465163257792
Al 5.1068478931629055 5.901370167975309 4.979575221824501
Al 4.103903989247184 3.8982157103407253 6.638447064982165
Al 5.741459283812375 2.6980305876826236 4.862019270242539
