34
Energy = -106.69534373 eV
Al 9.32557459112162 2.576354337218688 9.014675751772295
Al 9.21637943141742 5.252014690970741 8.786064268102825
Al 7.571318933351902 3.9811358309269917 10.53307921312887
Al 9.182330178852208 3.5674035387337657 6.528112970468646
Al 6.869548610456264 3.0951019004851292 8.05771365245906
Al 8.968990876497534 6.240816141656572 6.217513569371666
Al 8.961214542295359 7.801066193278908 8.459116745484618
Al 7.15665974500397 6.699523638106747 10.29154213853532
Al 8.933872198267101 4.7150315047644185 3.8972969536750277
Al 6.634879995015213 5.969237880319718 7.658943771987382
Al 7.650708859922042 9.302233942455944 10.399786421532227
Al 5.089263973360762 4.776133820965753 9.652263160911668
Al 6.753394023217966 4.221198997664204 5.535299909566198
Al 9.813073736973964 7.278941887457129 3.866370195915005
Al 9.879640648534467 8.811682521497504 6.060207007237957
Al 4.563944541453543 3.7694503025917574 7.103765510815978
Al 7.082671920147157 8.218884795629554 6.173420184939312
Al 4.330407692071768 3.746711929195899 4.36016476380865
Al 4.95977284306562 6.2859830049389265 5.526255585645488
Al 5.815931428351834 8.607151829056745 8.583067611224644
Al 7.966620733931658 10.251301740817599 7.928247733086172
Al 8.7544588435481 11.231901764755568 5.600751113441056
Al 3.892271912698167 6.8261064356978345 8.004214102276386
Al 2.5732895167402 4.6532574055968325 8.837989723871924
Al 7.946399791395923 9.382047901464444 3.844489370101252
Al 2.217797610480456 5.262887729199667 3.6071217965845768
Al 7.129562885040327 6.697772897651366 3.8703988499185003
Al 6.48059170623849 4.235063631703853 2.8428105455156505
Al 4.214069933510084 9.011297463500684 6.463365323140916
Al 6.082044202733231 10.70217264853456 5.72998936694253
Al 2.450418973988013 5.213288744702545 6.241540377283365
Al 4.558556684659991 6.292387465686549 2.810338265685487
Al 5.277268978685626 8.718923329513458 3.891973630994098
Al 2.7832637637661497 7.691726460054056 4.708304721368878
