33
Energy = -102.42669109 eV
Al 10.136583404392557 5.975139420660313 8.167600122960556
Al 9.654597461675431 3.554883227889049 6.342995479046612
Al 8.993785705484372 7.508398881248922 6.231026123398334
Al 9.069553996306656 3.8137219508932327 9.134792865959525
Al 11.038308263420435 5.7637819792500435 5.604254916056143
Al 10.148955986438702 7.4505145553019325 3.7702618061261757
Al 9.456226304255821 9.896223303064156 4.684389889406568
Al 7.535750613171779 6.319125850191179 9.670751858457441
Al 9.019172275477512 8.412100213349301 8.828185567405294
Al 7.637759681825525 2.230025003128453 7.590596724015037
Al 7.5279710578219206 5.115137243353744 7.160472573890085
Al 7.29166926506233 3.112548865829552 5.092828393043618
Al 6.912174766338492 10.719655625978811 4.370612830973847
Al 7.555520902889832 8.234068683531621 3.626217506996079
Al 7.881986510387699 9.840638796364676 6.893143204602101
Al 8.06221185061476 5.67264267957315 4.437863852802425
Al 6.442577645152788 3.9403992009024544 9.6679811434658
Al 6.258541461810953 7.4832899743669845 6.062922123041679
Al 5.1811374831473564 6.01913452854421 8.148837670067758
Al 6.26248887023048 8.58707130772702 8.67777000384117
Al 6.360311082864778 4.209952619951881 2.9046935803951563
Al 5.128424332557248 3.0306306841367023 7.3887748458721765
Al 3.7701069758955326 8.452447094745814 8.050406824535761
Al 4.804514955732959 9.108611532220404 3.9233957994563307
Al 5.261260381126835 10.157792474204928 6.430625179310004
Al 2.453274554039388 6.221483848621942 9.054419802721917
Al 5.182469872131497 4.803445997953226 5.325418980692558
Al 5.438093373533565 6.596418325623335 3.335580856729085
Al 3.7730121974457065 4.015580966624269 9.484038244433915
Al 3.6063419473000367 6.97488808984285 5.359506499154758
Al 2.75346262518138 9.527793051740293 5.746257452913521
Al 2.9973583593805495 4.719235977866968 6.912774515493114
Al 1.4360908246299544 7.564913033043897 6.952297750460926
