31
Energy = -96.25418873 eV
Al 5.71622004234438 7.436812512435431 1.9197719916702216
Al 4.578460897051678 5.009536305819275 2.8786167211233176
Al 7.265494370351807 5.235119880846409 2.3890426980809885
Al 6.594417796642937 3.9977820227893184 4.7580867602399906
Al 3.6205586048232297 7.48956156200334 3.573849194133532
Al 4.095583740357578 4.633224822482706 5.439898827455066
Al 8.337783550542772 7.777048573022386 2.998943340501355
Al 3.7479081186042342 7.1064101521509855 6.3399897770100475
Al 6.019227694649629 6.733328464927305 4.558369114866913
Al 10.509660109698352 7.57691067446216 4.94039053607504
Al 3.595452648091037 9.668362748328681 5.044499426522627
Al 8.621963202688317 5.705077671600056 4.815675021238001
Al 5.776338400776284 3.191570570904928 7.173541427022147
Al 3.9929186374404657 4.969369456975644 8.136727959389487
Al 6.083259487324142 9.396590684048707 3.8375528080081045
Al 3.3998512721327905 9.603510456680938 7.684259787225502
Al 5.74952847824332 9.073810343497742 6.57515824560972
Al 8.042078539540414 8.411045570461809 5.6639177838384525
Al 6.495410024951592 6.0704615196326825 7.1260568224966425
Al 8.32968410365461 4.069742313484567 6.83792985254696
Al 4.740605286218625 7.45206589084569 8.785078279832245
Al 10.957360692610635 4.980525996063109 6.183198898157409
Al 4.922464747370192 2.811920840465962 9.709423412225915
Al 9.336171524214771 6.789256859218662 7.366755940561559
Al 7.499299828384496 3.634552113098801 9.351968853058214
Al 5.594310411775416 10.010357466470243 9.256327390008835
Al 5.606634996417661 5.379047496921288 10.29226283413218
Al 7.595806713565907 8.495621959677177 8.389190820885005
Al 10.077054093071983 4.523799114045189 8.854342217451368
Al 8.155899197418346 6.25495697024025 9.711674170736497
Al 6.3802190772588565 7.950245274614086 10.845125376113097
