37
Energy = -116.28339878 eV
Al 2.4076779233633423 8.177133543636941 9.01826121986566
Al 1.610526049523417 5.71984953404447 7.784620193519936
Al 2.814979633113658 7.809994675553159 6.247147296593185
Al 4.761002635225035 9.062237901670265 7.8278687827024855
Al 4.476237398070875 9.665780038416548 5.168833379521786
Al 2.818892693061359 5.732694749205474 10.208269453165157
Al 3.077248983992007 4.934861058945857 5.635745632092795
Al 4.872060424364898 7.691157452069459 10.173526907432425
Al 6.825693298690754 10.347858181133926 6.538666723196683
Al 4.457630845550956 6.857133155958537 4.2791259508601645
Al 4.349063399764759 6.337589114706889 7.813536293728736
Al 6.2910874444283245 11.394859409241795 4.042282597916111
Al 3.9086080264007266 3.683716035789967 7.898791989192018
Al 5.943308214894515 8.772237340956163 3.0674105261289277
Al 4.444415620999091 4.251736055742283 3.4290453326506554
Al 7.328059466048769 9.1572924945426 8.894555267807743
Al 6.333113799515616 7.68126004360779 5.928958019613286
Al 5.295432657144037 4.932993771248964 9.97635253242691
Al 6.940089625453455 6.413983263146451 8.271312890865248
Al 8.232303279020147 9.493022928820677 4.378927348746343
Al 5.78443497673461 6.219262443147772 2.048353221322867
Al 5.748834537001275 4.821214124867195 5.876888000467572
Al 6.664317883070639 3.5200957829312904 8.091333430348772
Al 7.784067402738188 6.903619625571087 3.587071189322454
Al 8.826659842512335 8.369121211072294 6.817090991233431
Al 7.9224307488908545 4.8719214893081135 10.312786497026437
Al 8.36126813861814 5.714890996720539 5.953199079583743
Al 7.364728346986745 7.452038444895371 10.943380266562581
Al 7.173810571187174 4.278327011135152 3.612636697305852
Al 9.39293489475535 7.140683495307405 9.214997150407163
Al 9.273871489009267 4.375332172495314 8.178687939492002
Al 8.112544112614861 2.9664692275777393 5.910344570264526
Al 10.17986544317989 7.555547024000395 4.611139241987933
Al 9.776094438186627 4.910795551891194 3.593916284423875
Al 10.853398079090391 6.456969600557466 7.09050683123849
Al 10.660916252128036 3.8470853506439067 6.055709904959779
Al 12.138858839149867 5.685703113918881 4.7251877805059355
