31
Energy = -96.03861567 eV
Al 7.5525637738495 4.454052795440142 5.838578964144117
Al 8.364878617784223 3.101615909239861 9.617686476531327
Al 5.234163374293668 5.636659757568623 5.052859108798865
Al 9.680786087255036 6.324522466117238 5.655555577125921
Al 9.532310570498106 4.494310360388577 7.607939524282961
Al 5.1987657043181255 2.901680963258892 5.540117482448511
Al 6.523102612782925 3.7950411246567444 3.3816270263922146
Al 5.606867364289307 6.288999954289647 2.313860386658868
Al 7.206712109943004 5.414770534961413 8.768005856961672
Al 3.3495275880624793 7.1321136510784635 3.8669022348982733
Al 5.804639811521057 8.439557579752694 3.9889894293731296
Al 2.794525235179731 3.8811465623833747 5.335977070098815
Al 3.8559888436871277 4.45398578004867 3.02839056918702
Al 2.507008878719652 6.278761198873656 6.244316682708362
Al 7.473897735635707 8.114933104527667 1.9144584480360198
Al 4.600492545346329 8.022662239626326 6.302664573808361
Al 3.0417811510039945 7.604922441255403 8.490157928373879
Al 6.791620585023572 9.801643698078111 6.121772980899202
Al 8.515547227701354 8.616982455761867 4.279282735824415
Al 7.917254892952404 6.067448813940627 3.6984115000529383
Al 5.152050828901946 9.743427356298001 8.284398173844496
Al 7.211521886791592 7.148245916680067 6.591118451401119
Al 6.442510379232197 2.9800237539959293 7.881237963261852
Al 5.4949036400716285 7.299289105504063 9.319659656224017
Al 4.724744163587402 5.257008108554627 7.7054776472949795
Al 9.643156671264817 9.21291478850507 6.534766920816644
Al 7.899508499742596 9.42181410253018 8.55259074920147
Al 7.901022883696565 7.461569890577337 10.41096751036695
Al 6.270979957341146 9.599977622670853 10.67391465646334
Al 9.604591013889895 7.168072473204674 8.258684282692503
Al 9.564996488358279 5.344266612956402 10.202050554553285
