30
Energy = -91.70593619 eV
Al 4.308139782621081 7.083543618542177 1.8649286414942494
Al 4.662305538846785 2.4737654329940697 2.177718126743928
Al 6.853119386794773 8.0916550859705 1.8095688965744514
Al 6.1363356504552415 4.712858743071204 2.539821484974459
Al 8.33824187070848 6.265725576350883 3.4527697134206408
Al 3.171617812297771 4.760994287136315 2.581790515799066
Al 7.563838288555258 8.90940478535005 4.276646184105221
Al 4.802386995299719 9.107727224401785 3.775693178820984
Al 3.0967117586366673 7.0095085768403225 4.325961069411281
Al 5.827852833285152 2.0247001968786877 4.5551385595838205
Al 5.803088168494308 6.741581212109257 4.377507961725519
Al 2.8425658971723666 2.3273643213024107 4.188564477910513
Al 3.987783637080892 1.286109845813259 6.411293972382869
Al 6.982450323801066 4.541783581952031 5.120570644112832
Al 1.6998776477827295 4.806406603775163 4.967644194843599
Al 8.123700809703596 6.968961121195316 6.165278489788241
Al 9.612967109428961 4.718216413871302 5.401021595318602
Al 4.359473420653244 4.379458850221745 5.1126558074501895
Al 7.0330689152943915 9.430086708007385 6.855688702268489
Al 8.189048375399262 2.4139720601698853 5.97166383837653
Al 5.669296481267718 5.91751835640025 7.128984563690902
Al 4.5969613533163685 8.410946112937964 6.341874534373678
Al 8.043979816360062 4.708446592987621 7.695366038574157
Al 5.806081363739884 3.122131037760085 7.325626669614578
Al 3.003720361059428 6.22044691615478 6.922977548659324
Al 2.6653641964344907 3.4530050351654507 7.169972472699797
Al 7.224009153895228 7.554956806739471 8.735565486522935
Al 3.910029934019379 4.816662490109995 9.061406797706436
Al 4.413921398843366 7.575625838110473 8.929879737398913
Al 6.398175198982805 5.292550047910628 9.882533575884734
