31
Energy = -96.09818291 eV
Al 7.689098656349307 4.137563118474702 9.196172303672267
Al 5.764757640624324 5.596499286026519 10.511405684941131
Al 8.953103779600529 2.771320485032997 7.190743438342438
Al 4.998963613708067 3.1154402876517127 9.625246802787307
Al 7.613757439894612 6.891973963350783 8.90814204158013
Al 6.2610331522321605 2.630933431506228 7.1528279981774485
Al 7.5857611889783225 3.5527613567781855 4.816583262345308
Al 8.601673400861339 5.392313846796141 6.879594482321398
Al 5.798317892574361 5.297108961621253 7.556028774380249
Al 10.22878431761164 3.9512510369012124 5.114581878493651
Al 5.050034198448028 7.8011496762823676 9.24686524108115
Al 3.3865028460271103 5.442604675026056 8.906853093654092
Al 3.6629409835799183 3.3551325933069642 7.220084573754793
Al 6.705920465962444 6.146199149276288 4.952231791212156
Al 8.279698303106546 7.963243215459557 6.397426299709633
Al 4.965291344325665 3.929977873604628 4.979576929736689
Al 8.875180744369647 4.450392289522302 2.512237490608625
Al 7.030170918056165 9.441353066430331 8.237039636937016
Al 9.408905082346482 6.413963792248912 4.455492754631581
Al 6.1708968548997944 4.469642450893236 2.6553590613547886
Al 3.56101563935647 5.830258520411284 6.161422450159201
Al 5.4129928586509415 8.014718021644168 6.484844199884159
Al 4.432660562943375 10.108107629444172 7.983789854847864
Al 8.555254141560145 8.855253126365211 3.8645842514329782
Al 7.445749335473607 6.86010905858578 2.360249812634226
Al 2.7976571332218967 7.872212856797824 7.648660384609185
Al 4.447616692351451 6.272571320149223 3.5725029697663118
Al 7.147017351040026 10.366055140051479 5.666154649798608
Al 3.110391671659461 8.232856712532264 4.947827966912566
Al 5.795634672055617 8.580930922431971 3.7968239608035743
Al 4.500693357772526 10.493894031810587 5.2437082969446225
