37
Energy = -115.97561061 eV
Al 6.242376229899049 6.41560548713112 2.4229655624673243
Al 4.815052807851533 8.623415107570912 3.13200375499676
Al 5.074543543695468 3.9880435600200803 2.574536981773564
Al 3.628108227018073 6.193357164185023 3.3535071858594407
Al 8.66129466736467 6.348447473322589 3.3450838644969254
Al 7.52044457557098 3.8116676768650937 3.540604411123477
Al 9.383905005695308 8.959706179851855 3.998957377092497
Al 5.187061893413328 10.061595870216477 5.271598012793389
Al 2.5820077576965272 3.5719694596551794 3.531797291011558
Al 6.942738030165167 7.954107804794457 4.8217319650666965
Al 10.036891188931985 4.1173388702632 4.581990780764356
Al 2.9982281950316283 5.106834644471401 5.719586568572323
Al 7.8848021523631315 10.44285771511005 5.620214384759126
Al 5.777106997946759 5.388237881987888 4.963880059281649
Al 10.80920100662788 6.7911706968242855 4.902706902599686
Al 4.207393409369411 7.591856590512961 5.6060107471571685
Al 4.657207531055312 2.7646875809700946 5.069207328641577
Al 5.950393109253949 11.642167671729435 7.294184845497307
Al 9.286127633441998 8.312733830156267 6.58012535145195
Al 8.304054366869009 5.693034551765716 6.023504226894841
Al 7.076148314747866 2.96304017521919 6.090539761530152
Al 4.612929288931226 9.164558388604704 7.897867166142545
Al 10.699726277045052 5.9124811544614735 7.357709659564137
Al 9.53686261063935 3.324258726259361 7.136233110516058
Al 3.3035918795199235 6.598243206002818 7.95123494796878
Al 7.354629907981633 9.454839234746208 8.078965088161652
Al 6.230016560113236 6.889703321388712 7.361566577403441
Al 2.03978372410486 8.736454402106148 8.991088906720174
Al 4.910410923164097 4.222709939793157 7.398092721329343
Al 8.694317476311024 7.067020160233515 8.737929030660723
Al 7.372541426622973 4.480703338682344 8.343250226026194
Al 3.8275180765968906 7.731104026614868 10.564927461573914
Al 9.785530863495946 4.552396860229074 9.500557971921944
Al 6.470547586958926 8.013868402341055 10.019164569257114
Al 5.199077697207042 5.420599699117223 9.6961106601723
Al 7.73688558815667 5.594197195110816 10.807850822519272
Al 5.625746543408661 6.520189025952753 12.137916790497979
