31
Energy = -95.40562744 eV
Al 7.1542750050716615 8.695940118856859 4.592672119516679
Al 9.766078688631488 7.53987799988302 3.966402022044921
Al 9.881784026164539 6.115798399337498 8.362329308726737
Al 5.110259395998629 7.80782227253907 10.315588206180342
Al 8.362784212988336 7.19830669661531 6.397995554649339
Al 3.282085002962455 8.749868306043382 7.237170891798725
Al 5.841774814427821 7.732588465441483 6.911957729559592
Al 7.516002589294537 7.514884996165553 9.049720376253923
Al 2.9371417010398573 9.440977699643398 9.845254742144414
Al 9.475450466418595 4.7590346621276565 5.988572711870481
Al 7.638749409700249 5.797963494380558 3.839903558149595
Al 7.842234074852282 4.524487691921231 8.494713790966184
Al 6.488782812505131 5.171831289604011 6.24958632104745
Al 5.631527605939275 3.0769378960241704 7.983530500116778
Al 4.050468166840012 3.5879390302473646 5.71541243205257
Al 3.171059318420175 4.149571274613068 8.264951309523425
Al 3.725450005912287 6.134662830365641 6.476438325247474
Al 7.502429618766559 9.899829306620893 7.137914454371086
Al 9.801064203957699 8.793268473947611 8.138990121523213
Al 4.852462253643152 5.699848260837296 4.138541197009218
Al 5.454236998339152 5.584457290550933 8.886717425042205
Al 6.37055925589772 3.4436741462547005 4.007535585747016
Al 5.641451887277193 1.4274520541315712 5.758564650101037
Al 4.312104726828504 8.358313246554054 4.768729320719454
Al 5.738997862495658 7.648437360923309 2.581808996491029
Al 8.292552197663422 7.681295846978778 1.8326862620093984
Al 11.131947093177862 7.2584332719684115 6.246759525927198
Al 2.9437577285181855 6.722391714377742 9.027303925565738
Al 7.897622166610018 2.6765932033859356 6.485616330068163
Al 5.320498621145132 9.91795507296431 8.581161016283625
Al 9.689803135304475 9.714952673486776 5.540866336084884
