38
Energy = -118.86531034 eV
Al 9.996071738348293 8.424598157029951 8.58692433706217
Al 7.8449437128996165 7.2594126146272355 9.80099025641098
Al 9.977952988236677 5.737827297318692 9.203427652136103
Al 8.257453322637115 10.44565005340717 8.898369517914547
Al 5.928442880121008 8.942031691206179 9.541327763607125
Al 8.484536132763147 10.836883147676115 6.11158541971717
Al 3.8050564531890316 10.442035790880501 9.035308686345209
Al 7.4791773464973055 4.510122687394596 9.68099266004803
Al 5.909581217856069 6.146930266149402 8.2873543930275
Al 5.899682186096015 10.38481211584543 7.249605214809843
Al 10.020991773608353 6.83428582680789 6.4508484372860035
Al 7.705890023425756 8.268670254520234 7.191299925735639
Al 9.771460368105858 3.1179666006972906 9.529838569278851
Al 6.446216299725616 9.88932451822384 4.679803082262379
Al 3.6264576204359744 7.7799226758867785 8.48345810637673
Al 4.9266505179669124 3.6777493032306516 9.392245823393162
Al 8.701891984802147 8.3445405753268 4.555048180733264
Al 5.236398564802604 7.709479728979538 6.226837815095977
Al 3.255228637492247 9.63899262958065 6.520672627884143
Al 9.232526562573385 4.113066732011564 7.1306811930817675
Al 7.5124788013691415 5.952580558995808 5.844919545388525
Al 3.3767403702515675 5.326184356444193 7.813377551574832
Al 10.905414766610312 7.1222668422954865 3.605116424804263
Al 4.046309641648088 8.914065340732005 4.056234600901032
Al 2.5042958821063936 7.131118225147317 5.891779889288261
Al 10.294404599864581 4.809099780493435 4.775969106716068
Al 6.586116058561555 3.658770315584663 7.127703246343111
Al 4.979431367147243 5.104282187452797 5.4497681490126535
Al 6.259726580217161 7.271798510316545 3.731097016158532
Al 8.483234273952434 5.93052142371065 3.118575723979191
Al 4.046459709356931 2.8435151655141864 6.955203064299131
Al 7.977696379390448 3.493783058819114 4.71707471383136
Al 2.297874117417964 4.560729698505742 5.316456984635551
Al 3.721354643021965 6.368079439217163 3.442144615266831
Al 6.17697557439214 4.674882858982377 2.909389381721924
Al 5.55740041968684 2.5226858819162 4.684514754934777
Al 2.8271226516374317 1.8397654785761433 4.733016089869306
Al 3.7302568241848397 3.761471202896752 3.0609424714674494
