34
Energy = -104.43575352 eV
Al 3.9781942374029473 5.068473105714964 6.745130241017711
Al 4.9527588236699405 2.7333359993872044 5.743827801529124
Al 2.9843005899556228 7.809946327218513 6.466274438812185
Al 5.315253945720205 11.696360547698058 5.370969914212499
Al 8.822641884837171 0.1662828551449882 7.982316670522578
Al 4.241490705187801 8.045667066563539 8.789668622976107
Al 8.156184828452716 4.737258547290534 2.9390247885295473
Al 2.1330697997145798 7.921260690165063 3.6605976461925778
Al 5.532469351436204 4.183153673485288 3.2982297683095183
Al 9.523682920603635 4.424463359815377 8.08270870910982
Al 5.855030199078106 7.102783338744621 6.4525009888707565
Al 4.511663149481194 8.310404354958155 2.3938418042841247
Al 6.173087002570348 9.343058514578075 4.228824103458395
Al 7.529390682544667 4.692830032592468 9.922066100899771
Al 3.0989301460059657 3.7979966433499803 4.295388317702551
Al 7.78407975822844 2.33027594696227 8.959127720949937
Al 3.558499853418459 9.868083208837614 4.634650022705876
Al 1.6985170216658543 5.840672109068452 5.183862059245326
Al 5.146602715988772 3.160464140649748 8.53216119792998
Al 5.428056812848637 5.829977308396154 9.024867250718488
Al 6.76191111110803 6.794588159344589 3.7891602004420886
Al 8.193681464061815 6.7281762738884 8.04884371826904
Al 4.237196340691247 6.363876680173677 4.2647762945282075
Al 6.252198829873465 11.601502009972256 8.287488501638308
Al 9.224569881950233 2.2958348663744643 6.512191018215372
Al 9.544230832239135 6.852657794277385 3.552929196495547
Al 4.847717924613189 9.718367081520933 6.964760189420596
Al 7.573030616579767 10.495971844651852 6.252044773012704
Al 6.671491040887711 1.095650482612482 6.7856857172391
Al 6.921787964869148 8.978854920980675 8.556227073750543
Al 8.418096235221737 8.106488453094828 5.600506965014476
Al 6.8485097651728735 4.487386290624598 6.997130623395732
Al 7.433492860205323 2.958137946976066 4.714757765156174
Al 8.968742374897756 5.151498939294696 5.557000526492379
