35
Energy = -109.16124309 eV
Al 1.5577772053210286 6.29319083391092 9.614765239308344
Al 1.5102707868152145 6.123918725053152 6.893939309729117
Al 2.956690513700532 8.09412676244705 8.207586072518685
Al 4.010522771832363 6.9120724822698305 10.52475851215151
Al 3.011714315377477 7.885670348744818 5.485028360058919
Al 3.6492818623502608 5.214389943124897 8.314494045488114
Al 3.5773977389322162 4.999462298413572 5.552716968126483
Al 6.749818222475922 8.414067092165752 2.47669693768244
Al 4.027361479171782 4.234732238703335 3.04382142285437
Al 4.242168849981304 10.01382649557486 6.939731051215531
Al 5.4894644185441654 8.764595514329121 9.063060237431525
Al 6.341857941508027 5.335240964998959 2.3477864189416375
Al 4.598029053410402 6.815609856185877 3.6545371527098798
Al 5.310584575681905 7.085327640397639 6.769643933970907
Al 6.116261209038765 5.828098542976853 9.174348836294168
Al 5.619373443797509 3.7376629415582325 7.458382750834004
Al 5.38204309866613 9.095152639101014 4.732531694053101
Al 6.546306213087934 7.532356941643828 11.252211856094366
Al 6.9479452048357455 9.521784980587297 7.013320590852487
Al 7.261169719033701 7.027419931269167 4.794780369590319
Al 8.043820428042102 9.741204231864982 4.6266755343149875
Al 6.0991046986985085 4.2206870008475255 4.81493213050976
Al 7.811237199439266 5.594800344370698 6.9993148522442405
Al 8.045715594249078 8.038062408727024 9.077697442545587
Al 8.679986079165461 6.39522723121285 2.3321978258268086
Al 7.869730103619811 3.5916298354202083 8.98361293897808
Al 9.19613298764615 8.08593967895095 6.703698783026681
Al 8.443863641677849 5.722138909510642 10.608678052334668
Al 7.753953893492509 2.672391409612601 6.280366682875463
Al 9.922123962710927 7.990256489133972 4.138328190014041
Al 8.79605224368757 4.70155914610395 4.565851282230597
Al 10.137959866763246 6.3124467548941245 8.603529587066461
Al 10.747738962690113 6.029175798572138 5.975616017316928
Al 9.97179233616119 3.7845876219718995 7.1954515793312055
Al 11.07781842235669 5.694255009314388 3.282976385442236
