37
Energy = -115.70725959 eV
Al 5.21227318419428 2.8532886926322085 5.426540224266
Al 3.8649320140125045 4.567073446741139 7.109076203161168
Al 7.557985958511603 2.3394751997038283 6.8618528149557
Al 5.98897074792455 3.7890437853382046 8.463054793762575
Al 2.5442422954401898 6.696200907963201 6.1389219189264805
Al 8.229120972853517 3.0134419718754453 4.391162351928696
Al 2.8525089274087545 6.531815138490288 8.7890258970054
Al 2.228846843687668 7.103698266454542 3.47358199853023
Al 6.287204792703753 4.325572772848582 3.143300342336652
Al 7.3892790159209785 5.088113937928142 10.955879151251654
Al 8.670036682484378 3.5017206540179915 9.133704562796217
Al 5.10448340900284 5.909330440188228 9.846819686071973
Al 4.3299809371101174 5.4635832444384995 4.513271121338013
Al 2.438330419666432 8.954912183740426 7.834135297138909
Al 6.7391986965628 5.027122946885412 5.856270854039029
Al 9.248021171164462 4.416292085490297 6.578680447977163
Al 5.1698443340948455 7.021240585777127 7.0862427406083075
Al 2.137036353748189 9.212780245599689 5.199611600219734
Al 6.993470113160254 9.520822908748071 5.052816699881772
Al 4.649864746831831 8.720590797920092 9.19576009890854
Al 9.154294478841813 5.557297802038112 4.075816790078581
Al 6.699169768178405 6.933441121899927 3.641051570924338
Al 4.584022824871723 8.178185636636337 4.561862450921301
Al 6.839965089503327 8.020412898475612 10.352208927696859
Al 8.281790476279381 7.331939536456193 6.001870015015296
Al 7.624776235141787 6.1107236782032075 8.32769624231271
Al 4.766164001099661 9.785619359482398 6.642212098071416
Al 10.42615332671483 5.458165962241499 8.821367852641384
Al 9.312204986680634 7.141794571197477 10.676417485681931
Al 7.02115250260186 8.98159018231852 7.811779173843167
Al 8.968015604253397 8.259821332654992 3.4890715256328377
Al 9.37061494468694 10.835224016922108 4.2296711409655625
Al 10.908567982709126 6.392901627317261 6.236555010107987
Al 8.81061798905148 9.852612113305703 9.716331805169334
Al 9.876079237896642 8.023754576775787 8.101068582337218
Al 9.075471336736028 10.372150401581807 6.9332648340203065
Al 10.77672804820603 8.839665419648503 5.463466139412413
