34
Energy = -105.82824221 eV
Al 8.706731024515408 11.216805855855068 6.624188567106409
Al 7.306984325356562 10.791922020264337 8.888868242522697
Al 10.063306394222677 9.103934376286647 5.413832128862484
Al 5.609386590189792 10.471924658603387 6.985380062999682
Al 7.323395567747352 9.750495268311134 4.822510267947646
Al 7.899190238925255 8.749758130021394 10.389419558010088
Al 8.444978411949213 8.641862956584948 7.621849222570331
Al 10.822915848677068 6.617637188920167 4.48823838313605
Al 5.659316376842658 8.446135768302618 8.945409312724793
Al 10.114257626455473 6.346481296980841 7.019874088885286
Al 4.4472243529724045 9.633671343169693 4.805563826522146
Al 9.344006405259986 6.782854370547451 9.456018974173908
Al 6.057723656608643 7.7817628751681776 3.501314565342498
Al 3.4408888209447746 8.301367537027193 7.374603109094492
Al 8.287552991786209 7.244817997663434 5.079985256921443
Al 6.032078531480706 7.855039938957464 6.34603822447743
Al 6.706190986506023 6.3621614993829 10.393199213541664
Al 8.767643490614242 5.036099286962891 3.6097885115764328
Al 3.8104680368649033 6.983360004727171 5.031427389444215
Al 8.657231773573361 4.099979933737128 6.115271372568134
Al 7.518944053016723 5.851967144342116 7.764353028614537
Al 2.2727644603898147 5.780748365651792 7.038004287562833
Al 4.842750370696014 5.987654921426829 7.946726866200842
Al 6.256151437912334 5.50592746027454 5.218363703888918
Al 1.8981386143732675 5.263096163090549 4.307096024623578
Al 6.691677949017246 5.471953064105693 2.0924461836599244
Al 4.337595796969401 5.105770948895911 3.154329068820321
Al 6.580202880644947 3.2280008005734295 3.9405601210796917
Al 6.132250296202351 4.06919133479391 9.442862396258871
Al 8.02463353764632 2.492097397074516 8.234375529720582
Al 3.881116273285455 4.043244982055597 5.56688786606444
Al 6.0518492832136985 3.1882203023682387 6.6529784854702685
Al 3.686333248875402 3.579847506180555 8.225228857917376
Al 5.579541857972155 1.4696288133996336 8.75842881339752
