31
Energy = -96.11077845 eV
Al 8.199129034132062 5.007167798146879 9.288660076620577
Al 5.702388825111288 4.166350656035146 8.518926538543738
Al 8.544589419558896 7.735028071066947 9.021718607184482
Al 6.320662317617914 9.205152089084786 9.795324476811347
Al 6.123081394666823 6.540671792781911 9.912712015910847
Al 3.595494185198146 5.799040766508826 9.11145715876732
Al 3.956920977343552 8.05587308217916 10.426742833004173
Al 9.647840196859336 5.921160426094442 7.208791049377746
Al 8.986561920452507 10.290816408435274 8.338640760589655
Al 7.850399738515665 3.8576787393437137 6.914674737853833
Al 5.254537034659444 3.084157036577854 6.075021916297251
Al 3.1346418506308655 3.581004652397291 7.692424478374216
Al 6.469312929276891 11.063221242134366 8.00085909714165
Al 6.868739047418034 6.443735896091573 7.234712530321012
Al 4.802896850921066 8.208956650051517 7.749012780279249
Al 5.126759853780301 10.367247993860504 5.8684596168652305
Al 4.3180579650755355 5.841298906647016 6.484016839446835
Al 3.561377229610872 8.308840044411422 5.332465838804211
Al 10.127169837409076 8.524083862957044 6.7151593148184725
Al 6.549638452586108 5.389652845694739 4.892949995773125
Al 7.484688485461702 2.6782953769853868 4.592596375273164
Al 11.136933695464041 6.695487497555628 5.015034025834686
Al 2.874030750027112 4.043907952781017 4.909694231954307
Al 9.352183589503765 4.7083941596175825 4.740324065985468
Al 7.378034008477126 8.976823792520731 6.6134315691618095
Al 6.076998132797528 8.4980789338481 4.254139324342707
Al 4.199679353085101 6.36773914517832 3.7252805538735076
Al 8.43620916470416 7.3348374345221465 4.787522601147728
Al 5.108165400801012 3.7550264137107434 3.329231389129085
Al 6.640900176368279 6.742452994380191 2.4635263150650606
Al 7.68691028478445 4.3227494406991624 2.501420987746765
