39
Energy = -122.52907695 eV
Al 6.917289327583156 3.0417913626204127 3.5030589001306405
Al 9.390122281138273 3.905750106559093 3.8028247213487494
Al 6.873954979700409 1.4068101033010583 5.999405207687602
Al 9.490101627291288 1.9574456321914047 5.515731139664852
Al 10.16940165385496 6.3916474396139895 4.257380362427547
Al 7.482888166791663 5.759846114319894 3.6739512141075044
Al 4.832858548022033 5.027584099186554 3.111032250341545
Al 9.927201596213823 5.04532040580482 6.779117848341692
Al 7.550771827719897 4.163886656667914 5.966893003439463
Al 6.2272810531649645 3.028175427110002 8.16729980236873
Al 5.036832145016532 3.233792225027457 5.563711005123681
Al 8.876289412943187 2.7743290461676264 7.981510656510102
Al 2.9556224271581804 4.7091053972233095 5.249306185043001
Al 11.181617767744097 8.940089549852324 4.311382585003066
Al 8.419349654503826 8.358952560884816 3.75160186277233
Al 11.222704318568606 7.356710481143375 6.5780427455724
Al 5.730446934264879 7.594478068297009 3.1219306773871387
Al 7.881360332981843 7.009564190642616 6.2056911136443995
Al 5.431748180155804 6.065392059692733 5.630770538670094
Al 6.619695796092986 10.101257793793753 2.726711017048077
Al 7.968114265679877 5.143725257696675 8.697055760754663
Al 4.084672237255057 4.605145940771937 7.858503604677523
Al 9.360837193501267 7.499421818004443 8.422627376020579
Al 9.396300738875219 9.435508757131686 6.28656535094128
Al 3.3152735707771437 7.199603335359058 4.32246086294509
Al 5.818669812039605 6.743020990863717 8.152005703660079
Al 2.9878649016553944 6.864266597636189 6.929741061401005
Al 6.919499316090693 9.741656865558582 5.405293558338618
Al 5.652260429257255 4.864966762322657 10.142657694573192
Al 4.890531427486646 8.853178212859918 6.805900180205534
Al 4.495462507411424 9.727011840149318 4.28788680588761
Al 7.436012786357141 7.481597993644882 10.181501674836214
Al 7.345436953926964 9.346347531051197 8.0338608921345
Al 3.344612202243901 6.544396309875352 9.600115027319426
Al 2.3000393219812634 9.310587253190883 5.825583493975553
Al 5.217685538206486 9.150442191524501 9.536912393805125
Al 5.171489698895112 7.239530814860158 11.521142420198098
Al 2.6302185523086403 9.10708491000815 8.478217521724263
Al 2.9785791658169036 8.801676548066474 11.145714430643869
