34
Energy = -105.01281268 eV
Al 7.85436559172424 11.439963432550725 8.701704082678116
Al 8.64826007603891 6.511643652333169 4.294420632394506
Al 4.8695305292870295 7.555293240286871 8.38914235641119
Al 9.590603361600614 7.457911246086417 7.0304328217308045
Al 5.013540574188269 9.140634533827908 6.154172377141924
Al 7.130218014368857 4.1707505893907975 4.800266849772851
Al 4.215663033410231 11.724181854192793 6.6981169419883555
Al 6.812637530469255 11.15477595256263 6.247671833093297
Al 11.403971693528705 6.455569478367461 5.090088828856577
Al 10.419081653338838 8.852838964014952 4.743286647621221
Al 5.949925652289653 7.155515199823719 4.344780745820985
Al 9.61019234910342 9.13697959997046 9.370345511535067
Al 6.783119286480294 5.434087315958833 2.421501524877009
Al 10.645302456683567 6.807760868369111 9.691258693121338
Al 2.5015128033415808 4.557468740825736 5.855254570281586
Al 8.940975434187104 2.220537075273387 5.452216090729445
Al 7.461131947141216 3.2534087213508807 7.3927418286922375
Al 3.866599793960413 6.804847261087516 6.0004458790333155
Al 5.07515697912146 4.224234417743864 6.622928105339211
Al 7.26028293450188 8.849262324196395 7.872325042861376
Al 8.782560927203928 5.232862733459619 8.708797468676076
Al 4.883307572150342 8.631613793615859 10.898027327060822
Al 9.574558389818359 4.688422256212563 6.100596355895562
Al 11.58861657212488 5.66793478987047 7.597325142912797
Al 4.5146516033913064 4.916807862918303 4.065192939059248
Al 7.728636148931556 8.955567635401465 5.136007021574401
Al 4.4291174330660885 6.075303738248173 10.686159720839681
Al 7.219727798636211 7.0618488845802965 9.936009751097634
Al 6.935133040334614 6.338061580264687 6.814723096634381
Al 9.481313374331853 10.246852604638796 6.846810801224899
Al 7.286584374900397 9.671792792572257 10.567192394899033
Al 5.091964247115367 10.367653522959015 8.804575604115257
Al 3.302029777365288 5.334324713933644 8.310214437592595
Al 6.064357573400488 4.801331481265754 9.049668800062928
