33
Energy = -102.07366898 eV
Al 4.418560370787306 7.707971300257111 4.438738291053937
Al 4.148076533346345 6.0603084967122625 9.352316302173566
Al 7.929469826241695 9.789923889863784 7.172269344075274
Al 5.120399417153372 7.626927520342266 1.8777811663282744
Al 7.038947292023541 5.9133596020906705 12.726950024685603
Al 3.6836575394771267 4.395378927496264 7.2980025824724
Al 5.0193860576654465 4.775906397638115 11.476718586284553
Al 4.034915674724268 7.165251874467152 6.9476484328174415
Al 2.6940627979195058 5.627183802846189 5.112982024510566
Al 9.546799067802265 7.483975707118579 6.9304009641074495
Al 7.537397819002835 4.657229495437495 10.415817348802893
Al 9.939234992935669 9.503346414088902 2.894676251252265
Al 5.48562597640784 3.402152793266181 9.098892635144246
Al 6.6231941831441175 5.860188058503362 8.055505555383244
Al 6.216772834714593 3.0585106209348756 6.526657431087449
Al 7.773824974154652 9.955423727810595 4.5678416296171
Al 6.934312139434879 3.496752855151801 4.022054328368991
Al 6.968474978262959 6.087757257352939 3.411936714404561
Al 5.347523459928643 10.010157325527357 3.3580408534891846
Al 5.438281718938305 5.337187237499349 5.5033469935802755
Al 4.347975508723865 5.3269199508349 2.981241195262039
Al 5.281135822246626 9.81423805482919 6.076125982715426
Al 7.568416708629063 8.448996857199713 2.366010003100883
Al 10.370549294416454 9.62002530615617 5.502039069018877
Al 9.475698562595458 5.661282037014713 8.807208630852934
Al 5.705362396179539 8.572733291847198 8.44771712509648
Al 8.243730267383494 3.39440452907038 8.19533574569724
Al 8.24710592164527 5.1279008648183915 5.917825383955386
Al 9.0105857669282 6.787727107849761 11.23583006222171
Al 8.363758500671665 8.321303944161514 9.26210469723724
Al 6.227410484404187 7.247411007909703 10.629004791958714
Al 6.8608358214982355 7.592609222243494 5.932552896461576
Al 9.157343810413568 7.319605265265543 4.331886328990948
