37
Energy = -115.51691697 eV
Al 5.745601464716208 9.047138612636806 9.608277557053603
Al 4.828024864233421 7.619006380479151 4.771297886302889
Al 4.459605080733904 10.31398505275827 5.301694232785139
Al 7.080500465887672 7.868776637202902 7.403531903907429
Al 5.548820456132 9.527227979460688 2.8258344869131906
Al 2.953879786518207 9.08885453950815 3.256672599898122
Al 3.24106220185261 3.696816813046139 4.9592039312527465
Al 7.080303778871376 9.330937961516842 4.965382699589381
Al 7.228038736111541 3.006264071649211 7.100257698092159
Al 8.55617873630254 7.124475509120459 5.1719414813048665
Al 7.865100252560239 4.736545263933268 3.7922433803922253
Al 4.352304158310636 7.161731554238921 1.8832494753188729
Al 8.006879563996625 5.401395387783545 8.264286240902704
Al 9.382607483770487 4.648814540342617 6.023674467349624
Al 8.43386053970968 2.2523080436777305 4.719200198176939
Al 2.541115607231878 6.148652987435623 3.9221933425509317
Al 10.008204008077456 2.1640743488969894 7.013666111545548
Al 4.316055371763822 8.58350922313418 7.467498334574844
Al 7.150731472511268 6.9597450686245415 10.336539177170629
Al 8.710821988777479 4.781549203425699 10.904526503278953
Al 9.957681330365238 6.977820236289146 10.029740194687946
Al 6.3662210172701785 5.51993567596236 5.9956008813316375
Al 8.71508045440047 2.734264029862792 9.304727874570467
Al 5.77953774922196 2.8772655317565103 4.7743765694591325
Al 6.888482295798549 7.135926304845633 3.066382502091205
Al 10.000514824934772 7.104049211035198 7.383176810756452
Al 6.214222273116358 3.926865485030074 9.639368848477613
Al 2.2704490812338602 8.415140641013897 5.8612169868322885
Al 3.473246878509694 6.044727910925813 6.53074120746156
Al 8.508740173639852 9.34635322437725 9.348451467800576
Al 4.6273375536229695 3.791585726877535 7.329020276050592
Al 5.071857450421506 5.140825415609148 3.4657655563932837
Al 6.48032319673972 10.606247456435629 7.440221391648923
Al 10.691681768183047 4.646549284255938 8.505976146313715
Al 5.254341011772054 6.269602583530655 8.585374945174976
Al 9.1273962783746 9.541864567389748 6.674174275249154
Al 0.5926631492243654 7.968640040829185 3.8839848622371207
