32
Energy = -98.84092344 eV
Al 5.345234364530075 4.4088922864809605 8.507113362194369
Al 6.782976112566451 6.782953326914242 3.75085932219136
Al 6.78291384204498 5.17480106051772 6.193834164539313
Al 5.3286218536594845 2.7970979577938553 5.920329119319402
Al 2.5703769404234085 6.783043995615537 5.351235666746131
Al 4.588509834915877 8.289153917261467 4.501386020846182
Al 2.4019086044922573 6.782963745768259 8.136290827837415
Al 4.7240700961510775 6.783041591911954 6.917542026401861
Al 6.783038271135137 9.54484141957364 3.61561478433871
Al 3.250889192234824 9.153536520614168 6.8306745078894995
Al 3.2508604955340443 4.4125483439815865 6.830633430841172
Al 5.3286971792650375 10.768907376994841 5.920368058849476
Al 5.345384929244967 9.157055070392072 8.50713823983283
Al 4.48326797014216 6.783027948022843 9.817335342064151
Al 4.588450118605423 5.276888138440255 4.501353278751563
Al 8.84187794675903 6.782963240124933 6.917599768821278
Al 10.315042523824971 4.412435831858963 6.830708020778596
Al 10.995592078796568 6.782894655822967 5.351241206276829
Al 8.2372082486886 2.7970364797768608 5.920328852582037
Al 10.315127460249043 9.153460095135728 6.830675514512112
Al 8.977513147966787 8.289102681067499 4.501389145665175
Al 6.7829454405100345 4.021108379921634 3.6155544773521315
Al 8.97745317609196 5.276759603060635 4.5013795313867995
Al 6.782988007082549 8.391221409766207 6.193790731033607
Al 8.237326011535252 10.768900416397619 5.920373020292608
Al 6.782969809201644 6.7829309169242045 8.497298032924716
Al 6.7829759123722795 8.302876633707463 10.852607917221253
Al 8.220675474119322 9.157007110753279 8.50711992186367
Al 11.164063153537702 6.782926967359503 8.136274733989525
Al 8.220593585922158 4.408812184310428 8.50708054935005
Al 6.782913395268473 5.263021091763769 10.85258809615831
Al 9.082646089869524 6.782900791504535 9.817393516687796
