33
Energy = -103.20502705 eV
Al 8.919770054777052 3.82826728077373 8.72568536929038
Al 10.839036078726833 4.589352704024692 6.823836882624455
Al 11.259727118578594 7.155902695847185 6.1576168176424675
Al 9.36699158180953 6.447565861828503 8.081550181501822
Al 7.2515911084011515 5.664235711393126 9.902985538030684
Al 7.956978753517584 8.25985165896714 9.378806405035455
Al 9.85538537571711 9.032464484786557 7.522642847616
Al 5.472007043986617 7.305519865340266 8.413611994322007
Al 8.669387503867664 3.3374545533874804 5.911703947087076
Al 6.592530956797898 2.625058324443944 8.009513282832096
Al 9.06392903075748 5.916466755650194 5.204197223966498
Al 7.037321565718524 5.299238201600695 7.125642921148026
Al 4.956193750979875 4.634095833369451 8.963968402641628
Al 7.741066425776177 10.596927194420273 7.071181427407937
Al 6.092701796348737 10.03012358261147 9.07938448878766
Al 6.47703406898886 2.08660711178192 5.1797839084221815
Al 4.808153659375487 3.295581687154771 3.442878228014478
Al 7.557776256384054 7.892573192044009 6.507846204186532
Al 9.514466265737735 8.514522869340748 4.597959787611026
Al 4.827783773829391 3.895330273653556 6.205047425744536
Al 3.678001082845632 9.195761715711283 9.119161111867717
Al 5.242017501293595 9.314224037123722 6.454749410452204
Al 6.887666798591412 4.701835159177823 4.348830926531483
Al 3.0865115179334763 6.602625737107008 9.48287475575169
Al 7.227376979895882 9.918034984134557 4.515053652208764
Al 5.111284244553761 6.638385838526462 5.611927125394208
Al 7.352675379157083 7.240885751065035 3.571347967703721
Al 2.982808893619962 4.9124495013600455 4.490877311285317
Al 2.9136365644584163 8.018669415694868 6.890123161179474
Al 5.072561147607219 8.65450076620749 3.490264426520522
Al 2.8784279875524157 5.397127095630401 7.121194336619558
Al 5.077991753116778 6.035468681673651 2.8653634112729542
Al 2.795693742726837 7.529377237596302 4.298874882728579
