37
Energy = -116.57817048 eV
Al 5.646671070947658 5.970949416857247 10.756679079966874
Al 4.610227388483123 5.024633155850804 8.600356856740715
Al 3.371836216555211 3.881540929703186 6.477744229468181
Al 4.837335909457328 2.1948054741411034 4.856887322418714
Al 6.079062604842554 3.4473554872480676 6.961511371431737
Al 7.447072594167951 4.462933802275242 9.159131558818151
Al 7.386402484486492 1.7175161062761517 5.299007895901873
Al 8.312219154912682 6.149320504604447 11.1683340914741
Al 4.5545024343787075 7.980575323773687 9.128918611204735
Al 3.251795410904622 6.705760295299168 7.004709316568805
Al 6.441837504577664 8.490924112917433 11.166158942027053
Al 1.8868851477322748 5.51693442863372 4.924422641222768
Al 8.723390410431005 2.848885224861998 7.356679845394955
Al 6.981480210102866 7.019798793326292 8.471910999602208
Al 5.548099210306587 5.868791949481964 5.920514128980806
Al 4.159882213847466 4.626624900306523 3.7903052708891707
Al 3.093416887851897 9.411130843317421 7.411677060502537
Al 1.634987201652106 8.116208505235196 5.340326848737526
Al 3.676618931069459 9.958774778611113 4.882367745504526
Al 8.832436652571777 8.487872767550318 9.929619172631359
Al 8.08644733892964 5.305867713839978 6.398059355127035
Al 6.74757297134992 4.1202022042390265 4.157274483082615
Al 3.9637739118853523 7.325777017855583 4.228939586087363
Al 5.395583830894961 8.50455959366126 6.494749559854002
Al 9.596527817276893 6.303245190861491 8.475742186651656
Al 9.355118468770947 3.465464492496209 4.5961454021837485
Al 6.790524757474017 9.718836615587714 8.543754667603906
Al 7.619834780425994 7.680708372827861 5.35906262607965
Al 6.176876992977019 6.521900651931095 3.01053375768869
Al 10.74787938255016 4.545012804430944 6.740359500473991
Al 9.216486526719462 8.842556532609438 7.393826304480326
Al 8.82987835772793 5.850989034439843 3.545480378535808
Al 6.02046876063368 9.330475001025938 3.798607717637701
Al 10.260286468637144 6.982027071294086 5.744559954244598
Al 7.387962194158188 10.385651905904624 6.016837825410763
Al 8.290027545897065 8.333516701742527 2.710741577764398
Al 9.666680533924156 9.529962574493698 4.806152407119369
