32
Energy = -99.71329421 eV
Al 9.73877124176535 8.212045302264823 5.265812397348154
Al 7.663251249804448 8.922415761601938 3.606304416264255
Al 11.330950060415699 7.265826198696403 7.2304239524984855
Al 10.391434255610436 5.462679642847579 5.485568026455114
Al 9.364913222936352 8.862405194804204 8.079051603750084
Al 7.382970740754437 9.102459610754533 6.303294413771994
Al 8.596687635407775 6.172782454339048 3.5932784315910635
Al 6.466836045776325 7.059186200570482 2.1996726116837686
Al 9.871080764129037 6.049292330880492 9.177098411436765
Al 9.426667390636386 3.9485634387256283 7.568681695764009
Al 7.945619863591744 4.195100969010863 5.288737505483728
Al 8.196249350858924 6.467777567115746 6.9342089737821615
Al 5.2099201964614075 9.43788685042678 4.637177095657532
Al 7.569843967750745 7.336845831836583 9.523197411368562
Al 6.216145592308386 4.582066694893045 3.317433390130516
Al 4.350719233763122 5.4797858677618825 1.5226994033241161
Al 6.108173661186146 6.819980435809333 5.113157165459698
Al 7.377658581459585 4.715356849844377 9.171628837146388
Al 7.014423846401585 9.858906509756542 8.826415399006237
Al 7.043616501226312 2.7569547855796257 7.367921251090731
Al 3.9468467296635503 7.703712044533523 3.097700772653694
Al 5.354437742561058 4.145930486463751 5.898474704071958
Al 5.466768823919682 6.3092023931031616 7.786977293252169
Al 3.3112282720382207 7.601097935543367 5.719182659580326
Al 3.6614691997931907 5.279422851683457 4.2048325208654305
Al 4.928797750523631 9.030179250208208 7.278641121187379
Al 2.9944426652790272 5.074656464969448 6.926807417777677
Al 5.403522550303597 5.72085589969811 10.606441296966606
Al 4.853910492222275 3.659137833940969 8.519160185281473
Al 2.946364607592597 7.483275866568375 8.37765724821219
Al 5.086240918349365 8.295238114963825 9.86454854566792
Al 2.9305307408238637 5.13946625611908 9.658307736785003
