39
Energy = -123.09813269 eV
Al 6.753924224573415 2.7589504008206496 8.884251335969077
Al 5.6595467204147525 2.484516499569842 6.14827586446428
Al 8.282283755193887 1.9166235566366447 6.7325462793286865
Al 3.2565930409270782 3.7587306713131263 5.934895508086667
Al 5.478343952162445 4.586850709973614 4.417134100123438
Al 7.937340786879667 3.644165224906043 4.600447602439751
Al 9.774702323441465 4.146406365253356 6.643936641938201
Al 8.675823071607116 4.601469177108145 9.079214734502148
Al 3.2571960321484124 6.007800503149957 4.1855655746106715
Al 8.461913192325103 6.379747342598483 5.655963297467095
Al 4.449285183718904 3.852609243311923 8.47724895106618
Al 1.2366248641579103 5.9027962633468105 5.917174544014184
Al 4.16104485871764 6.1120023761801905 6.884601554514351
Al 7.501839490069851 5.84831920821347 3.032083040669296
Al 6.825287231172547 4.7432689369018295 6.9610615814329
Al 10.070975045430243 5.332545062549429 3.6174769417111357
Al 1.987858551852756 4.806556104065529 8.259580746198097
Al 11.522543649443481 5.985731305218992 5.941017729641198
Al 5.122820462377894 6.672909338255539 2.4469952558075896
Al 1.678494711305149 7.614383577324943 8.001334909986063
Al 5.724071993958885 7.22796107415022 5.1261313990210935
Al 6.261079142420328 5.517574124529209 9.593198551252677
Al 11.695879681760527 7.584239540396899 3.788214134120692
Al 3.7871988480495 6.545223461797081 9.498803780407796
Al 9.927397481133896 6.632381972480054 8.009650746242786
Al 9.032538656430086 8.083003071380455 3.54765754126535
Al 6.847553086375996 7.370774362372438 7.716399108344391
Al 3.8436859862203137 8.892260569861026 3.208459589630888
Al 6.566585530673664 9.036549764581999 3.3176393708339647
Al 2.919001057583933 8.280593998222878 5.602225550489456
Al 5.7407833997450854 8.347024823987022 10.082366262625703
Al 10.390356659117481 8.507101208586095 5.994565144061598
Al 5.228906685504046 9.923930579533607 5.571802689761891
Al 4.255214725434529 8.724450194940099 7.847028886929462
Al 8.317110791552263 7.252895809709049 10.146771756865654
Al 7.757430595048126 9.075464825662058 5.812573992092089
Al 6.474636256791218 10.232802704837388 8.054170224504585
Al 8.968427159099933 9.171269503459612 8.282564184715936
Al 7.767184932508395 10.037600360142365 10.578454710190712
