32
Energy = -99.25422605 eV
Al 6.448655873977554 7.180431337380687 1.9307747593984477
Al 6.455030607439192 9.55226153423089 3.4333089980742546
Al 4.144830033300318 8.628790141794726 2.5366987733483977
Al 8.548960318968842 7.604378606770868 3.516585880347256
Al 4.738046120057204 5.217220294746633 2.7353895771899426
Al 7.424540594726897 5.116631001504813 3.6147596612732307
Al 7.045480497481553 9.116488067489358 5.9772966935110485
Al 4.2094018721285575 9.40011152594462 5.228458179090562
Al 5.619350710332351 7.107004069737069 4.594136101518166
Al 9.932403013351887 5.3360587855745925 4.893359857136958
Al 2.904229562099425 6.869201666891117 4.093933842927138
Al 9.85130148842176 8.473159444155575 5.63609599699596
Al 7.82553809738777 6.465707030586443 5.913220925004593
Al 4.098442144826837 4.797422240716843 5.305537257084145
Al 5.791976702595552 3.0036833172871105 3.952620065283577
Al 3.6907885025294553 7.09676824780767 6.67915924861786
Al 5.0281079119498076 9.319994049954813 7.881956302822679
Al 8.933391350211833 9.574532511302158 8.080754479404622
Al 5.183921230089642 2.552987788755275 6.434563949771465
Al 5.914373850695855 5.226233794155029 7.264750769731347
Al 3.345132878398594 4.780666050084289 8.086055310554864
Al 9.9834158050411 6.545804151066296 7.489380907363776
Al 7.798357887823379 3.70059480131391 5.928306986089223
Al 4.298950558900868 2.2773049676205677 8.938451891848446
Al 7.135314427746133 7.462142527458248 8.14031771808279
Al 4.657095750165511 6.977327705525759 9.202313179151197
Al 9.302143024184787 7.507131587322542 9.864564644234873
Al 6.811191858222224 9.364026054928688 9.996559869813812
Al 7.125915001627514 2.7094381366175306 8.358944785317604
Al 5.639934189484356 4.4500652390028925 9.852862748509361
Al 8.268975838660783 5.002512458068256 8.82406908203037
Al 6.916363687167707 6.652175578631142 10.685166406640363
