31
Energy = -96.1545081 eV
Al 5.561133312102173 9.825074098625866 6.574521398828972
Al 7.082039351479605 8.698741259595073 2.5752918554880897
Al 6.644946920830797 8.35771348537893 9.363634492095278
Al 10.540844294574523 6.675383160716984 6.243973640834385
Al 6.792010583828856 5.9675127796465235 2.8307049971648337
Al 4.978490850970044 9.816862627034496 3.9983665814239977
Al 5.70426960720439 6.9319691144306645 7.236824085693169
Al 9.020005638349412 7.638255140031514 4.294002566291777
Al 10.104693787868317 9.326338483852798 6.50396946741227
Al 3.643523231362508 7.833493700521381 5.705495286088723
Al 4.362157387588878 7.432329965534994 2.917728676532699
Al 7.819170966087726 9.925579817822069 5.013487413549049
Al 7.92934736333329 5.4224142319759085 5.264554916417577
Al 4.881624673398272 5.420577010486075 4.766519169499022
Al 5.633119550095764 10.846360721149495 9.05551729865118
Al 6.719507029491678 3.465325080860314 3.6450241434300548
Al 6.359772360099478 7.678149851683635 4.933434004319661
Al 7.995034295986373 10.2532103506913 7.844319243337408
Al 8.017894369782708 2.790209976164219 5.950861421574002
Al 4.888054858670935 2.8340665213978133 5.52824823767101
Al 3.9733933678346927 8.673782823613276 8.452372227928366
Al 9.235135008403088 4.808060975322355 7.531403200320747
Al 4.509010567211846 6.22268686861709 9.480931594940666
Al 6.246345406815005 4.385928842689177 7.30661013827124
Al 8.244357328777435 7.542671544826046 7.264307312031491
Al 7.399043464192477 5.8902919211802915 9.372082344760862
Al 3.4996268498278087 5.297112932526424 7.0453429310769975
Al 6.312542906102114 1.7897263624541384 7.741558181268938
Al 5.559163206272245 3.7602905309018193 9.888330528735901
Al 8.091374354131492 3.2202879607250736 9.251338182067238
Al 3.8462315208420605 2.863456273060229 8.013108875810385
