35
Energy = -109.11371463 eV
Al 3.15654765335048 4.240387880614079 9.18936570382025
Al 4.988974729719748 4.722374855506955 2.9212321280230267
Al 9.967350352348527 4.9974729689137725 7.578892213583762
Al 9.30912742991665 7.481954911758029 3.635855133805612
Al 4.905374009300488 7.291357521958128 2.572087615999707
Al 5.665145692811228 10.213612168407495 4.468119102110335
Al 4.6973407075928435 6.578375174130923 5.21125379139041
Al 4.979146591841155 6.593437541047865 8.044074941318659
Al 3.3754572697407443 8.817242920393136 4.209952922917918
Al 5.254996305543763 5.09186870547042 10.320240222218818
Al 2.4551848402967114 7.727210441360063 6.4303109485867225
Al 5.589320145467803 3.724469348421321 7.998984262015033
Al 9.02906680714969 9.51655659241342 7.496845286083243
Al 10.902998162231635 7.5163517516991485 8.601018254021534
Al 9.98166914727736 7.340304603049678 6.130521803785339
Al 6.960749433974908 5.473848309513594 6.400558884427543
Al 3.4435591363150957 2.3820609283632597 7.2732020500501235
Al 7.0881960952808925 6.099441213950049 3.7360611726306012
Al 4.713326989482903 9.911225107751745 1.9944099774662223
Al 4.648278883261597 9.073759850790369 6.772916961539583
Al 8.16305144186312 3.0930802593688926 6.8663981566927
Al 7.264886299891423 8.182833002635396 5.659858566252661
Al 7.156796273632145 8.75044774399811 2.8306848020848308
Al 7.0622844620482095 3.380582026078727 4.215685253507492
Al 6.8480903175380154 10.73452689903647 6.6576989631085475
Al 6.801645303825108 7.17635862664326 10.498535640826267
Al 8.158369899707065 7.05646226189636 8.156349320789957
Al 4.510177955661095 3.871141821574041 5.341394098960132
Al 7.710863203120641 4.617956049927837 9.205135252921872
Al 5.949484748753017 1.722757016547994 6.115912868046389
Al 8.868857432536998 8.891132530210644 10.13510571171688
Al 6.42106998203264 9.0835993487813 8.724345183619574
Al 2.7558864539859225 5.180224019793853 6.788175140071157
Al 9.210373653158989 4.84075244149376 4.8537989174954825
Al 9.506974423609378 6.125455390768814 10.465640982379918
