38
Energy = -119.69793881 eV
Al 4.042061450907032 9.415789341148812 9.900750528630109
Al 6.3770674478192655 9.73916342373332 8.621293211476038
Al 8.55696963717649 9.64933559321286 7.063654674970229
Al 3.6166013437539606 9.547025037445014 7.2858213500175095
Al 6.16437394341394 7.717404341024794 10.546277847062418
Al 10.412005082764331 8.634191668762172 5.434263697546571
Al 3.706910371787746 7.288154270538269 11.494081400498388
Al 8.542026895706513 8.02639361962387 9.281757761033544
Al 5.903902647292664 9.418319604696013 5.984566422523726
Al 10.996775323814832 8.232944818835414 8.164719992705265
Al 8.01559296727017 9.007034673160174 4.404199480954292
Al 5.619004288954923 7.278988235019174 7.693753611408114
Al 7.287777816415568 5.642149021318568 9.077772893505056
Al 3.277190203653163 9.568003847640838 4.611628319322998
Al 8.486870403102754 7.003887770586034 6.672670175015317
Al 4.628590737232566 5.3656116668803495 9.78763011365467
Al 9.984783944739375 5.636834285894839 8.503152689155664
Al 2.9515989703110703 7.257782254068797 8.667081672877211
Al 5.58651101494167 9.358113057269648 3.309389126001415
Al 3.488375744145266 7.201508133528523 5.826804721855889
Al 6.567902067288814 4.926235667235417 6.602264131641237
Al 11.426465672979214 6.309378155018196 6.2931462911913
Al 6.235916721290211 6.952993461197003 4.93305895384578
Al 4.099938652029408 7.055226156931095 3.1410436115289295
Al 6.982305712767647 7.463634600656829 2.293699069437628
Al 3.5871299985157696 5.0676566389460325 7.302252000941771
Al 9.469845216004744 4.544649402541141 5.872432895069011
Al 9.221746288593284 6.629969908562533 3.9022208411703563
Al 6.122610970445455 3.170585092676168 8.71711923539454
Al 8.631544897471619 3.354876418115392 8.135408841936174
Al 3.4970687559005267 2.947757860186976 8.906934005660268
Al 4.41872664596349 4.925707731442977 4.750279655773678
Al 7.5316295934012505 2.5173949315962547 5.806298122059045
Al 5.61115594618134 4.911478304212263 2.18291852612911
Al 7.503314428962455 4.531988241247293 4.047062681634832
Al 4.651686689263304 2.7934587933859363 6.401294951408005
Al 8.318228417174106 5.330440194384083 1.5579833426546628
Al 5.49322717421516 2.5933678609288506 3.8387472359603576
