38
Energy = -119.40726789 eV
Al 7.844053945713269 1.585269917859426 5.669292395645678
Al 8.10352856976216 2.8161188899847915 8.304924044340014
Al 9.54642756165709 3.8132526498138866 6.213690403109781
Al 5.055172001165985 1.9078488233961226 5.803474091681823
Al 8.62634479861009 5.6008857235746055 7.93500447413726
Al 10.898951861543988 4.59548344483984 4.008679569497977
Al 8.149723427182517 3.8615563610448773 3.9235967148148423
Al 7.122417822334279 4.730396121833634 10.055254857693045
Al 10.417338699294795 6.460623152537538 5.8813423377548055
Al 6.691657720732503 3.9809403096948834 6.327388681875514
Al 9.13689633782034 6.603771006798868 3.3281286648118193
Al 9.475085268914384 8.222823722076239 7.688905520507938
Al 5.224584354833036 3.0100740881866703 8.414357441557796
Al 7.534937066269509 7.373293812404596 9.609945741595293
Al 5.1979216737989455 4.202178461879041 4.088394598434034
Al 6.836597359806112 5.530822570740356 2.243281417879874
Al 4.791477424399026 3.894752999490932 10.999951251396963
Al 8.856049946075125 8.694266332710221 4.9788289431613455
Al 7.62117619535262 6.196093936896818 5.4790514869892855
Al 3.8524111435964787 4.382566179547807 6.49716781479507
Al 5.780517611454427 5.9565046334909395 7.895800546646333
Al 6.712378664222295 7.881114578675486 3.560334351083002
Al 6.79634325229306 8.351624832475514 6.944946771733961
Al 3.2885065732215644 4.924777515256108 8.998432345878493
Al 4.38574733862635 6.524767768085798 2.5525559332351873
Al 7.928913487159202 9.951174664410882 9.25323061903931
Al 4.908356457383273 6.841526516882447 5.416443453593523
Al 2.6845903862427356 5.458893329002242 4.386731323795344
Al 4.943881216926897 6.602634153805175 10.395915904323969
Al 8.700300135673883 10.703265143736846 6.6494875159781675
Al 8.070994881314602 12.47728611258842 8.469246453054891
Al 5.213967785037475 8.901665589047742 9.076105690250662
Al 3.4164117519018715 7.209563362488896 7.757910377799133
Al 6.405920889772401 10.191109010882172 4.94597730923888
Al 5.987108459119479 11.138831012356459 7.60323424275943
Al 4.212954716730193 9.011101232793873 3.743443220691134
Al 4.225792838226253 9.463196672537721 6.539683558736213
Al 2.345940614510495 7.9393256048522245 5.3512401691623115
