30
Energy = -92.68992686 eV
Al 8.382628625336746 7.513309380447351 5.464056787001945
Al 4.364796589227833 4.067838586124659 8.530241571390633
Al 2.0988724560236998 3.917528568176878 3.9072265021190407
Al 2.264986010148465 1.346533467195979 4.827208091169333
Al 8.40055457311846 4.434217868744601 2.145196297663256
Al 2.0805345167729534 2.9159647373928514 9.02920635406943
Al 4.692692493740697 2.472123923020132 4.350779070274355
Al 3.9188052689513078 4.661804699027213 5.84829573828192
Al 2.0118090828324227 5.489742723151432 8.072999616956656
Al 1.522873489323038 3.3757692348272363 6.472845320868773
Al 1.1929062855193726 5.940362611706922 5.606030697381958
Al 3.7020452536461472 1.8224677954955308 7.008829463392904
Al 6.098922402167079 5.580236927923161 7.283916620614393
Al 3.793084871057385 7.244970377293184 6.896816335074837
Al 6.275661607100974 8.35049720912365 6.976889462786791
Al 3.0488568456815153 7.084249114940964 4.137772177030319
Al 4.246040063052852 9.333580848379343 5.047894141325087
Al 6.828780242035288 4.34360638951333 4.533751548161939
Al 6.1454177178206875 3.0706117229714422 2.199587260780015
Al 4.5216192664245725 5.044764320286184 3.099942313404832
Al 8.412430761736436 4.242005960032356 6.768076498600127
Al 9.446588359256825 5.2937654919639865 4.3671443939416195
Al 7.625097113801359 6.919835625039778 3.0166816551188864
Al 6.238722577543775 2.85662952072827 6.751772438340764
Al 5.03039821746477 7.780208741882551 2.4228769138378183
Al 6.181223750590888 5.6967866867352 1.1114256069028463
Al 10.434023407893843 6.1346097115661635 6.652345096229399
Al 5.672341800601693 6.752142065471742 4.907392545533242
Al 6.748314242054857 9.230918822252345 4.194132169459465
Al 8.286442378791014 6.750387138303494 8.036137582005187
