32
Energy = -99.70251217 eV
Al 8.365631639455104 9.353237966201354 6.139707970776626
Al 8.65661946224794 6.725650323216369 7.109959206486113
Al 4.54880372567825 8.382105998498073 2.807669349028895
Al 8.420885863632277 6.432662209417361 9.920189557125502
Al 8.4912815114404 8.955438141492985 3.5093463515137335
Al 8.280098441815142 8.842758548150998 8.813102810366408
Al 8.975773608370112 6.558382513395388 4.414405982108016
Al 6.677521029220887 9.388926934835794 1.679685902750902
Al 6.47597988929717 7.406677406314794 5.328172876965192
Al 9.069674236107955 1.8307771008004308 7.0475942218822984
Al 6.187398665288579 7.232190326138118 8.096793531413116
Al 6.8857893743294545 6.842727680356595 2.563715033601759
Al 6.1187103309530055 10.029266059609489 4.367400078293375
Al 6.969554797087174 4.56036795288875 3.8224324001672305
Al 3.917513846611352 8.617755423658087 5.408754188132653
Al 9.131952452685294 4.273317964355656 5.70427776672905
Al 7.099315504991888 2.370542198729709 5.190132649664671
Al 8.812079321287396 4.282712370447639 8.38989365449977
Al 5.7963580041380185 9.90596723426327 6.962572225882065
Al 4.897066647864844 1.3035712109935447 6.512799498772304
Al 6.6176281626172235 4.849299842475755 6.660229914289103
Al 7.74181117005327 11.426357483130442 8.227774064801368
Al 4.469701679745535 6.040695923938036 3.925555121190057
Al 5.748357191108111 9.685309288865247 9.628180154908256
Al 6.697444168075619 2.519294300225021 8.208758156495835
Al 4.562442837393271 3.706543902120532 5.180101958299954
Al 4.188081858121648 6.179952696831016 6.606495188209468
Al 4.305796264681913 3.793532723210135 7.88655968897584
Al 3.74740071949014 8.48512448988865 8.144506854237923
Al 5.916747794855482 7.224515070387302 10.81329940848924
Al 3.931967050186354 6.071636692863409 9.346409888197979
Al 6.314570839747475 4.742660110878659 9.603482434323743
