30
Energy = -92.00155951 eV
Al 5.600483557718285 4.781141929933465 1.9717598970320183
Al 3.106679238577407 4.643910411493527 1.0517612834385248
Al 3.4405076060366584 7.210800484395026 1.7937320501418887
Al 5.683383057768675 7.161366416488033 3.3611318970417994
Al 7.971198946129116 5.369884932925624 2.7979319746829487
Al 6.929816605947073 2.5362390361764935 3.2829356816055846
Al 4.146961750310644 2.7757719617846663 3.305619002697594
Al 1.4483329275584955 3.8094921550756435 2.8850718404434943
Al 5.9974501876865425 4.648021678566554 4.667081420423533
Al 3.3001379648584717 8.076478464966073 4.520434099960185
Al 5.657766196512151 9.06043403838711 5.460063957261885
Al 10.213467182592266 4.768589649602396 4.778640550235689
Al 1.238408850540488 6.656498442200919 3.224618894964136
Al 3.5728288640882973 5.361961599102445 3.8548682416036932
Al 7.440005725707004 6.967330921867497 5.222905350260338
Al 8.696281540440875 4.542529698645824 5.1553493410075335
Al 2.28461127247089 3.4250970271834675 5.3712754396868165
Al 1.949001079273146 6.1582773016175 5.9550858281972
Al 7.347541379142438 2.314127501018459 6.024592937956656
Al 4.8018367607442745 2.5246745895101217 5.971874265329132
Al 9.103206318014994 6.315565008341681 7.104324413636162
Al 4.740668897292151 6.618158137058049 6.255733332843366
Al 6.325309442748184 4.567802454508656 7.259857820514076
Al 3.5580986745823777 4.548955786795013 7.510432248841983
Al 8.85660978041638 3.6570007487970644 7.776760417424426
Al 6.673060273170883 7.79930656125166 7.745291845620862
Al 10.213467182592266 5.447835506488918 9.460539401927077
Al 9.067617513734236 7.91376904725116 9.197944141991085
Al 4.924126084222192 6.0921183970449135 9.020670250378524
Al 7.496990372091768 5.615755255297803 9.380607316626849
