33
Energy = -103.06350767 eV
Al 9.863155462417742 7.154798548773319 4.7292636609688365
Al 8.01544620394687 7.167151721917231 2.732224550173724
Al 9.87956633812092 8.975138445672558 6.8052617874392665
Al 7.907743133050083 9.124463860750078 4.61945907249866
Al 8.929729685015479 4.705247207554337 5.089807546013051
Al 6.5117475810634815 4.849754096695613 2.9191246236359185
Al 5.719986737001256 6.739191067894472 1.1473438562646532
Al 7.881271714270564 10.957223306521922 6.469098171744377
Al 8.915858868974842 6.378062033139377 7.1994716885652
Al 8.427000275022099 10.499719301633554 9.031030657975236
Al 5.521690492249927 8.206242935020613 3.4950539830707714
Al 6.959587647014728 6.545071394760557 5.186340010067548
Al 9.350730499054274 8.02099411585558 9.317995360798205
Al 8.981555242735828 2.15829862936734 6.188352216974078
Al 5.405021413358594 9.626171054557423 5.749276832118879
Al 7.2358957772316685 8.41283419256779 7.391041053645837
Al 5.7176430635180155 10.648760523217382 8.193999603773813
Al 6.015097264178616 5.654883325643755 7.459201765052652
Al 7.699869102919232 5.9687330877105484 9.709474169240776
Al 4.3011302343871405 7.08018843900438 5.6717765129791315
Al 8.298804548367157 3.9556571522326425 7.994701394751566
Al 3.9174231069138865 5.910422629896014 3.254065740270667
Al 5.0864462425292825 4.393218577346291 5.199562192876854
Al 7.14762052389992 2.827442340792796 4.399864427413816
Al 5.980934679883078 3.8111884623028263 9.458664454325309
Al 6.527467310170948 8.656101390354166 9.956776235156992
Al 6.25689486196695 2.6979966667996553 6.904754685657838
Al 4.515603341429876 8.32318399908593 8.012702951884242
Al 4.920151285989226 6.413189371764366 9.914420306330598
Al 3.132501180924243 6.039156351277766 7.821339945571127
Al 2.4365655167678075 5.018187770633664 5.340717873530511
Al 3.3359380021009883 4.1957864863517536 9.857258745988503
Al 3.735260687077786 3.4168795364567988 7.31191194679387
