39
Energy = -122.70657943 eV
Al 4.577797292295507 2.5095911819223864 9.247470620443336
Al 2.7432982368166474 2.6000298864508813 7.11136688450563
Al 5.795846134588442 4.81642938350241 10.081613942899272
Al 5.440297071049229 2.7416355908144867 6.623028821267049
Al 8.453799121294933 4.311534803663288 10.788810590688891
Al 7.224470741108586 2.8973041694983475 8.678002970198516
Al 3.830688339418432 4.90869846255339 8.223592897102279
Al 1.5665643932304736 5.03306029069559 6.496954646346794
Al 5.096304622694704 7.21894577517093 8.840257860271503
Al 6.359015985771732 5.30602542632658 7.189821605403431
Al 8.959766162081046 4.858017417105777 8.070651250679875
Al 10.147278810103984 6.387383699766394 10.098709377993348
Al 4.051467412379361 4.823999113744512 5.523631820855541
Al 7.515177709908635 6.826485370348168 9.674730282310934
Al 6.262213915188355 3.9318483885770448 4.365715892262594
Al 3.0493610883049618 7.282003307033277 7.1011864585742925
Al 6.563124167163571 9.59072129812238 9.329875522054884
Al 8.15416656380012 3.1560673424898225 6.156668677931589
Al 2.4450030043434987 6.717836638136909 4.487861889741527
Al 7.813174129375371 6.134477489873241 4.977173026099235
Al 4.713415829658469 5.885590934678529 3.1518735935757225
Al 5.276558171531831 7.4056487562091435 5.410804634729659
Al 8.899938767796321 3.846075396624867 3.6412681752592633
Al 10.338096981840199 4.955826753958408 5.642045414466071
Al 4.755824661147918 9.381427924635389 7.310749889598058
Al 2.7802939337757495 9.479548067599692 5.437353250934604
Al 7.369667009197485 7.913295757723324 7.1666694364646375
Al 10.026143477348109 7.136996746803593 7.4446019420047325
Al 9.239410444830558 8.902732806251645 9.294072485619907
Al 7.109575484194938 5.24966010811906 2.036912947695992
Al 8.657910586462853 11.44834724770345 8.732982402591968
Al 3.791305419446696 8.58608969986859 2.9876985910077
Al 6.382392139092568 8.008498707352624 2.840783842596531
Al 8.909590126031599 7.118862016798615 2.6482955534378427
Al 7.061212545339298 10.724927763290337 6.722807447735759
Al 5.41945963176143 10.114715431743132 4.686723974212318
Al 10.217027990609491 7.598862813698956 4.85743647584865
Al 9.58409417684727 9.675266234395343 6.708608192797911
Al 7.910832580126694 9.00709665470516 4.702751569748128
