37
Energy = -115.34585831 eV
Al 3.091409601375109 6.725939335115906 8.724385051918087
Al 6.631367501331234 3.9300819545977137 9.094610515903204
Al 5.3394776909599555 4.904003697743529 4.494798923645169
Al 3.3713327054769233 6.536233418947968 3.308103269749267
Al 9.976648037766564 5.541454198697056 3.3452708924651833
Al 4.06860760640362 4.503613635316196 10.068438261663916
Al 8.662295062563656 7.853844312272013 4.3299117578700885
Al 5.883791790193808 7.531940168749581 4.246361408067047
Al 1.9719286198928916 8.727115355154053 7.160836856744237
Al 4.69610600837289 4.875166403791316 7.33414576992938
Al 6.546527602431096 6.673712437466335 6.710513152037246
Al 4.199640157785186 9.54675788813483 5.2995605290698125
Al 4.151527694308465 2.62934394897069 5.680891185434771
Al 11.464974638134178 4.42315434659224 5.336914801239311
Al 8.405107121750866 6.029671052859068 8.864343594517214
Al 6.870807325571276 9.410248680463686 6.184379884848542
Al 2.5294930632694803 4.664432972290407 5.126339857665762
Al 5.31078385458221 6.996343798501096 1.5875883587244835
Al 6.73855181784273 3.3148291693743634 6.371050450543874
Al 6.962445663433307 9.87641607396602 3.5986352283230825
Al 4.6560916620403825 2.314906308863695 8.303674227618583
Al 8.753600684450298 5.350130506634934 5.81538664338201
Al 7.451211701507003 5.96074413588943 2.659437618305899
Al 9.449006884989194 2.611643827908511 5.5485384891053355
Al 4.664642096335115 8.820719500711338 7.878868240626288
Al 10.792938911968951 5.619101261423562 7.677471299796635
Al 3.778022471014778 6.961481780625261 5.981888558752126
Al 7.714150653223627 3.616005287104609 3.857616566440272
Al 9.154430207812485 7.824620860786748 7.002768691045204
Al 7.248482127193717 8.57394419808923 8.740392321029882
Al 1.2714327925865536 7.202571121763762 4.808305055609416
Al 1.0794880519555092 5.965718106643057 7.136460453308971
Al 11.136398365585078 7.130295241895866 5.361499792707341
Al 5.731867376628709 6.522193529987422 9.451696719569796
Al 4.4888158182433315 9.274164726132168 2.6878449164643503
Al 2.3638363773314945 3.78049582533083 7.966005086358034
Al 9.058929519103845 3.5046146826230578 8.031460181987093
