36
Energy = -110.84422874 eV
Al 7.165349944910883 8.120782324589785 4.219114317399326
Al 4.244707380377534 4.731676192399915 4.724585189863159
Al 1.9116803877315764 4.428516141494949 6.04126099326567
Al 8.204728796289851 9.848990091339703 5.9763288217209
Al 5.71249554454701 5.663012172883687 8.492360109099565
Al 5.795123708802689 8.382965917198831 7.250612855265767
Al 7.846064415799155 8.845331001225587 9.001317045781136
Al 6.179967607072836 5.835627205926786 3.2885152962412576
Al 3.5901498131557044 6.3716971600869305 7.008401462040037
Al 9.554476233241365 10.218775562257074 10.929808186639256
Al 11.301129344830777 6.352679365202698 5.024263834314258
Al 2.1870324300964317 6.597883852430875 4.6158516425954925
Al 11.793803930161598 6.797880258597423 7.738338120790478
Al 8.747732686248924 7.420509743915733 11.27745252453948
Al 7.398863437900773 11.686712386136222 9.881811176817756
Al 3.935489647852996 7.694055110676799 9.208441278296045
Al 4.488547786061547 7.868682075289239 4.562261777527267
Al 6.6356958009145055 3.612292468434448 5.146740649764532
Al 6.490726189422845 11.166405105878901 7.485642640587784
Al 9.409361485799062 10.934617667630576 8.205295479565278
Al 8.616165549281106 7.250771859685298 6.81177248162775
Al 6.276000575350675 6.135202768218259 5.93644464136725
Al 12.979264844119342 4.8625333001730935 6.490768089798451
Al 10.539386440337381 8.50553979587938 9.249494078148192
Al 10.692181223161475 9.137920164842406 6.558957048677448
Al 7.438067994539835 4.825628600040769 10.37896178365797
Al 7.913140900967727 4.521593910737465 7.434477070060992
Al 8.666480640040952 5.4575402809962785 4.715707638158948
Al 6.16619038000591 7.308962665667312 10.53627556108313
Al 6.9717981140582 9.666067332287748 11.743972122259411
Al 10.40933625754814 4.499271604770666 6.824253903118522
Al 5.244981779659163 9.912405304788027 9.672931802943966
Al 9.063948015658767 9.128550502981671 13.324706134027203
Al 9.717487717496898 8.271023170994502 4.288508084904957
Al 5.593286767176597 10.242832079835123 5.232516474758206
Al 9.46442653249701 6.040335157623397 9.067119986410923
