37
Energy = -115.80759961 eV
Al 7.4160890772012324 7.498937768780576 12.321038230752203
Al 9.447776697160789 8.07586200441048 10.724298468788477
Al 6.1034980766926274 9.166038133612664 7.8617819851397295
Al 8.398588942107729 5.424405905646925 10.999697591771008
Al 4.420347845588784 7.436368635832367 9.228149899029072
Al 5.616068353599482 5.914038070172795 11.219810259432412
Al 3.460808020050809 9.021800744947965 7.412770842904148
Al 7.835476556057522 10.832197190920734 6.343380499909406
Al 8.794721658675234 9.088848845158731 8.179825032285033
Al 7.10621279045468 7.386109760375943 9.515858059024959
Al 5.131321669952741 10.711861986324667 5.861768654952019
Al 9.854863292921962 6.290742196183456 8.791267389168206
Al 3.094628604665016 5.652161543367328 7.496078073908524
Al 8.478348465910384 3.896865773464653 8.93566261884453
Al 7.343334341523887 8.327035812083722 5.517845348297415
Al 3.5108329829715217 4.969292286105831 10.04427477782764
Al 2.6202635112565393 10.073605586235402 5.144709263612886
Al 5.224942820698531 6.895863291988358 6.4333938650024916
Al 6.851642899949507 10.264741403496958 3.681721154089007
Al 5.79967089645293 4.897064079920974 8.538715413697872
Al 4.723189694137697 8.581521744071916 4.30990156035105
Al 2.5159565367098677 7.365607769724546 5.430982147975765
Al 7.673881124340881 6.15467833119979 7.073297916798307
Al 10.04186093556347 7.5342766113638655 6.391351999352137
Al 9.82333852394669 4.689193329160243 6.583239926880427
Al 4.709192964754116 4.021962511673793 6.046752025965533
Al 7.31970138934202 3.312097821560125 6.78079185140468
Al 9.035598889495015 6.397958303260563 4.352795099448007
Al 6.716118201271524 7.40042051744894 2.9637543384197693
Al 4.20080248074006 5.978518666201655 3.92128490206625
Al 6.645881761562544 4.981956475816305 4.39460779861269
Al 8.88621663116918 3.5841648338120935 4.331401016818702
Al 6.432785656990763 2.107162957135801 4.723138745103108
Al 4.556126858234855 3.405240058155128 3.3944507972137377
Al 8.36359287328851 5.332064228657429 2.1376558395752157
Al 5.64497758073475 5.25574527292417 1.5358371135806188
Al 7.085836095621068 2.9580852505973647 2.261205193791353
