34
Energy = -107.04862216 eV
Al 9.941433801635322 8.029064494588477 5.426832198459874
Al 4.261607389047537 3.6752183625329695 2.5906574773774667
Al 5.47352562155926 5.40931042901859 7.43764593403642
Al 5.483497472990111 5.745847302206082 10.149992794702811
Al 5.266647393808731 10.249615025145795 4.125278253695172
Al 6.031719517135861 2.4712430889222046 4.332861312110765
Al 3.239541672194828 6.544132882731552 8.673450684405907
Al 5.776790478570539 7.949588842566415 2.889395488806607
Al 9.926927559498557 7.732101760105559 8.100222943968232
Al 6.190150752374885 5.525007079455273 1.9534049606714123
Al 3.2313254289788422 6.233890288862931 5.991717409271907
Al 3.3309071702557573 8.73618750552437 6.977490766581466
Al 3.6283297501369534 6.11572325299433 3.3059768315541964
Al 5.4298253866753265 8.086509685842183 8.582251675221242
Al 7.792672867193192 6.597211836254891 6.483218170563443
Al 7.446792613509116 4.013113383531501 8.775872310640413
Al 7.706345884913606 9.137504488451198 7.570600273427032
Al 5.521869491135947 7.80314695545426 5.677805751141165
Al 8.122723139564462 6.765528064475518 3.5861395950594597
Al 5.878611161114087 5.248002807450029 4.654255056135787
Al 5.4617959937269935 10.353497910870852 6.806028359460286
Al 7.726847072734178 6.810335720410951 9.278104038671785
Al 3.5479947429271195 3.71366004581565 5.103225230509468
Al 5.069587417427125 3.1264997865999122 9.431143739367712
Al 3.16002069669866 8.570074970367106 4.262386469373276
Al 9.74622553849471 5.049234360092081 7.8836410346378125
Al 7.676500777600239 9.20552736869624 4.661683475061384
Al 3.0985400114717687 3.9483201843474016 7.682048406983157
Al 5.544158340513341 2.633884773416842 6.910166467495756
Al 7.810195436295586 3.8308747238728893 6.089170413142138
Al 6.585417738011929 2.7628008978372156 1.6340858068738906
Al 8.100882167844196 4.090674637589052 3.4180698400828207
Al 9.825734337031424 5.362963531713391 5.177915557754527
Al 2.983280792486214 4.492129167812697 10.395686888311767
