37
Energy = -115.56872397 eV
Al 6.505511804608633 2.363909661842188 3.901478899737962
Al 4.77221963392238 4.973318244286316 3.8843410449516895
Al 6.480783230066135 9.183667069414204 3.3315597903158065
Al 2.2993363160549354 2.4944833418376144 5.890272015041181
Al 4.20825898907644 5.488500577213182 0.09186896198709464
Al 7.44873535587201 4.749348504284374 3.103671916399818
Al 8.804421698613444 2.958797109642149 4.9319612542978515
Al 1.9856684609933717 4.365639207007353 4.108007028139447
Al 8.485931276041613 8.641144900218542 5.132130918497005
Al 2.730981461693342 3.7682636811187034 1.569477478291801
Al 2.8909318335674143 6.413903474889229 2.39504749787495
Al 5.368086922012205 3.9332913894240047 8.60592572999546
Al 5.530793621929478 3.5811914042161863 1.6519372383647457
Al 1.9442373352272737 6.836268459824276 5.070689251924502
Al 6.811820964872076 4.548043692338759 6.056875408724367
Al 5.120085480557881 8.995087486349046 8.743402960038768
Al 5.574576804770506 5.954914413890755 10.51416138352314
Al 7.573062263983331 7.498403575444534 9.71130597794549
Al 1.103089111086756 4.856318910794713 6.782553811395428
Al 5.711905090599207 9.092178148194604 5.967567725217025
Al 8.57618130240397 6.65126216262654 7.029312011154082
Al 9.86686321457789 4.165272492469916 7.0696361087102035
Al 6.6463093599586545 6.791955110187429 4.792804878069592
Al 7.49867130030528 2.367344170838089 7.461844038328269
Al 3.3906276946655027 5.89147917997943 8.871793890831864
Al 7.780926207405259 9.117043038104947 7.684830948242309
Al 3.487073845506709 7.830269234747922 6.910387523133903
Al 3.8072352587679856 5.003165718469269 6.317043002101763
Al 7.796455208002565 4.821944989851258 8.839643475032023
Al 5.8761076645024675 6.598399103015902 7.609742848096935
Al 8.440427968201712 7.2966683541901896 2.5965779909600486
Al 5.826078907419724 6.747543514466231 1.9640412722992098
Al 3.867566363588808 2.4067681661801132 3.6931886058024497
Al 5.010953487436138 2.4740957914305284 6.30289745613246
Al 4.26198718325013 7.821553664305801 4.137543943420223
Al 2.892863598847686 3.2760420802764543 8.301835617355424
Al 9.3326818881111 5.722770740755272 4.674933823381567
