33
Energy = -102.61789021 eV
Al 5.082690296780987 6.892394391511187 1.7283065373552418
Al 7.947612477250674 6.886119507482756 1.8836708638637916
Al 4.9652771587794975 3.364802836649619 9.65255702661647
Al 9.918915256871426 5.701729919334113 8.880569459480526
Al 2.7271325442263223 6.709134913990058 5.930069592929243
Al 4.00469611333189 8.276906124823636 3.806810564581152
Al 5.370395880451046 10.660507201828949 4.458447622042284
Al 5.3270297508000395 5.93418923707379 10.065715050380499
Al 5.723057357469061 8.524825683810537 10.566240654950995
Al 6.391122082218442 5.302653993426806 3.4181824533771477
Al 5.887342046568982 11.310883229642002 6.9295750596371155
Al 6.657855055854147 8.666988667691603 3.305318100679786
Al 5.458845701466121 6.6861680571413915 5.558107597987512
Al 8.164322524168977 6.999231865789607 4.859664452158645
Al 3.91138393804636 2.4939265563717172 7.401761795224509
Al 6.868461100168567 8.982645657499502 5.961175919359376
Al 7.219465059171049 5.687820572863898 7.421979340872318
Al 3.9938699166143703 9.173039882008272 6.297582246114693
Al 7.575950556463002 4.24482180764036 9.692130339893199
Al 4.4823913549570715 10.166213563311628 8.878567644921684
Al 9.263193339480518 5.083789488717033 3.331790701192172
Al 4.974131873061277 3.953370737122464 5.418342459118183
Al 11.671156031527568 4.203701778657173 7.600299015865774
Al 3.6659880149769872 5.554344020993805 3.68127474195633
Al 10.070002858959228 5.550357067692274 6.002726874110762
Al 4.189552819399478 5.198345580096238 7.694329870444393
Al 9.028474789664424 7.812050096572879 7.339719866853064
Al 6.568346335539422 2.9315427768899323 7.4746955543353275
Al 7.303397580672201 9.507779921119985 8.564065645209547
Al 5.3297320327150635 7.62407437951161 8.026565848703532
Al 9.164350552888498 3.298530817676141 7.651030713525585
Al 7.769859660975257 4.046089466950921 5.330012498914658
Al 7.843559044259641 7.090581303886007 9.708274993121766
