37
Energy = -115.02532351 eV
Al 8.540890990812407 2.6888546841797787 8.725168903815105
Al 10.129796819642051 4.182962280674505 3.9445127519231447
Al 9.242673399307876 5.226638117148729 8.301551925027495
Al 8.610170627735581 3.484298380163222 6.124351107647095
Al 9.761683872050956 6.171571939135785 5.840717473652565
Al 6.957903854484048 4.282461440314523 10.461078239362687
Al 6.20593417548746 1.6646329802067652 7.712150135106473
Al 4.565086717487929 3.163512040362863 9.449786147436125
Al 7.828077242889172 2.7189347751204416 3.5479554720199604
Al 9.5634853465877 6.699260869490057 3.1005034241006544
Al 6.467051673538215 4.281378090105029 7.772165641021394
Al 7.13903244277462 6.516744177401972 6.773384373468827
Al 8.157836798441801 8.198039660016674 4.726619104359652
Al 8.332547786154484 4.6400596839503665 1.6180642170191046
Al 7.536728743481429 5.346303823489968 4.402064393273857
Al 7.48176151709818 6.8910942346148 9.464428798616806
Al 7.894501741617222 8.983041417504559 7.469636881732393
Al 5.922195160480515 3.1818366044713824 5.269052520835922
Al 5.323466464234182 8.307087318191359 8.55879679709682
Al 3.745762679994559 2.850892165365116 6.739320964240869
Al 7.248627200365233 10.675597273839877 5.274994252225664
Al 4.780204165696801 6.5916619300550385 3.8981965451935827
Al 5.518517120696327 8.388428918595837 5.807854652429179
Al 6.970496207160715 6.956565031526346 2.309658319370048
Al 4.534271698139823 5.634269657530076 6.4625463080833585
Al 5.721910433393975 4.348806815058363 2.6439424092013004
Al 5.882425234651106 9.152085725098733 3.2564551121738883
Al 3.5498526023434627 4.180932483879757 4.310672133656623
Al 2.5775386097421844 4.610510873646497 8.39179284036964
Al 5.584604698683144 10.675298438074895 7.441081552595054
Al 4.846476713239374 5.864164098415183 9.338806114039443
Al 3.296578712857394 8.81914550247964 4.101083705743529
Al 3.2066745195014175 9.390674780579344 6.764875546538292
Al 1.4298870697615218 4.291108935891889 5.967214652926273
Al 4.490122247208993 11.150341757470715 4.88293438860513
Al 2.2067862929995696 6.718438496566141 5.241503867015581
Al 2.8467212905202026 7.153538534525555 8.03727247460767
