37
Energy = -117.44580341
Al 6.413794808060896 3.178908607633847 3.002148847736654
Al 6.836139093685997 4.9732648288280314 10.422370978662702
Al 6.196323240542555 7.755673949203266 6.029728018377592
Al 6.1458692309778735 9.80636438030993 4.154427964981099
Al 1.9680390276440243 3.7323651634557464 5.747677524709133
Al 9.013503672600164 5.828628336909062 8.70939102883982
Al 4.050172866893036 9.64363003317283 6.071757979252761
Al 4.112475425902005 3.2934167603025246 7.1805048148260475
Al 7.023107037581869 5.395860826072459 1.4389727306116074
Al 6.313763981321432 2.9530635561002976 8.551528303867022
Al 4.110320796326222 7.663524640851587 7.974883703377023
Al 2.264443116324251 7.6832806156363995 5.963437350706047
Al 4.601789530561043 5.234904007153927 9.100656382098537
Al 4.206265391047501 7.829246352787742 4.01875377005665
Al 6.754501532825493 5.46471732688506 4.539894241861523
Al 8.582233679584839 8.185676713712132 4.65245937388686
Al 4.694889910481024 5.520186118671681 2.665973589637177
Al 4.312795987296792 5.707275092997574 5.873148370417726
Al 8.933833542825678 3.602405243713672 1.8379946303942454
Al 6.415282492522899 2.927107659785567 5.74736687958597
Al 6.688754136794835 5.32252533992999 7.2678165270553405
Al 2.3575843116024733 5.7371759131334015 3.858290703580614
Al 6.629071958991602 7.6267228343418365 2.7841518825767535
Al 6.5112432856039035 7.318679078833571 9.191443561181648
Al 7.997127478979354 10.281590092817328 6.150151043585712
Al 2.3265771049458412 5.539715624207035 7.792785184207169
Al 9.08837656904207 6.061227101163448 3.1790376753804006
Al 4.1316845489394 3.376289079755283 4.306175956448169
Al 6.08537908028222 9.639386882885365 8.051645623637883
Al 8.557069817531145 8.089557648735042 7.465775340939055
Al 9.211798049536704 5.870620051294478 5.960457489986272
Al 8.832067111832291 3.2866318313410625 9.727306377176054
Al 8.757111044203937 3.3923976601097325 7.107768472757079
Al 8.810099016292051 3.536786292777 4.498007914706312
Al 0.3422459847715195 5.832874558131074 5.757512844680075
Al 5.760865281911862 11.698831419708135 6.174448022641993
Al 9.325192286973918 5.371279809894384 11.405940328814772
