30
Energy = -92.93920057 eV
Al 9.059164540306345 4.080648326832463 4.7050347174425085
Al 6.609711338884238 3.072340134450611 5.429012287596182
Al 9.514649629924401 6.133541612378201 3.0150967285672903
Al 9.974709063207946 3.865981039887129 7.1658661553332665
Al 6.930827803766731 5.371728743274881 3.6692420106991843
Al 10.013579338212235 6.40335677372562 6.010944554366608
Al 5.184709985051872 4.114694996859916 7.4859006106561115
Al 7.333225082429708 7.495350053459499 2.1484791110473496
Al 7.629538928336761 3.519206261968312 8.35511272310291
Al 4.7137797406610185 5.038025015257939 4.978815208442308
Al 8.390541471798135 8.02972021948437 4.6094925751949525
Al 7.459554560016775 5.518864173121745 6.355434184100733
Al 9.271794171624386 5.950040519562574 8.716141374031432
Al 4.774324042037834 6.948310072125066 2.9210081042607414
Al 5.8911272198793485 7.5448362286849235 5.438462106469205
Al 2.6488550296874886 4.923740719573075 6.829860783628511
Al 8.375992212942863 8.152334992090736 7.2979581583675275
Al 6.106270447901775 9.469385117344432 3.5436005785319056
Al 6.5215664841623315 6.256945714310708 8.623353845712531
Al 2.997810532082115 7.114294897442311 5.11548055785602
Al 7.686899448622944 5.881509390392867 10.980656262899528
Al 3.425673651077849 9.245948878858783 3.5981985033564037
Al 5.856748162256182 4.064317905898104 10.23687571175658
Al 7.171463484105307 10.121649414220917 5.9329370036250415
Al 4.219221303171663 7.066858829329983 7.509188075214065
Al 7.970555378881266 8.323718370922025 9.951882893535972
Al 4.405082276777955 9.687784806918387 6.066382849277252
Al 3.6368226003075605 5.260691574260337 9.423477405966095
Al 5.960237786211496 8.979465945578264 8.233908275883552
Al 5.275757232758398 7.3749022188710605 10.66238959016302
