34
Energy = -107.19673144 eV
Al 9.05769774985366 7.482858037254867 1.7309745166405643
Al 6.799484444975785 5.985653069824492 2.4814593577361856
Al 6.838105512899892 8.740024552679229 2.571242829275071
Al 6.3618759608109094 9.821879051406814 4.9154039207421185
Al 4.633306084303642 7.717885099329031 3.5657423515543685
Al 9.121348833408957 5.94887214749984 3.983150077907059
Al 4.227980334528966 8.647840360282904 6.05860436860031
Al 4.705727256045124 4.826479434050507 3.6600688626037936
Al 9.039472065390145 8.711687588234646 4.236421282401683
Al 8.62012694812466 9.57670126250157 6.714912309005282
Al 6.863466217334116 7.110596822258522 5.079690173373294
Al 2.5281898920222536 6.699922848322735 4.782893756444676
Al 5.8125472401485565 10.685178477651288 7.3455080529948695
Al 7.1321787262997605 4.298816174212067 4.7521709583533145
Al 4.711296026917545 5.8633364792165095 6.270707887051674
Al 2.6554690520029145 4.0527526746865306 5.174105506587289
Al 9.342656230048746 6.968471485988752 6.467562315689015
Al 2.554776530101587 7.0765677457037075 7.46408659538255
Al 5.014619903917556 3.0952745637106944 5.946335098541548
Al 6.487592627591279 8.015693043651758 7.657715997008331
Al 9.41758519231784 4.284143309161577 6.183375428006667
Al 4.172020210424866 9.03473186928478 8.722322489245427
Al 7.181849568970818 5.367997366220064 7.3839438821034085
Al 7.748510352205728 10.224700728923827 9.141310380064784
Al 2.929274000536296 4.41835776666905 7.817320859454675
Al 7.405695739183497 2.5690031485254416 7.003275236480778
Al 8.946693644437607 7.8508435992945484 9.000423319071496
Al 4.617101474939832 6.401664415408419 9.060818107808563
Al 5.330901035258309 3.826593013131559 8.73319858134763
Al 9.663873852558277 5.29215964897319 8.752706941792715
Al 6.214843458426114 8.408442456512851 10.386186215087895
Al 9.938097677177067 2.5426463888470154 8.225061099079484
Al 7.067020479086752 5.931199254607601 10.08006657532397
Al 7.790245798675023 3.452656236897703 9.582864788163434
