32
Energy = -99.69903821 eV
Al 6.496468284972977 10.438220623606767 5.342786722708281
Al 4.48592099352509 10.44367498229424 7.4519617543721886
Al 4.074335406294428 9.287679296783942 5.0809638863864235
Al 6.430406349671308 8.652734008211572 3.3148442022692226
Al 3.9193365629516026 7.94716130929236 2.8832355025756073
Al 7.9628123117685075 10.021789304297998 7.39720263739101
Al 7.948984390225816 8.062946408216982 5.4829842141622365
Al 5.954355152552215 4.426914905026313 2.9079553541795016
Al 5.840067125430421 8.151420876648494 7.104769294358514
Al 3.0272958409551793 8.170411554426218 7.456600912788034
Al 7.9015588212762395 6.368535581325205 3.306954391117152
Al 8.856422047068573 9.50107447234838 9.79530353013465
Al 2.8328222346469976 6.773972927292672 5.184090338639901
Al 3.409051483529663 5.4024023207390295 2.8992017093593816
Al 9.478836676940071 7.630975474783928 7.760494410635098
Al 6.10037345966643 9.660177334621922 9.519222438913962
Al 5.572928770167325 6.519972809213305 4.776295561247034
Al 4.06010691519126 4.169713825203586 5.135421302606376
Al 4.453366323748321 5.8428457034724675 7.21973299311768
Al 4.634502655610558 7.383177763055791 9.472134904486879
Al 7.4133213143339685 7.2775591866832885 9.575899521226406
Al 9.610094496954126 5.9543131762731925 5.522185773592771
Al 5.886515283286166 2.2790190041153147 4.601241003544653
Al 11.171700950532408 5.522758635515853 7.946437091966836
Al 7.61773984394262 4.255843659810285 5.058251879708972
Al 7.368069834320883 5.861927810297716 7.195600606861496
Al 5.779593982624645 3.566072208966729 7.14984238914716
Al 6.0049915018771545 4.971360929543822 9.467279265852868
Al 8.93422717065236 5.079969185128715 9.5195254308854
Al 7.702276279671211 1.8915619598292779 6.430861768530378
Al 9.463915477856643 3.7484608666089474 7.0612239509194135
Al 7.629122884686607 2.7568727232979233 9.001016083246446
