36
Energy = -111.17863145 eV
Al 3.7691550535174354 6.620381906187546 11.32751418604649
Al 4.7100193319214085 9.028312495797014 7.49036095742681
Al 1.8200551100572817 5.055266411646349 6.625053618889563
Al 4.159248635692066 3.7237954884788707 5.634008968467519
Al 4.181723885861427 6.398868676569945 6.812741106202341
Al 3.044550715864318 5.626524551726361 1.6387372973315066
Al 7.902939966227165 6.457965640400607 6.45901532505557
Al 5.647354067831418 6.446789334156663 2.024324754330338
Al 5.923278831582232 5.8490839038410165 4.775917986645189
Al 5.409265990571364 6.965234184120322 9.13821972784048
Al 7.301737332700311 8.684347376503917 8.135574962732665
Al 7.499040617334187 3.6070641166897506 9.66568818603987
Al 9.951198599226341 4.516361347818176 9.75687375785089
Al 9.862132969635006 8.767433963067333 8.601162323405529
Al 10.441879865309115 5.8457958667227965 5.168988206025675
Al 4.577455946726728 3.9172384359468517 3.1539509088281203
Al 3.585009109142619 3.7941943174841812 8.151672667986498
Al 3.592489667536885 8.111746592888917 2.446936848912226
Al 3.3873358294653912 8.692395024423078 9.819276792932556
Al 8.43220817650382 4.244678182083733 4.670773158482471
Al 6.136147100197361 4.581904974631511 7.498146136134624
Al 5.054886722834426 4.529192775602851 10.229035305908967
Al 4.327163437901509 8.384159602416167 4.941087747346129
Al 6.356880597808306 8.816305934770538 2.9186418148195266
Al 10.382275762967028 6.970047815085518 10.37255853502816
Al 2.5442053524642354 6.210250315227718 8.93354074812102
Al 5.228355315249935 4.163449820177385 0.5497402828448307
Al 6.941071720134221 8.7577290701948 5.523504976816608
Al 8.302620361708144 6.832136629616276 3.67828706501849
Al 7.153812099210221 4.3892057363866925 2.4955430964320433
Al 7.987153460695075 6.330979343603134 9.193496153804144
Al 8.834284840196425 4.064026139428453 7.291481284086683
Al 10.49523983548081 6.288507955504454 7.693544779283655
Al 3.0969586413083015 5.969686280560875 4.3309799866036185
Al 8.772788486979186 9.569481029073286 3.6621479403356214
Al 9.649234128332889 8.426382742180959 5.863639183312709
