31
Energy = -96.3703713 eV
Al 9.266897994138425 6.082141847838314 9.664419798464086
Al 8.315609270461044 8.53116918597761 9.874460514670503
Al 6.965171978094903 4.585058306359439 10.112842346196828
Al 5.9909913216986075 7.0601804570023665 9.799630794778395
Al 10.278444257683297 5.602816008555539 7.121573801649512
Al 6.183962598983323 9.997079986825224 9.738613439227723
Al 4.709627842594713 6.4821714753042174 7.487702168052323
Al 7.481733656740348 6.005071120004429 7.6587364838184655
Al 9.381976880547136 8.045122287061012 7.475365640846913
Al 4.378212103633309 4.544406786117058 9.348409540421237
Al 8.30841787250193 10.527399121523494 7.969386625656298
Al 6.356332541027905 3.4970465232172776 7.7075568262071785
Al 8.972951447390301 3.59771779260763 8.601922887436537
Al 6.408991446199162 8.632520345231955 7.428436284109255
Al 4.008714296275666 8.730502725727542 8.963576688745187
Al 5.910548608225829 2.2951815034040957 5.443963031377049
Al 8.48045982059042 3.9224562520082915 5.894941329604106
Al 3.790892287255988 4.02545346088665 6.616115966177085
Al 8.584418432093956 6.66148796157986 5.1296515624854395
Al 3.8161094403150333 8.798501874489881 6.341516165316571
Al 8.179074094202035 9.444562368337523 5.5180930847240495
Al 6.077671677788003 5.213620759209977 5.417371648638568
Al 4.339578180377484 3.8070136520483455 3.925671600425593
Al 5.919791970341801 7.892370572457434 4.81621352183291
Al 3.3568954010884515 6.265126914530833 5.209905616756882
Al 7.325450845299833 3.5329976689725435 3.5394336754600833
Al 7.086020979288269 6.050035298861396 2.9372642693012194
Al 8.144239170044834 8.488002569420495 3.1008826886185115
Al 3.4480800902614637 8.59116758930331 3.74558999831242
Al 4.394481632038784 6.183529891971984 2.76267683956027
Al 5.651244459014348 8.421080289361178 2.1610677573250925
