31
Energy = -96.26119679 eV
Al 6.80248753102455 2.059934830836948 4.560422630908733
Al 5.996370990157694 2.8662351994034063 7.507937642923863
Al 4.235835465576611 2.2541558035349913 5.586355033672204
Al 8.212366119157029 3.464673366323162 8.92366575974153
Al 8.727348026360273 2.6723727779210016 6.35931395748561
Al 6.267121934667663 3.6031159327463356 2.364500065026596
Al 3.9446104802274005 5.031119493161202 2.7771654163501265
Al 5.740501206074792 4.471428056667981 4.901641515378992
Al 4.37393434658779 4.995566365923388 7.141300894164705
Al 8.310727522818372 4.525887718695989 3.871102053130578
Al 8.586021455393182 6.1767477784624925 9.180216091298718
Al 2.7455690868811735 4.412221095195988 5.142209369013058
Al 7.566703965327619 5.030761544592553 6.780359743575634
Al 6.05349998692024 5.170783129770587 9.185035225111823
Al 10.143899001645673 4.973918000623679 5.77794120263542
Al 6.544886205115111 7.717243007786714 10.20159739234816
Al 6.679791064313399 7.367083660890656 7.436299618308255
Al 1.7638247656730983 6.536717270764182 3.8214014814937465
Al 4.262515698005515 7.298446101736781 8.675805073513331
Al 4.501799747558168 6.7389241318180595 4.987700328421751
Al 9.545159224880376 7.308239111652187 6.902432114894277
Al 2.3977173077268823 6.896634301159724 6.6628999798513115
Al 7.814346578792995 6.957813298883904 4.940011043994979
Al 6.344724299180179 6.3192999080624945 2.8253751990244944
Al 8.74708237693156 8.999489232545523 8.832651056236397
Al 3.9945846293212757 7.762600361827909 2.445623722258013
Al 6.20355734243742 9.85630055318495 8.5085154727256
Al 4.671687039114485 9.018024988937654 6.524199119476591
Al 2.807272356549775 8.885421308856653 4.657701492809443
Al 7.724902096900127 9.476834534349901 6.125402527539099
Al 5.974514224571576 8.83274667181521 4.069809274251147
