34
Energy = -105.26945645 eV
Al 2.586468049704987 7.258289435681352 6.250899496313249
Al 3.007670588572792 8.231505771792076 8.93003738600807
Al 4.388227859425538 9.737990313361635 7.339025143715453
Al 2.164677456335621 5.730062750139327 8.534266793173616
Al 4.601756728982394 6.485950869845401 4.667037224392498
Al 3.9288088620871164 9.165658181153239 4.815324028360014
Al 3.3193384692550745 4.604618590928252 6.291182574372332
Al 5.862850800280816 8.276191113209597 9.327084058362432
Al 5.889918293716948 8.525124404985126 3.3327748145133085
Al 4.2703109316137695 6.4337930520775375 10.519139537330451
Al 4.74870938567941 6.4392603351409345 7.700197336855572
Al 6.859824410770069 10.399615870089846 8.076454806254151
Al 5.472260723303214 5.748026406332711 2.2455078505352364
Al 5.145134774764205 3.886587416734749 4.491836842327856
Al 6.452355782961755 8.020772430949501 6.203221374537799
Al 6.331172590005781 10.60968406095339 5.313396756599456
Al 4.131651135958313 4.070737546218551 9.177762374735908
Al 6.857449104455363 3.329497057643776 2.5462970463800025
Al 8.359426625351025 7.753121596460379 8.461030275496114
Al 5.344012591018744 2.8506165692216423 7.0555747650832625
Al 6.854423065617004 5.1394413088464335 6.717660722638631
Al 7.414562507476726 2.6214377222605836 5.152395064142839
Al 7.34693891498606 5.743615981642435 4.190744638813351
Al 8.787412429839597 9.576057913643151 6.528574728015307
Al 6.686648136665081 5.5856196580850614 9.527248833054697
Al 6.419770214478133 2.898068916256915 9.773402888728773
Al 7.755188047765458 7.274796353785349 1.9513718718662423
Al 9.330307477376579 3.8785224448523747 3.445761701094155
Al 9.126750778286489 6.848399382940405 6.06650651698654
Al 8.43693203717038 8.769208618009216 4.108585136109454
Al 9.546455080287373 4.149921295922881 6.030175549890373
Al 7.986875517033118 2.660094847568674 7.721967812312981
Al 9.125520780993575 5.216543853621039 8.427444347145709
Al 9.867494629379093 6.504204516624698 3.491717433116289
