36
Energy = -111.70185314 eV
Al 7.325916240997577 8.769625029694339 4.04833356432521
Al 3.7617588967620255 5.673898784488382 3.255526946041132
Al 2.288696148776401 5.45940390922947 8.15279915273387
Al 7.659335973621889 9.660751092609647 6.530524528494671
Al 7.568868020421786 4.9461014621163635 8.221508117920866
Al 5.443770080387421 7.707371136638385 6.156407805975788
Al 7.435952918362321 10.386697003635149 9.145976514820578
Al 6.257251640205155 6.374864720663399 3.775803533700684
Al 5.015287635078602 5.545567547341688 8.061375032252878
Al 9.89822431989093 9.057725218828079 10.611000736743483
Al 8.981232397825295 7.055734752649594 3.0135644169930673
Al 3.527504533470345 5.779722733108516 5.846693680284205
Al 10.010943414768054 3.751200976148078 8.825957097863144
Al 7.275402437979135 8.432831915166519 11.158530652098413
Al 6.514159187293047 12.074574336678788 7.096873461092222
Al 3.417666009645277 7.85130451815238 7.96688198362659
Al 4.355770810663241 8.302733160458471 3.7827275434855103
Al 5.610906880193045 3.6985518103309154 3.305339967898888
Al 5.020516237027974 9.92667743767291 7.886981216682767
Al 9.5579773327966 8.631862169987485 7.9034422704465
Al 7.967382059513605 6.577337706315201 5.8713520956928615
Al 6.184598012488455 4.404503448152801 5.880035014738322
Al 11.562684016609385 3.908947367063842 6.547400187180785
Al 11.497170510761807 7.334371465100701 9.302957740827276
Al 10.185148069799826 6.097926062752355 7.354998034109056
Al 6.284907901042182 5.9903988387290985 10.456129170781443
Al 8.841820891288698 3.758788986347639 6.239263122446617
Al 8.14420818475919 4.402822361832161 3.7403183256525048
Al 6.813993458208719 7.736072774714148 8.427831364829814
Al 4.832212586863615 8.60341406707994 10.249569653705636
Al 10.425511286368184 5.604288156989894 4.7406054103622255
Al 3.5740204263131243 6.214188098444656 10.28264350433362
Al 8.318390701364894 10.86711234076008 11.704291831990789
Al 9.938506500536052 8.34274647911401 5.22875070029831
Al 5.425794390135261 10.41053844440797 5.207968275920081
Al 8.917780334433544 6.500614133249932 9.860907790303017
