34
Energy = -106.5501992 eV
Al 8.903276806122399 9.98151226554952 6.59420389098963
Al 7.317378296195318 8.8556666925425 8.508684048961237
Al 11.157330570553595 8.519241378337618 5.740640968883676
Al 7.363115919304522 10.681194748730208 4.349167815432949
Al 5.828866212443033 7.45794392974367 10.111598074932884
Al 9.58004082981931 4.696828483387095 7.287871622088329
Al 4.5137509076233 9.094058344741244 7.547843767539651
Al 7.76489710622862 6.053369215537238 8.802040843442722
Al 6.679225888439766 8.362442417200727 5.9083943536375925
Al 8.892405691178702 8.304082437431193 4.313911982744937
Al 6.318055281249603 11.038603036768746 6.892454421775031
Al 6.297697730735041 4.716022044862999 10.533346421077765
Al 4.104793853544296 6.068843253217392 11.575694428208031
Al 9.150017267154956 7.3997428334075686 7.1159952192805385
Al 5.374942818500833 6.524390109211017 7.513379629345185
Al 10.234287013967224 6.019241828376423 5.034160680285897
Al 3.24670047648956 7.336614274776818 9.208183873978484
Al 8.321288440830285 3.4002187528466306 9.2882419284841
Al 8.030397387327222 2.5919080146238502 6.580200029122696
Al 4.690081540703067 9.978499550985383 4.784569758329483
Al 9.21496007851196 3.5923378882257015 4.362477759339264
Al 6.098972593239588 3.9069798659668185 7.819064484652144
Al 2.6509767319740054 5.936121568462932 6.945726936217244
Al 7.364508723703001 5.638892377579639 5.788627146632597
Al 3.8968330741836756 4.721384404333698 9.232531645217344
Al 4.048059397757014 7.377342301033544 5.1879947573634215
Al 6.507028137405726 8.367920831620951 3.200233243922749
Al 5.481860022234841 2.2480600971765017 5.689906448940736
Al 3.929084879539353 8.271736443255826 2.6631116056222273
Al 7.967174673677825 6.016528733107018 3.1269476896243993
Al 3.483075250119143 3.268429152358994 7.105969453692407
Al 5.223312695600837 5.962601747206542 3.0327263741217827
Al 4.750847040183029 4.848288167660313 5.415335891121444
Al 6.621335208276348 3.7695313545500877 3.745341349807507
