31
Energy = -96.16260739 eV
Al 9.607623876194966 5.491537687831259 3.921246214131669
Al 8.279761681089447 3.2009098114953294 4.89897144903564
Al 6.974950661503816 5.299232073025835 3.9230990971890694
Al 5.7236213517049475 2.8002852153260496 4.513788537148707
Al 8.19496667920117 7.64615527479071 3.2298714698288147
Al 8.221939743513508 7.125760877767285 5.8916741307809835
Al 5.550861455121967 7.340428633645113 2.9888298443804273
Al 9.731599366550347 4.965288583029062 6.483588706091063
Al 8.718118821136722 2.6946614799510784 7.495744711263732
Al 4.402317040408923 5.098263551931285 4.251114793341959
Al 3.635189879221548 8.747940888558084 4.154313052389928
Al 6.147986056559916 2.4420919209592626 8.02465701504558
Al 6.39980669795178 4.719889948747943 6.487707065406828
Al 8.774160395142834 9.747239777139896 4.831096972483669
Al 6.141939605822426 9.68034083763285 4.411459497666206
Al 3.967332648627812 2.873640935321146 6.58760444606673
Al 7.632815661235163 4.633525588605665 9.041157880790722
Al 10.279941022137377 4.330565278059924 9.003994353459106
Al 5.358364952009243 7.2334666674047865 5.823485911715152
Al 3.3486513564580145 5.367985159287471 6.695800289217692
Al 9.590335718520093 9.233185961742533 7.274806003710184
Al 9.318288083783228 6.79384510230176 8.514184076562326
Al 6.980979382085497 9.380984286750065 6.9349631122508155
Al 2.5477905257379025 7.94446896247484 6.4887031310271555
Al 4.415436860504708 9.845612868457843 6.555352153988622
Al 4.990479707424293 4.69752053884195 8.883854644956648
Al 6.61638360114333 6.9683141390827705 8.274049387811367
Al 3.9213404972508386 7.149847596628818 8.664803312249012
Al 7.972336807774887 9.096001205229605 9.436358719227993
Al 5.363137217890865 9.404027688341024 9.136565097057234
Al 2.699627294016636 9.555066107362816 8.685239571449022
