30
Energy = -93.01155409 eV
Al 8.311929689787187 4.37182898274819 7.581771769070507
Al 9.953433424586509 6.337929022644268 6.923195848998989
Al 7.886319473808577 6.776909453802238 8.693872003989364
Al 9.683624393436002 7.726725476183854 4.477348941655472
Al 7.606563993399877 9.247878196550328 9.686173802715325
Al 7.058647367194096 3.23846280090634 5.439016077453807
Al 5.977444955434695 7.345887183302858 10.629793696565361
Al 6.328882804358046 4.77536287608531 9.622677072788576
Al 6.254949357655961 2.6977543708829024 7.993867271005534
Al 3.9541572203896105 6.603940490434475 8.907221123923003
Al 7.5762606350157835 7.572975466673787 6.133386249308006
Al 7.281419372265363 4.176090327755917 2.7867948700883716
Al 3.828990286169784 4.0209044370270695 8.673655222918475
Al 5.893016292500773 5.503242925758246 7.01732128037501
Al 9.515169635792233 8.804814975242914 7.753911063166311
Al 5.664778503415094 8.32573302452028 7.957444428677387
Al 4.207089497236404 3.2737678701759445 6.128844413105754
Al 7.162436307946139 10.44183760221153 7.377694801256427
Al 3.2771542918594596 5.769955091290777 6.282339400659791
Al 5.663567912458427 0.9609740825521906 5.977853198075631
Al 3.0987707438583594 8.4207442621702 7.00663471384919
Al 6.920640381692608 11.846769615483316 5.038625948706176
Al 8.688856980021516 5.224187285337326 4.870495347015693
Al 9.070607824881252 10.133457674273284 5.442539759927848
Al 5.192089667566534 5.090402544914472 4.352807286479228
Al 5.029295562230805 7.557630449382317 5.188511989280826
Al 4.897137564731757 10.106518268931966 5.945731841419895
Al 5.170141701957513 2.496586830100832 3.67122997902773
Al 7.062502059968669 6.836534244037369 3.380111127174234
Al 6.803659944586056 9.3337320148239 4.078667317525968
