31
Energy = -96.17977637 eV
Al 8.483526253500917 8.364272477488049 9.478586007022944
Al 6.812393943051636 8.010798385367885 11.584802871309494
Al 9.379418993771225 6.261265911181776 8.095285932018822
Al 7.675918775249693 10.4345387958347 7.834243247697857
Al 5.880441600956638 9.050885439969315 9.189301986056245
Al 7.82223638430898 5.797342962004929 10.23137955433583
Al 9.793387094925562 8.812314903156066 7.129384962847565
Al 10.803005264597294 6.58803703244549 5.860558221396866
Al 5.186764817161522 6.559981390557662 10.037979301747773
Al 10.450575298700723 4.124826532554397 6.721752652824641
Al 7.260146917952765 7.733624210964919 6.845968808679205
Al 8.493176264626696 3.7751632412483827 8.47817294771855
Al 5.308911582515301 9.635485533817281 6.293529810824232
Al 4.474141506856186 7.436670968422488 7.491593960537902
Al 7.849476849311518 10.075787068438705 5.221516752959964
Al 6.371949260663935 5.301992923139415 7.872317613665408
Al 3.542125235787946 5.17029458544005 8.596561515965943
Al 8.283776990808022 5.331980790207612 5.540754131550154
Al 8.86032869596781 7.773856031168156 4.465517670401269
Al 6.166475834273543 8.447820643523672 3.98262232487678
Al 7.080636291817845 3.0754729472384796 6.251879483901246
Al 5.566296284720358 6.076431449923339 5.3239826345314665
Al 3.531760256033924 8.234334543024902 4.890183429352413
Al 4.485728558883134 3.791882939374331 6.574069485614855
Al 2.7554088463568824 5.906658745181317 6.072612874013336
Al 7.313389295370556 6.293362657001289 2.7935389303804823
Al 6.426135149694249 4.0637215256408235 3.642579692020106
Al 3.6938154086570387 4.328807135902546 4.075045725335621
Al 5.1068966747137265 2.0151528202170788 4.660419095466839
Al 4.651181955098071 6.5461999653418745 2.781214196659058
Al 2.000114669648443 6.490576400205523 3.492185134268343
