38
Energy = -118.68027805 eV
Al 11.087585395151793 6.0520284639041515 3.816602014729195
Al 10.460262237429989 8.668277728928853 3.6912789631827225
Al 11.702074990436957 7.679423980563675 5.933899534534211
Al 10.684531391953639 5.0228264672581595 6.359042464209057
Al 8.597918391863656 6.633636145083332 3.04789569298322
Al 9.26196913169763 4.125063637747013 4.018207522635992
Al 9.654516252436279 9.736065993171497 6.256065608808568
Al 9.054157524630211 7.125169920195652 5.712063091137972
Al 7.8822913392789316 9.14627761903347 4.082492238331914
Al 6.926253421312701 4.357681217306505 2.750369705849694
Al 8.872019212832242 2.8727407781778522 6.3874537853887166
Al 8.828705114274571 5.069286610872351 8.315535886862126
Al 7.2085396749451744 5.172273860574602 5.5482911806359905
Al 6.00145405840744 6.933326317554743 3.1299018441334607
Al 10.424066907492424 7.237411776796444 8.195151933746255
Al 6.4892939141223325 2.600746241526875 5.008110558270841
Al 6.868061323000529 10.325169690424811 6.519271023709682
Al 6.72115309456926 3.3853169808238146 7.789447775908673
Al 5.3292644759811845 9.477434574979288 3.9439274225396503
Al 6.344068416679968 6.184553326045795 8.036065447439803
Al 8.146862294816264 8.554998703359123 8.225375806462532
Al 7.134131303767017 7.478100971731243 10.403763841511086
Al 3.754569695714199 7.283256334998096 4.409098980128758
Al 6.254765970871603 7.668410590792925 5.887780324792811
Al 6.87137401585394 4.7165554016336415 10.200702842091859
Al 4.734782745576704 4.756666852820456 4.166114443556851
Al 4.159032428084204 9.535792142410276 6.343410375653285
Al 4.307767949266143 3.310815020452744 6.410954852025184
Al 5.520061293326002 8.786637452978413 8.494471742787827
Al 4.5079379900363055 4.239481887999514 9.075455489892471
Al 3.8076696588787997 6.217324956116182 7.196309854508557
Al 4.615048701531059 6.868299860973128 10.203382127129174
Al 1.8601652979498522 8.205373399648385 5.955525196469021
Al 2.294498428702948 4.9989949425689355 5.252256935973803
Al 2.689730735442883 8.30745029488394 8.637659712677367
Al 2.2741861522096354 5.732691489787951 9.73173227868154
Al 2.077215726138406 3.742929218469979 7.864050263699069
Al 1.0737207907120287 6.233778343894744 7.415485743235786
