34
Energy = -106.00152591 eV
Al 10.251323935229578 7.928059497433952 7.40831722439643
Al 10.645009714318302 5.244233625785268 6.916771209065187
Al 9.553576403346204 6.064935233632524 9.313533157520753
Al 9.636358413903315 6.84354540096492 4.88228433240641
Al 8.21904591219725 8.930932101206388 6.0840337056137
Al 8.8754983465691 4.178926333046626 5.292953568265136
Al 8.46846806256874 3.847804055043413 8.037134004078244
Al 7.854411075881332 8.249037389884537 8.776215910451588
Al 8.009666316324441 8.442402094641764 3.3865912152379902
Al 7.8851475421794985 6.262115902022208 6.898408930980422
Al 7.1801464416262855 2.236394357218851 6.251887079781162
Al 5.970025949362683 7.337605612034401 4.89318182942925
Al 5.796842097011201 9.200932878370168 7.295682540735474
Al 6.958918588841962 5.704325152925149 9.493106423284091
Al 7.744056248052675 5.683234343120649 3.3280355422865506
Al 6.242824921678689 10.152133075877853 4.820158372958141
Al 7.2688696115502855 3.0445817450115595 3.5250019288764793
Al 5.961995048229201 7.3485755279278795 2.0544134978265234
Al 5.774425976065805 3.615267769220909 8.20649226907582
Al 5.311210780346434 7.901042512623158 9.703789928633146
Al 4.676585642125043 2.388133575101226 3.5709750585288815
Al 4.476677108612731 9.339948288780237 2.9834498593495917
Al 4.963718371551432 6.43790595583307 7.38759839802883
Al 3.253145053490003 8.58120829566872 8.12993976271462
Al 5.902829623665485 4.564373752742985 5.479643351172818
Al 5.155092606484972 4.914433849587583 2.790518856758428
Al 4.39071193512081 5.208727375334137 9.872296185740792
Al 4.5030508388322685 2.208036290490913 6.211617762749089
Al 3.7120315763183944 8.888777666409581 5.519471136256
Al 3.4633219089223632 6.912441233127558 3.5993192678579136
Al 3.219964156376032 4.232914042265371 7.383016070369259
Al 2.174319784238059 6.256496778692641 8.807637697865692
Al 3.1792948096736953 4.359955622067886 4.6456597486229105
Al 2.401615037629894 6.561406006752118 6.134133988302538
