35
Energy = -108.6834067 eV
Al 8.564573667238774 7.170425669679652 2.42654058054358
Al 10.224365827519538 7.10238589481196 4.7735097792943995
Al 8.84885584559065 4.747910377752558 3.8165986030706898
Al 7.94580189535458 8.695046239665437 4.621436503766169
Al 9.251240787619732 8.759518240208873 6.909289503219101
Al 7.735952980818654 10.952249372385328 6.447440112303831
Al 5.563820310690378 7.268112397149401 5.337061153461229
Al 6.3763389269493045 5.649725425087509 3.086464789340837
Al 10.07028866869163 4.405144125783458 6.10439589354726
Al 8.035597314109555 6.3422323747379785 6.188223565244011
Al 5.588958148268346 9.946109384071008 5.037636525281468
Al 10.467956511770048 6.4762383342752665 7.6376692759275375
Al 7.958484317213875 10.208640035571278 9.150906837192425
Al 5.857641490173762 8.27892436101002 2.8664723382964863
Al 7.600974884589396 3.550558896460835 6.255548705431108
Al 6.501645437886497 8.677358091917919 7.43831321014695
Al 8.36943555107613 7.315468879247562 9.059691202864677
Al 3.8201280655632943 8.962892920900934 6.79195273526077
Al 6.19793447795683 8.030236931830498 10.319157699743391
Al 8.215267168658821 4.6698491061425145 8.568999493489683
Al 6.686137113947217 2.9898118458429757 3.7926223877203937
Al 3.795264430356322 6.464638084977187 3.5370828340485456
Al 5.842370188757374 6.018568969280368 7.692160872337965
Al 4.7569224431264 10.036582688373725 9.21302986157661
Al 5.056422997127196 4.568621597617453 5.353551815979635
Al 4.375412985954846 3.8983670714871095 2.723266575511173
Al 5.467583950059562 1.9282384776472405 6.127954251331313
Al 5.95134466671547 5.3394660393323985 10.30654680439071
Al 3.2214526964187917 6.312342069629511 6.533077030809516
Al 3.8695225767834924 7.451495580106792 9.072068569282132
Al 5.763912002986824 3.369193008823527 8.312501683603832
Al 3.4583742728094538 2.0095903148629066 4.379389056428243
Al 2.299538134927278 4.5850288845802405 4.638892979348492
Al 3.554176976889362 4.891378335044694 9.017009816271573
Al 3.1638327092530925 3.3684082851340764 6.9211420514191815
