30
Energy = -92.52545838 eV
Al 10.046395599107527 4.464361583140159 5.556492328741076
Al 10.386502692986364 6.79216395135026 4.332628101533341
Al 9.166843310088936 8.851957508861862 8.36822178053119
Al 10.302869357949882 8.963418821260026 5.85918303187167
Al 8.316229755437853 4.316374632352806 7.766794521420315
Al 9.179994721297223 6.642126340912087 6.859015569828185
Al 7.998339867586332 2.9449910595607953 5.212068050040154
Al 7.790573800069536 6.580589027647806 9.190697457747808
Al 8.00349084567621 5.568452528495739 4.113584978864646
Al 6.901664660301254 8.861208146013304 10.181975192910086
Al 7.540093228730275 10.925859859201328 8.640548683210794
Al 8.133232551018589 10.530457173443882 5.890249973045599
Al 5.941715467012385 4.6142042568314 9.330408052418571
Al 6.103585716655755 3.126461234998444 7.085229279088147
Al 6.627694335205308 8.682647529919375 7.365614680108849
Al 5.7562966700320235 1.5521654923477248 4.874538586538696
Al 5.745360133165658 11.458153058184212 6.799450149222669
Al 5.05217222365387 7.332917504295635 9.046938710564099
Al 6.351407212637265 6.0376061053876064 6.503380949481839
Al 3.8425786845950687 2.984915594720177 8.567282408465642
Al 7.888496251097064 8.064079255459282 4.845001738747072
Al 5.769408543316977 4.244466190668194 4.32708744994964
Al 5.663254640522639 9.59152243558793 4.857231103253978
Al 3.78974270490315 5.541649893267093 7.7120652364895825
Al 3.7612130843370686 3.1479436475155387 5.734111802639803
Al 5.816515314185469 6.9441604423418175 3.5319286368664415
Al 4.188855519343588 7.997750385741578 6.5587071587585575
Al 3.7266031847782273 5.878788291076402 5.020660193921931
Al 3.5582805736069987 8.288434795366223 3.8379041015357154
Al 1.6695528418072543 4.089136745157877 7.049963583310454
