32
Energy = -99.69054368 eV
Al 3.2915825154232463 4.939749721291164 9.057332530670314
Al 5.40236205624248 2.806226208666891 7.638727182981952
Al 2.934395877296019 7.656264072389729 9.494383368377685
Al 3.14713980074426 6.502836484045715 6.939398716998741
Al 5.405486475025299 7.00164022661961 10.280662943605762
Al 3.3005366272851533 3.818839713951869 6.497527681603446
Al 2.592204517296992 9.159982323592166 7.299228295920149
Al 5.547212079093789 3.9919223067328105 10.015218887064139
Al 5.6501966264486025 5.643590224658577 7.753991022312731
Al 2.7660404796429283 7.866570410808818 4.756828755032323
Al 6.043826518077909 4.216238592133335 5.357540870316088
Al 3.499624698154354 5.34632706035415 4.328715456302337
Al 5.069927631866573 8.381982129297882 7.899532965759518
Al 4.606929903804513 9.74415252887259 5.560404983477142
Al 7.630786990528574 5.603243691150053 9.902800181574358
Al 5.387202659320527 7.102439864904247 5.3854744082459485
Al 7.9134544680384575 4.084918915620147 7.497124898374023
Al 7.589843721439928 7.974920314957432 8.73771906657735
Al 8.587886543696877 3.096818407067525 5.064211583156349
Al 5.919873402866519 5.733490563382479 3.0474187619337894
Al 7.155266353930519 9.165043973523556 6.398217283327863
Al 7.119577399352393 3.3957476680468046 2.9506642534087706
Al 7.92827711041669 6.51276220785124 6.29949740908935
Al 6.709353712570992 10.441341726726536 4.033007500846181
Al 7.513157691037135 7.8634661600765225 3.8022817977691257
Al 9.727364001280733 6.208907484307856 8.455502093128539
Al 8.675950495156318 5.439795720658416 3.7363898735153738
Al 10.198637154545287 4.9882967648876475 6.012049755015882
Al 9.691846745495644 8.760707470933744 7.257418392118969
Al 9.176431471920683 10.01244558512231 4.883444710364069
Al 10.082547067361077 7.461913094406147 4.749742281926063
Al 11.74866434946287 7.091005527785378 6.921129234028866
