34
Energy = -106.24101793 eV
Al 10.451875935026015 7.105699521355066 5.287649989585664
Al 8.708252848793292 9.029198274224669 6.193967876222697
Al 9.541142821422504 5.455713168503933 7.117277441909131
Al 9.31026458571885 8.481332021308603 3.364000351094657
Al 9.3460209584382 2.810844085292991 7.487580540657394
Al 6.405272790429717 6.978818987372565 10.378479332650059
Al 7.228352954256255 9.917682451842426 4.07247428506826
Al 8.448942862191984 3.8658689096060375 4.950360189841274
Al 8.186546924533067 5.0108807964565125 9.443816123472095
Al 9.158611020912852 5.71882309229488 3.0652237116511882
Al 7.721764674739449 6.614713911585369 5.179272352610586
Al 6.076527182649713 8.594605953406177 6.114104240874224
Al 6.92410404166544 4.606526078100828 7.033848597037666
Al 6.887330772287475 7.562519357390231 2.6057413095726947
Al 7.0894696837405515 1.9009458509700161 6.284671690460908
Al 7.550457877927227 7.262387266602471 7.928348028424917
Al 7.037041907401121 2.470348574388943 8.959959891418226
Al 4.757392497386775 2.939550824338146 7.2615231309269435
Al 5.429089417718278 4.540491926574166 9.365259308979214
Al 4.7010624775488425 8.949410471959927 3.7029844580190883
Al 4.748820091423664 6.360984783836854 7.300217712898988
Al 6.658280726166181 4.932678886359338 2.8427496968468104
Al 5.13621035007939 6.420329023691021 4.587602137298454
Al 5.125212353922396 8.689408726771545 8.598579569418831
Al 3.46175045168187 8.60104862112494 6.024347743623071
Al 3.3732314583406993 4.57932905507794 5.479948488966275
Al 3.8307534232725966 6.576479043681503 10.020114343908237
Al 4.4390233159981145 6.867206365440842 1.769107185032243
Al 5.6804749510426165 3.429210789784085 4.766735247526271
Al 2.864996099187952 4.667546439486235 8.183398635843462
Al 2.544581775349019 6.864204714670102 3.8255488540205054
Al 2.3360644773580583 8.141010993747978 8.389965434682622
Al 3.982909249492789 4.464470650560303 2.893712414839436
Al 1.716048113157537 6.4756107376310466 6.396106744404484
