30
Energy = -91.89187798 eV
Al 5.589391651525034 5.667125453407527 2.04854931058248
Al 7.226469683000037 3.6738496442491457 1.6787790188280438
Al 6.173178195082144 1.521947332293675 2.5751655195054157
Al 7.247582180548902 7.964695065180767 2.697115422042183
Al 3.96563221792171 2.979784818721093 2.8566833703442827
Al 4.202226187368234 7.8476164983625525 3.3183515807927693
Al 3.863844329186045 5.289034756806642 4.105226492372177
Al 6.094075832272595 9.02185012134227 5.10818469363527
Al 6.23423155069753 6.299753521934188 4.535523636229649
Al 8.446757021027855 5.299824227541712 3.3850726080957467
Al 5.46553462623101 1.0739299132156594 4.999711394638961
Al 1.605390134584106 3.971107165866987 4.050132097954368
Al 8.62363959367232 7.461742831040014 5.273048121565379
Al 6.436755895592281 3.576838957106184 4.345465629184232
Al 1.6668777915531174 6.758637876096658 4.580670636431964
Al 3.613710866087323 2.840606692572028 5.634681059291601
Al 8.12268278186939 4.769877343576381 6.140610023191662
Al 3.8308856201795396 7.476945744374877 6.072068761719217
Al 5.262281262449371 4.844127600079993 6.466915785408703
Al 6.649773441354358 2.5484735183853333 7.005666091588465
Al 6.558839515167924 7.025024457298155 7.011824884621467
Al 8.048005869235796 9.2335483802171 7.331715349063682
Al 9.156767536559583 6.626858638639974 8.00554579150835
Al 2.5767930987791905 5.128268998168034 6.7170801293407445
Al 5.142352585848133 9.273813767460458 7.59325926082858
Al 6.885383648817284 4.857691769766089 8.696163688798624
Al 4.247322530339656 3.349701145637899 8.41724972723758
Al 4.4248093109289925 6.337037626226505 8.619356259698765
Al 7.023669727451579 7.618969271408856 9.524992489688428
Al 4.556791941544989 8.602973489898783 10.14684779268691
