35
Energy = -107.86911656 eV
Al 6.600236974013692 11.124107573459204 6.07963608172795
Al 9.551799487576615 4.886312310869362 4.886924015716431
Al 5.084772017068458 3.798583814118859 4.552979005553283
Al 5.396764240436949 9.144594477129369 7.557551942485813
Al 6.950043913533277 5.823869693824622 5.1033317459724294
Al 7.578449260397451 3.056038849783297 5.376439676017723
Al 2.685616221358571 10.387868597899615 4.178202606930857
Al 7.454652888455411 2.4580078107722416 7.968404199425558
Al 4.663111833331899 6.129074431486244 3.495698867378894
Al 11.477876502957832 7.006022151318936 4.463526016458355
Al 3.5378455916341527 7.619828579556848 8.812818966082137
Al 10.81244451781005 5.418571667888048 8.990982264005915
Al 4.869178765181436 12.012094865122904 4.223254711082629
Al 11.483377374624375 5.526164286252555 6.577017595698542
Al 7.00148274155897 4.915947786274711 9.723206172023446
Al 2.7231988859784018 7.739908729576696 4.135535497060475
Al 6.640529832809646 7.716957251682209 2.9633904047025257
Al 3.258070452431442 10.149452412459386 8.906643445027266
Al 5.5994210461413045 4.239266502458773 7.074526842472196
Al 2.6917032430229026 8.717360942005488 6.55683311509286
Al 5.104048945048621 2.767163080324674 9.340884850860277
Al 4.358243776064911 5.254479864374904 9.193993243646272
Al 9.019637316266332 7.2632508521865216 3.745637523115397
Al 3.8140087267192797 11.205145972977018 6.569930532361024
Al 10.119327946858183 2.9282234487778696 6.863950945674553
Al 9.537413377604834 7.491250141413315 6.553403848237303
Al 9.353382405349594 3.401260911678996 9.620452733454018
Al 6.532714735165107 6.852257891812579 7.922328216341282
Al 4.33664544757395 6.5493128777774325 6.23939429719355
Al 8.451022143390004 5.035617060797496 7.358043691898288
Al 4.99568432840084 9.198665274552118 4.6136868140191
Al 8.09323187473107 9.332968527881249 7.991811695840556
Al 7.265660353052192 2.3929831883598944 10.737167108430539
Al 7.329112552032347 8.553126392850485 5.501563015340409
Al 8.83944637864498 7.114417877521152 9.331004409896417
