37
Energy = -115.50703475 eV
Al 7.8177752773759925 7.961864762614291 1.2596767576182852
Al 9.105664197369217 7.843705860937014 3.717912793821698
Al 9.910562437831949 5.380555920686818 4.428518724179254
Al 9.443322417506357 5.891307742550996 1.85719375431537
Al 8.503151103750305 3.4923071655877447 2.7946116211850045
Al 10.593685042864593 4.71494842861238 6.850850088795558
Al 10.239458795034702 7.613047428850611 6.243761817057599
Al 8.414368966556706 3.3468070312920264 5.522790973022559
Al 9.540419767745798 6.194682275170396 8.78355430262993
Al 8.339239506362924 3.726155368220303 8.200165149316671
Al 7.409846136829363 9.898302218282101 3.079238015248807
Al 6.735988746152448 5.469832769585643 1.7633637429490185
Al 7.6844676249329344 8.85121564825253 5.681907135392379
Al 6.235411655454976 7.4815745915222305 3.613433706521389
Al 8.386078635393128 4.616044403942498 10.709914500647526
Al 6.526614335037693 4.846177212672516 4.329891957189698
Al 7.958647983967165 6.134565158874607 6.311843158385729
Al 8.231146893793506 8.426574579339187 8.160611028592504
Al 8.343795214994785 7.541971317665063 10.747867582362359
Al 6.245132625590929 5.823069167918694 11.545768697292274
Al 6.090464355272739 4.089724426940254 6.8203303860150335
Al 5.962288697630537 3.7031548268217023 9.563376256382785
Al 6.6130686764834214 6.301220880897104 8.861501062314291
Al 6.227529147375098 8.957529764441976 9.97448752481026
Al 5.828240443386313 9.887341618350986 7.439680813754648
Al 5.356361803147599 9.833858363385161 4.762605999642474
Al 4.34643358733785 5.6644315133269725 2.7974693171588223
Al 5.409452792116239 7.292801590674487 6.414879686516652
Al 4.004077125668605 5.1719591272150165 5.4081182529247736
Al 4.117950590751258 5.279997977452378 8.0816074221757
Al 3.8235079464632804 4.834661088834929 10.704554029940736
Al 4.236354348753819 7.576657331081562 11.11422632721372
Al 3.9966872742482384 8.240411322158765 8.529291371516377
Al 3.488666878159407 7.721724716560124 4.303723214854319
Al 3.155130698855758 9.640474275508451 6.3322630505294235
Al 2.469354459329731 6.940673067087801 6.727465479310576
Al 2.1371013381845327 6.536116584393558 9.488991826125512
