38
Energy = -120.40568044 eV
Al 6.567708183504003 12.163006581963163 5.482184048986022
Al 5.230177391767644 10.459205405734448 7.280064088798612
Al 4.166003645458144 8.346277530960057 8.483819213238004
Al 6.85848988734253 8.695525099767275 8.62985875057173
Al 3.166494926613705 6.195279529940438 9.56647954541417
Al 8.037474628164654 10.284200646296794 6.672886299624675
Al 5.8593589043966885 6.272541766507418 9.659964552354143
Al 2.2699140466346694 6.558815902720711 6.941000975178781
Al 8.376148437296823 7.0602265005292315 10.005865144471656
Al 3.485705268090174 8.539971518618069 5.785250238328733
Al 4.7200764580306025 10.488632584170334 4.549396191712194
Al 9.611630990114005 8.580753867962443 7.833031001300478
Al 7.356332270567562 9.873742567621914 3.964731639783812
Al 6.278481384284875 8.244088939227073 5.906572563088952
Al 4.974293965119073 6.07975283545593 7.042816565929799
Al 1.6820783933084995 4.2844375030708175 8.414206704349564
Al 10.216974505274813 5.709462160198489 11.42855086872024
Al 7.824057476660073 4.44190182708649 11.213154948688558
Al 4.424923004356945 3.923875083550913 8.705903515923136
Al 3.6761678764361485 6.119640967602982 4.543124442248088
Al 5.087418475408065 8.159499412221084 3.386677051860691
Al 3.2365664204457443 3.9792328910566113 6.195640036117484
Al 7.696746733576071 6.27415588682327 7.291123147211025
Al 7.031631072256132 3.8222291994563515 8.775464653215666
Al 8.972528789812921 8.037977226261745 5.279674135285478
Al 9.593909771649477 4.643241783719418 8.93393608301852
Al 6.516485711201115 5.733908340795929 4.742948844041037
Al 5.961406099182064 3.534426972412376 6.411803209195291
Al 10.976051103746508 6.961892061805078 9.249945304000565
Al 7.716846691548695 7.471198184180726 2.9208602331289972
Al 4.729113714811493 3.6124901328365966 4.007290742489585
Al 5.2074924084912855 5.796144579391742 2.232825615017529
Al 10.366364597001548 6.098109749688262 6.677693280486696
Al 8.676759557822555 3.801151832193731 6.536095898977022
Al 9.223896776832982 5.474183820008357 4.383118683429553
Al 7.490848602387477 3.190777458934397 4.1729403291487355
Al 7.90933257050566 4.972693831849207 2.1612263876154287
Al 5.956106234339377 3.2473447918220604 1.6638720414909713
