34
Energy = -104.13510703 eV
Al 9.40852565112961 4.301216669893073 8.78651954965587
Al 8.373617240373 10.188350691546095 2.6286514128664336
Al 4.831987904021976 1.7183794019554823 8.049255754795908
Al 10.865415987072478 6.156279593082498 5.034370326300788
Al 4.867020921320777 6.885586613057905 8.129373113260154
Al 7.442572574449836 6.082539979827106 8.382475997918453
Al 3.9700602889707883 5.237262592646634 4.165800643387294
Al 9.037183223554088 7.669422096281554 6.389751897088121
Al 6.909142538683754 8.555288190034663 4.380341219864311
Al 5.767136664082385 6.5809157953552315 2.9702591968270435
Al 2.220737021629885 3.4711775219753296 4.982992393394591
Al 5.409405427875841 2.0760653268504803 10.610544194266991
Al 5.466882901089692 10.470382387049025 5.772037941183951
Al 4.2079736852931555 9.573411713133643 7.752127551466825
Al 4.381285900601177 7.7775913032999835 5.564662296058051
Al 2.3341280593476204 7.853274185734287 8.01739161592802
Al 9.79163450687807 8.248246540229779 3.7844554419276792
Al 7.084074570737728 11.680112811083026 4.269723103016532
Al 2.810099979813853 5.674619764429132 9.34977246743438
Al 10.842222732490187 6.1499469991256115 7.6920394941127705
Al 7.0917893735416735 3.2338536251609984 7.302912282743746
Al 8.210569950936824 6.0717368784958055 4.004221602689378
Al 8.596744917719336 10.187548995826722 5.852822720363626
Al 8.846031998845353 4.783975205993637 6.17861595242539
Al 5.123018005854105 4.367051706531945 8.860544494520433
Al 6.25496412231 5.776639535048024 5.833583331548192
Al 3.0194417757096956 3.1000892256400103 10.112030141851411
Al 6.733070306322274 8.508297209681816 7.258899505652611
Al 2.724067210848603 5.7706798268433985 6.440069876788594
Al 10.019523169287153 8.897953877170309 1.0628410332620006
Al 7.351778771522011 3.7056562681225684 10.111871232733826
Al 2.5645539599021365 3.301718703694197 7.575357342584067
Al 4.7744752306249305 3.5210320489705196 6.0746620101715365
Al 7.7827705922901345 7.600702449756251 1.724582659924672
