30
Energy = -92.10586609 eV
Al 8.745532081027083 5.444246995157452 2.3291032797049014
Al 4.114287530805061 5.766296433198949 2.953977375321912
Al 6.501864967976242 6.88469030093783 2.3507836835683977
Al 8.84550938392659 4.1293598603690995 4.781371772616348
Al 5.25072875723098 7.235495080455309 4.92841866957982
Al 8.569290510369564 9.83338673474646 5.221143871887837
Al 4.60478303473764 4.571352112250544 5.595769252104515
Al 4.082306926980888 2.939844340649985 3.370027235975506
Al 6.681244047397034 9.2108626648819 3.535029689364817
Al 8.327019868478914 7.1807041812678865 4.429732397385049
Al 1.8775818175290047 4.550688980935583 3.126157708780959
Al 2.2621413579592584 3.146383551560485 5.349743181619139
Al 6.478521866234634 4.515779043870624 3.651089846812001
Al 2.4904564075051314 6.347503739844658 5.206044584712272
Al 4.431441970018142 1.6326039723763102 5.787151002174186
Al 0.1690367585000373 4.944739689369653 5.023327659226924
Al 1.295030734709137 4.681140438146215 7.351482726565913
Al 6.010448796451569 9.517775143959776 6.133162958868456
Al 9.769714481520976 5.921606898708892 6.386343060088756
Al 6.975879883489234 5.694406679149447 6.309668375154771
Al 6.797317566560455 2.946454021709021 6.05084372298347
Al 3.580680368124156 8.6478216778491 6.574873949088815
Al 3.5822463129655593 6.050271452727532 7.630254969536781
Al 3.4963483964107875 3.186534945698348 7.803288718599981
Al 8.350614381812948 8.07788762233475 7.1418108495929085
Al 8.515447738014405 3.950998087392995 7.85469421914328
Al 5.681173750111291 7.545093344917618 7.965421612274275
Al 5.795677122979219 4.532363232274884 8.392136153876319
Al 10.306845683270378 5.898899541070923 8.953729188737146
Al 7.68620988864597 6.290191623930595 9.088800676397172
