31
Energy = -94.84775528 eV
Al 7.931443390471807 6.757814373935956 10.800016453206531
Al 5.28587515286105 7.49097197804994 11.097441295834106
Al 5.891377729979384 4.843826552689 10.589627374020884
Al 7.998238209003597 4.788633254660177 8.810800469167873
Al 7.272595391613417 9.129880862953117 9.525119828155317
Al 9.060193234542638 7.250399323805302 8.381806666189592
Al 3.7463371503766254 6.108183092146033 9.082803143049832
Al 6.21988341770787 6.8223156533151545 8.45885757743308
Al 4.470337097834997 9.004508231625765 9.02697393635775
Al 7.451650190990143 4.006645231085855 6.18172774807036
Al 5.446450587212659 4.136538231579358 8.0284081795901
Al 9.007511360585895 9.773461536785527 7.342616220051344
Al 9.802478624851911 5.174372267901416 6.741799655415103
Al 7.437549360875088 6.755816836543189 6.094380556842444
Al 10.04030465871301 7.636690849196806 5.9004824898513775
Al 8.695326436583935 5.4260541283585 4.084019671759348
Al 6.337256704382919 9.163346902786342 6.954080511658698
Al 7.263460661759133 3.1142516263844287 3.769292707631162
Al 4.999039312984126 2.96140908232053 5.596628019352534
Al 3.3717548406612456 5.038669429027982 6.624567530303601
Al 8.084244526175336 9.18572414961467 4.823484037447293
Al 4.005325057360155 7.652613574193652 6.786419503930246
Al 7.686940761538894 7.570878007618992 2.7749178226171343
Al 5.60770061861849 5.381817643439328 4.439911415844143
Al 5.525983415642146 8.222232041469223 4.5945362424357725
Al 4.829755965330608 3.043842151543959 2.8765786280636663
Al 6.7602811355783965 5.067590130918199 1.9145209186475969
Al 2.605500471939915 3.9117171255873355 4.418198100817333
Al 3.2203164678254415 6.7140861522087185 4.4005584441446075
Al 5.0417506600045146 7.246356967318206 2.273590949463584
Al 3.4273741889408096 5.152443126634003 2.140719417619618
