35
Energy = -110.21928654 eV
Al 9.067519740154744 5.131700698129098 5.273904334598863
Al 9.622825964968388 6.268010417563282 2.898962754852916
Al 8.083298547373719 8.45622795371508 3.2766426689738735
Al 8.510329208471637 3.814655457879566 2.864407600441238
Al 9.590667463116445 6.5994685234623764 7.57009543701713
Al 6.900633882957266 6.017808754848384 3.265314089922073
Al 10.268440628328108 7.705725117486993 5.187181151947342
Al 6.692968813530039 10.62733261987345 4.093291211944383
Al 8.771029424600435 9.919006867081233 5.78734343545744
Al 7.939495005698351 2.6541059903483863 5.2417235998886795
Al 5.805608403487972 3.5665679840616686 3.385420856582732
Al 5.454671030145969 8.174043616162711 3.861422774210867
Al 6.364587180876512 4.8713259706121335 5.769178392434425
Al 7.475823523101601 7.35633118573805 5.734124621609765
Al 8.501262253627441 3.887763631926025 7.58113090025912
Al 4.262808830406259 5.736254268556754 3.8378131487826086
Al 3.9659069215591374 3.402273066510228 5.321742109809348
Al 8.917886531044475 5.265174785419785 9.784661426992347
Al 5.9213167670393645 2.4739039610022187 7.018787369623338
Al 8.12333811529139 8.793918253078148 8.166636457895862
Al 6.850036261792757 6.264043081850388 8.215431967868494
Al 6.054937208178049 9.608923701447837 6.5010873269649485
Al 4.836959273752434 7.145140083217883 6.396692997005498
Al 2.880620912456724 7.930143439751482 4.592390014188334
Al 6.407116860304724 3.814787461737806 9.341939686274014
Al 4.078085431738671 10.417872095257698 4.68720049054514
Al 2.4474964253893003 5.662921571180494 5.944681925744975
Al 4.443990346958967 4.788099418711892 7.714030508283607
Al 9.05025691214135 6.692250286879279 12.0436982775382
Al 7.204290963586182 7.837121290611816 10.484476801913733
Al 6.812794567754598 5.345360797368281 11.504598835114324
Al 5.289092135759925 8.688823824077629 8.899318042958297
Al 3.4093572108790577 9.420277808658877 7.108543219674094
Al 4.783908993929503 6.237768538125757 10.004015768292627
Al 2.8472250134200046 7.061454231489309 8.278696548211023
