32
Energy = -99.78769433 eV
Al 2.7010292852119298 6.053426856808924 8.38397920328984
Al 4.532062319058235 2.5768357050081767 4.995843653748493
Al 3.1120644308130037 4.788618179268694 4.30679160262504
Al 3.191656730846392 3.7796516621507266 7.056593971725532
Al 2.854240307919473 8.661964564754228 8.256229211840838
Al 3.058201230629211 6.9154447499793745 5.801544258218427
Al 4.315848698738703 7.1621801902881055 10.281242602479342
Al 7.142345327260454 3.141667241642056 5.449389636849419
Al 5.2560051621115695 5.11473864884894 6.107749118612907
Al 5.519075500753577 5.179445073061978 3.3237608597204824
Al 5.667125912029822 2.6998202550188557 7.711418746645765
Al 6.875000392623031 6.90764449133279 9.696414228072078
Al 3.8925513091835025 9.474676613041732 5.945292043611511
Al 5.18087415614029 7.399533241372511 7.536439497928877
Al 5.114753112681391 4.936799828824612 8.951398764410577
Al 5.348400983258258 9.596562436547027 9.258469209936958
Al 7.543852878291171 4.685981316656974 7.745910139834426
Al 7.955117585097322 7.514708923024486 7.188607235745399
Al 6.386165364034854 9.74385135237451 6.60209959281153
Al 5.408646596389427 7.639213752753623 4.645756592946623
Al 7.598400235817938 5.8760162306485535 5.080502190164677
Al 7.113338802170959 7.259722750641045 2.54841502951124
Al 9.577931996937512 3.884967094462264 4.789602636525163
Al 9.288643348713007 6.044849573685113 9.319731584345597
Al 8.03283885025732 4.458272799660502 2.6289877021356287
Al 8.101859698863834 9.44093339493503 9.209033218585505
Al 9.903831984144928 5.577377600553521 6.737214724452463
Al 8.996511545664182 10.137900447181048 6.60564969893918
Al 7.926993617683719 8.67067425466921 4.594355404688025
Al 9.607032762066476 6.514748853038818 3.5017498222619183
Al 10.4307068242032 8.159850787702252 8.181188816602473
Al 10.37888121511602 8.013909294776022 5.570627165445344
