38
Energy = -119.92152036 eV
Al 2.8934194647867444 8.826967952021738 7.504661116868017
Al 6.061935402175128 6.413364841445229 10.993295990886198
Al 4.427461272326996 7.627188797065158 9.351120304276085
Al 5.654928586133604 9.454344930159222 7.7803976683285105
Al 7.793247088278031 11.149637875690157 8.428234666398835
Al 7.418801447829852 8.142487385820168 9.543834034440854
Al 9.959031714289358 9.52239354375754 8.917760421951712
Al 4.2897919506722655 10.089907686799915 5.430983267526719
Al 6.9476855335100165 10.637220537106726 5.643672543706689
Al 6.493940402225538 3.78660825590784 11.418503460758542
Al 9.611093797975094 10.905094908691852 6.355673971396958
Al 8.244040437514785 5.307459169899969 9.889904745177304
Al 9.65716275969157 6.811101042813959 8.29350155309683
Al 3.2135269318557595 5.772831218338543 7.695686123981866
Al 4.48862238707481 4.597152539717612 9.665826063720484
Al 1.982848792804006 7.057201498643075 5.6950572862494155
Al 4.7775504921005005 7.363698814725652 6.0312488833946745
Al 6.237825623659112 6.072569352021714 7.995476895101286
Al 8.108293479747724 8.620215346913321 7.033487094635011
Al 7.233897866916125 6.620881060545972 5.558041967955287
Al 10.834274717497696 8.517179402178582 6.501975708270533
Al 4.737284415795295 3.5805293547185357 7.095444385622876
Al 8.392043755835513 4.6654009448580265 7.138560941968893
Al 3.4075191699409597 8.089087934232788 3.7092351045099434
Al 6.178819586682614 8.640002404850176 3.934262671716734
Al 8.883521718359248 8.832886794337899 4.476094128121392
Al 9.891832688600147 6.274412302838468 5.502911107440158
Al 3.5211089547804377 4.968972336410055 5.003424618831011
Al 6.134908502379919 4.311430494624488 4.952636378915556
Al 6.790107176505505 3.2387221584883212 8.799949460734258
Al 4.653520944017391 1.8335739279218648 4.893197477238996
Al 5.254248926787314 6.23814478907335 3.2031034128100337
Al 8.087995841711907 6.7609012896835905 3.071382035831027
Al 8.819069693176063 4.072610541743197 4.521021229628985
Al 7.197340791617406 2.2802694050103423 6.335282700516579
Al 7.126239577749129 4.413169316880092 2.371173753351352
Al 4.57587867031797 3.5106355162394003 2.73285703621406
Al 7.038591215469104 2.0131561066162793 3.5505315672171385
