37
Energy = -115.79089454 eV
Al 10.653479898320828 7.444649851879094 7.117929380936175
Al 8.890242514076665 5.3880613149695336 8.30504357004515
Al 9.857524142993146 4.746172936372024 5.945163991125464
Al 8.349872505226944 7.937212707675447 8.751569830682447
Al 7.696999103205878 6.10689912771188 10.71088989891835
Al 8.880140052497342 2.5409684241036365 7.483642711357833
Al 10.468164862720327 6.701766189803505 4.011904559848425
Al 7.012879683484918 3.579011160832261 9.091667131044995
Al 9.568454834755208 9.363327329166882 4.218959582873493
Al 8.49941569362397 9.731990558377042 6.727027844730108
Al 8.339825435414578 2.4670081401364072 4.822762753721589
Al 8.401370364532537 7.0771592666580725 5.749512728771022
Al 6.448069323579099 9.81761382229994 9.186838535888603
Al 6.1876028371056275 6.200711848137243 8.499644301578705
Al 5.100580709793378 7.7561554350845405 10.576145654667451
Al 6.146046429594995 2.0555004892084927 6.606207381204468
Al 7.075057106035021 4.654064221327442 6.409054509066256
Al 5.129884652410201 4.898482928695707 10.645457706656252
Al 6.099130452720176 6.591660081688043 4.593415102472208
Al 8.207027774160471 4.982576757298817 3.783168493378412
Al 7.932444354890853 7.483862733973336 2.863012144245762
Al 5.7633783441918185 10.774287400843457 6.6816916924353515
Al 4.66687559967323 4.007209254196038 7.78994821405443
Al 5.886967998063632 3.679581750513224 4.1969854692654724
Al 6.82056095505124 9.511788631650376 4.3709828891567994
Al 3.985192663783986 8.729859347834818 8.090924822871488
Al 4.477457555929038 6.348624492831939 6.463088967980741
Al 6.341888129256369 8.184251765574572 6.846171409978341
Al 3.393278433281594 6.152704641341231 8.897389427771408
Al 3.7051475732805113 2.7820918027929564 5.490565919184491
Al 5.887212900116634 5.523477553933317 2.1316445014509204
Al 5.034152103253581 8.197467620784053 2.6623612543867496
Al 4.294542269903867 8.845796284573906 5.270541963464309
Al 2.3321329514485525 4.885865267585396 6.535680188522108
Al 2.0473692189738735 7.677585262078382 6.473665090803539
Al 3.7244520376072754 5.303456804849953 4.026619299482464
Al 2.458688256649324 7.616361656488891 3.6732598287861844
