33
Energy = -101.71385022 eV
Al 8.123024059295771 9.06593881968383 8.922347279426159
Al 9.018555572450184 9.831841239173839 6.157507992992547
Al 8.954635809075198 7.102185040340689 6.913565097157037
Al 10.729250753162939 8.83145052089584 8.242488907329392
Al 8.181110419915251 3.263622802038559 5.073255050511002
Al 9.976419536222943 5.514878617514054 4.944034198943456
Al 6.795403088161202 3.1702500001177905 7.557654782345762
Al 9.379199514503597 6.692319932730134 9.626097254889686
Al 6.79513857330975 6.1894900331002605 8.261820732026514
Al 8.093359816973049 4.327125749773166 9.816075813983671
Al 5.497150727337667 4.326726222919625 9.815857449934862
Al 6.795047598460968 7.243846375062958 10.772332410357802
Al 10.856740434203228 8.082531472108872 5.308216614986106
Al 9.264687658112301 4.359386640547464 7.375921197881142
Al 8.097634603140591 5.22251357953042 3.1283300192362242
Al 11.276577588962232 6.178095390552106 7.503697310486445
Al 6.795292510235622 5.653011322183257 5.57073063756521
Al 5.409964176818048 3.263613727579368 5.072830859587531
Al 4.211124529615544 6.691836992534133 9.625769050633666
Al 5.467031748564153 9.065689103596197 8.922319714500793
Al 6.795161357477115 8.353511845874195 6.3962359345228865
Al 4.635738836571905 7.101967724880675 6.913246012991419
Al 5.2754156579979234 7.815046423221876 4.034309069386394
Al 6.79497664891971 10.947805970407742 7.2607366576426955
Al 8.315076010823919 7.814968180348908 4.03444682485968
Al 6.795212154701316 10.113991527729233 4.334787279302471
Al 5.493149131766657 5.2228306944691 3.1280053376129042
Al 4.571633256699666 9.83162892143029 6.157350598867555
Al 2.7336269108448477 8.082167479315006 5.307833344320715
Al 2.8609195030903933 8.830977404282129 8.242083982667259
Al 3.614262058487189 5.514551739817699 4.943692554904089
Al 2.3138994714216294 6.177570614644965 7.503371934662481
Al 4.326085766055848 4.359133426442167 7.375553654064521
