31
Energy = -94.04763145 eV
Al 2.4246185289512447 2.070683640631696 3.515823819088542
Al 2.9283055731357908 4.487027649479174 2.4508363034789977
Al 7.756813270993677 4.944978847117157 7.200969799829897
Al 7.289306025926863 7.0796110518531234 3.8013613062307017
Al 9.532136861843899 9.101758295845718 8.614281191757643
Al 7.747949173964246 5.555709041956432 9.782789886527087
Al 4.8930070270472745 8.250813089933551 4.622459252635049
Al 7.023311196439143 8.285965723025141 9.461343217215433
Al 5.712508431488228 4.036048469455301 9.023390683925987
Al 5.487442195642454 6.562612140161032 8.223354030350142
Al 7.607740366020527 7.57825651586718 6.720151869553628
Al 2.9676102351853273 6.332638709739701 4.5470955969591484
Al 5.359301841336868 6.25636325223645 10.947206014911036
Al 5.076687748252393 5.893768247083549 2.9078307534066314
Al 5.33101242143853 9.196826569744365 7.471589053559804
Al 5.58973773901408 5.860220950511332 5.654962419659334
Al 7.137556562976098 9.574095812939431 4.911515919293837
Al 4.497554299708085 3.6520576356322683 4.422524497362251
Al 7.636459555277397 10.356743575855058 7.367968593941843
Al 9.340528802639547 7.5084039836109016 10.732786330772505
Al 9.510490181393717 8.235353922539453 4.731727305758092
Al 11.866172153604237 6.854693546337265 4.339239430771153
Al 1.2549387617456822 5.989167140434537 6.754213067176324
Al 7.66999490601927 4.4151630440502405 4.504680891138049
Al 9.903635710253237 5.591184261645851 5.778169165688308
Al 9.752620727048951 6.452943411740297 8.184901553008876
Al 3.6164869849308374 4.693515832046062 7.161758467284353
Al 5.916892515060542 3.209721487792072 6.488824074541112
Al 9.596799593112173 5.813087997382808 3.1660968620348484
Al 3.3400977189210757 7.543401398918074 6.907625367621775
Al 1.648281754309755 4.025228333712864 5.1156376854910475
