42
Energy = -133.07387957 eV
Al 6.7798209180029465 1.8536469186701963 8.089479443689772
Al 9.248112664485928 2.866297982305317 7.996303656647396
Al 11.840763771449286 3.943916748127241 7.80071961991901
Al 4.658454475303772 3.3339834413504468 8.766023775334379
Al 2.558754568059505 2.990487495269235 7.072872748303583
Al 7.498301715090579 3.7820830194661967 6.120900208015072
Al 7.207143983092168 4.594527610851215 8.84919794794999
Al 10.1296944178841 4.298822881369063 5.779842165396159
Al 9.921586790880111 5.269224575645511 9.097565088319758
Al 4.889278051523815 5.86852591666064 9.713343121332986
Al 5.034139650953908 2.6738397828823635 6.084122170536835
Al 8.69946462844178 4.3178542601987315 3.5708809747833494
Al 6.0695222344525295 3.5900615236787856 3.8706616280597195
Al 2.9311820487004576 5.50029827483627 8.005767003377914
Al 6.7637152955645945 4.959905936477862 1.5876397469949275
Al 5.482652342877104 5.49760434254086 6.841545168131773
Al 11.069587233869361 6.652573304380658 6.9307049433261785
Al 8.498531660414937 6.501587866036616 10.894995123674732
Al 0.7554889900309336 4.90755486208075 6.499296391698461
Al 8.278896200931063 6.233542548434934 6.911955934955252
Al 6.801568676094417 7.4351326364786985 8.889053226982936
Al 3.300737386913544 4.808187891881791 5.184979506156728
Al 9.548199688341588 7.989345639112829 8.78270035419787
Al 7.942023255980559 9.105477754832728 10.792321941193734
Al 4.470239239585187 5.560647209045122 2.941663005540584
Al 6.869440947184514 6.191088161560929 4.442245150373436
Al 9.674740088434035 6.783389210284791 4.522199517331779
Al 4.24552961223161 7.896165847981857 7.856214535528372
Al 1.8543079386655625 7.306732273473516 6.2710322883074525
Al 5.48460065802388 9.664291308746467 9.963566532799469
Al 6.470087269372981 8.21456147489136 6.331820325348085
Al 8.534439946467344 7.024252663075556 2.0859821266179077
Al 4.344826833522601 7.294412911962769 5.018979988165985
Al 9.186089674206416 8.82388250729061 6.281319562507917
Al 7.67124630201556 10.035146437769521 8.220024255789415
Al 5.7765988521755975 7.802695980623092 2.4346271778891566
Al 7.847407737613081 8.842200039252848 3.950940906338228
Al 5.036629308572423 10.548020616215203 7.541626731406138
Al 3.045158082890691 9.609994317819028 5.891415689758423
Al 5.154186631225723 9.737473525394202 4.1122603174142665
Al 7.111281737646199 10.776684743903528 5.6902413957612925
Al 4.381457881495662 11.979766947809553 5.37685799481281
