45
Energy = -142.80700065 eV
Al 10.749726660129442 6.809525759977347 5.433216633855615
Al 11.715271280133985 4.5617326040427315 6.740390900010492
Al 10.147346515496858 3.1312314580533083 8.408535014736804
Al 9.671159426888975 9.086355849540999 4.405994250358595
Al 10.865963554527962 6.568459128978153 8.195410534367696
Al 9.54292908102715 8.622227646445843 7.052397137269952
Al 9.154895994873911 2.3585697982565983 5.911726126583136
Al 8.666118293023713 11.020097292552677 6.364689033683742
Al 10.506061137939994 4.21854010831884 4.389674012544469
Al 9.414094831447118 8.053730574939808 9.752097997956223
Al 7.830650406100014 9.98610088261712 8.750984188130202
Al 9.334828904727882 6.337000460810513 3.0930149835579477
Al 7.30126123288487 10.567388700668722 4.247325960545851
Al 8.806907488091454 5.263396043291718 9.55665382110772
Al 7.789176107233145 7.114386134547754 5.256911097642008
Al 8.85360661570423 5.019357554081366 6.746852794356139
Al 7.497994903146725 2.910495593209371 8.177644507749324
Al 7.083119529932066 7.180680674785659 10.682477735206234
Al 7.43093259272193 7.101463323013672 7.951760668393083
Al 7.759198506860519 8.477030953453871 2.5561944482258117
Al 6.450875015031069 9.234555758388428 6.473635138166031
Al 7.781599544083418 4.273760092596617 4.336284429316797
Al 6.553075709147977 6.108920111326551 2.947118530519117
Al 5.7801531533193735 10.7291106696279 2.1305278623710002
Al 4.477749758377886 9.985351793437713 4.513466475805319
Al 5.9005423473679 4.856233214534303 6.530747727340569
Al 6.395635850090404 2.302790200442416 5.685090241791063
Al 6.120017515889918 4.9744820571953 9.328189357455473
Al 5.079667927298277 7.20059810072844 5.173995976778324
Al 5.459892336073152 8.845361430658414 9.037420251638073
Al 4.864963875140214 2.584598454684007 8.371309779559073
Al 5.060825330259558 4.069656383416246 3.980465521528121
Al 3.7089652523731074 6.085158940321608 2.904774106100361
Al 5.024496468121022 8.249192252257487 2.484942619439966
Al 4.253861657566605 6.448461658065825 7.904603293442175
Al 3.6696479192463065 9.137811532611599 6.8726395096724175
Al 4.443052825151358 6.747984261144451 10.728788735925065
Al 3.0387720643378753 5.324444077300792 5.384099258651265
Al 3.631870636000055 4.261292591596261 10.141201758675836
Al 3.7557756064009484 2.8012657488496098 5.928064059146034
Al 2.41486230766557 8.020274057917966 4.489203826430502
Al 2.8053911956422555 8.490071595147963 9.279526222333974
Al 2.327054579202587 4.218932021078873 7.690814301280884
Al 1.6863129210630459 7.082668773425536 6.97964025818033
Al 1.7084143096442825 6.093972849044945 9.54421807955666
