44
Energy = -139.29565267 eV
Al 11.648272619277439 6.129486933921633 5.638998861234137
Al 11.053790977046521 4.580474737438854 3.4689407715087284
Al 9.907256697739989 7.099382693349113 3.6068558512089606
Al 11.087938873121013 3.51602837046849 6.06673021939876
Al 9.598793270308132 7.772289950353937 6.3502611112128236
Al 10.044562621512284 5.418542411293928 7.8334236911454775
Al 8.618722530066814 9.343378600235493 4.34560303353969
Al 8.564923779505593 4.927774118721171 2.4954657542673355
Al 8.983870230433409 5.181282581617713 5.309654673155078
Al 7.18059548353912 7.292776674529882 2.685049749420464
Al 9.138383409947917 2.6809650476129265 4.263564362207056
Al 7.763161996095659 7.257255236913754 8.179507282888704
Al 8.708633857372948 3.090369041624587 7.168001368895957
Al 7.019428954903987 7.294192841345991 5.453914177302685
Al 6.049203023401468 9.589288468954985 3.9518107933581756
Al 7.8885759782813984 4.79853913672973 9.360472061545835
Al 6.904461302098504 9.602621772969288 6.812267049986084
Al 6.831750542160845 2.902114531272002 2.645003772812642
Al 6.39091127369466 5.0476059485898475 4.29850894177507
Al 5.226240278830373 5.133669775037995 1.8706827970192181
Al 6.609291571291587 4.973247038807637 6.959158539806062
Al 6.758823396784316 2.452627671467903 5.464546996556782
Al 4.607884265979059 7.2975221416868585 3.5339361038325574
Al 6.324760588908545 2.7294409415772103 8.450632408003406
Al 6.2454178143235 9.097142884161753 9.530887668177032
Al 6.584306157268911 6.797495688467205 10.664445707564367
Al 4.529024843868049 8.362256255518341 6.118593499435706
Al 4.762492400025391 11.019479236748849 5.901762601223841
Al 2.9564549394189137 5.239783236930303 3.428958927144961
Al 4.565478446216044 3.067244402503944 3.9885474148807276
Al 4.197482890968393 5.7432307042521975 5.899528923032014
Al 4.4188290221854505 1.8289563298985247 6.612135354265145
Al 3.307467737850155 9.699322240184976 3.797427623081143
Al 5.013168537805705 6.67111757577339 8.404464380606024
Al 4.076864464370584 10.026793078326518 8.371992992884046
Al 5.244217499289485 4.451532162430667 10.466029127913869
Al 4.015682105526555 4.111401017586837 8.045538666579215
Al 2.058590050284755 7.3574676096986025 5.189672488004815
Al 3.7575824274464042 8.134553137618747 10.415858569363483
Al 2.2569709468886927 9.906177983533087 6.2410383853742974
Al 2.4988908629067113 3.5298516525225785 5.791396848422718
Al 1.5480836133708697 5.415738892375415 7.303193283959508
Al 2.729315997173084 5.735782980616398 9.801679057758417
Al 2.4575219107996853 7.822881799359799 7.94433433402999
