48
Energy = -152.87590953 eV
Al 9.55569607998101 4.762651929097563 6.74725102199945
Al 10.492194624854287 6.7910562726054335 5.194897714993242
Al 9.992195073898355 7.056574371272267 7.964104973129858
Al 9.256108991331882 2.4190542619622035 5.421845536929308
Al 8.839807386210003 2.374941642034893 8.071398112657743
Al 10.609524968543553 4.351616236971581 4.110902376553907
Al 9.561379521590446 9.47432233006741 9.05134889966959
Al 9.327669532638462 4.7824988861127675 9.470964938976117
Al 9.696292717825976 9.12943777481527 6.215880385586684
Al 8.535658763942681 7.399665313910607 10.244170644402626
Al 9.149431606201512 6.020218486506179 2.506236626923618
Al 7.883715599410483 6.957481160416546 5.968041999775394
Al 6.756379646997572 3.562555748737153 6.560903400776529
Al 8.793657044019103 8.424898069765808 3.653239027114216
Al 6.301577256699019 1.1445215837647773 7.718490275578326
Al 6.951411590619404 2.1693739274447887 3.981319026258711
Al 8.012500303097289 11.150426982521317 7.692505747260265
Al 7.957891468571093 4.729293290972353 4.5060870022884325
Al 6.64808343268648 3.2113163792368224 9.427271802181796
Al 7.17384611387201 8.451134046957698 7.967279511152837
Al 7.145021737349855 5.229760664196973 11.110307182339216
Al 7.042214403932241 4.233118138970905 2.0140781150239286
Al 6.961577420825613 5.808883263107004 8.287257837970229
Al 6.864026403270222 10.102139406384016 10.06465704195781
Al 5.8165651972052785 7.537702654179833 10.409681721822754
Al 4.158925774453016 7.35865659457694 8.17538777593138
Al 6.293634348466465 6.723014308416218 3.8200653137513068
Al 7.061447029322834 7.373175651419061 1.2831268195988095
Al 6.452456891973649 9.554426852011137 2.88095654301862
Al 5.149520827548202 4.096143827530406 4.0681169962157595
Al 4.713948788924248 1.8519658610145826 5.606961777525951
Al 4.640337422128586 5.1223170263706645 9.847577176162776
Al 7.195003308580503 9.710954035985047 5.4695147258569365
Al 4.288692333436578 3.083527275366069 8.02259971903812
Al 4.746574189114195 5.612422848264822 1.722080362211809
Al 4.817514266019793 5.462433892328368 6.4845223417143645
Al 4.027064122607326 9.627197140296724 9.68500838502283
Al 4.910530283377587 8.023393175792084 5.6709183860535175
Al 3.0623823629162175 7.208781896961609 10.64521190366492
Al 2.7560361464924616 3.973440387448093 5.615684194509998
Al 4.230607134116051 8.176974135649532 2.3583924115871384
Al 3.2862405261775995 6.05950657880715 3.9266001461775204
Al 4.610138452311166 10.562503763230866 4.738893328063257
Al 2.511279331993019 5.059703246324024 8.183305265216227
Al 5.408254850759247 10.52775971909136 7.3933222935142915
Al 2.9105492162097972 9.535103351374113 6.917293030003018
Al 2.2335906235886966 6.788949902657012 6.207346764828576
Al 2.533031258038579 8.697541477175596 4.356460891793793
