47
Energy = -149.86715205 eV
Al 3.430215947370821 10.72558707409134 4.737967998582417
Al 3.985413228704334 6.692229059904838 2.879706841314315
Al 2.220328772635408 8.079912663092395 4.615695387987212
Al 3.4140091901469556 9.423259899950207 2.3712556500767996
Al 3.257439475975468 9.246483539345503 6.93964021965761
Al 5.522614478175697 10.692026491252225 6.415436944635144
Al 3.3360602071255436 5.6825963658310865 5.251318590837934
Al 5.867890394791809 8.481729782611449 1.9639879227118382
Al 4.916946899231852 8.40771236552931 4.784892929582395
Al 1.778317004023633 6.938401548014379 7.139013934705675
Al 5.004523017592548 4.318158980147721 3.608197819764618
Al 5.995326948832938 10.650079042433688 3.6136448388430393
Al 2.9435452609585484 8.346763183990609 9.410445730803676
Al 2.465661344755029 4.312426990308162 7.373063392916241
Al 4.445433403199748 6.6270673463918035 7.593311526327413
Al 7.642891542017018 8.461767995392606 3.9573296847948702
Al 6.89328126299311 6.113001351212743 2.6343489757636718
Al 5.338646741647899 9.274138722975845 8.750078047579601
Al 6.205928892993356 6.149551718316553 5.306703364557812
Al 8.103325827247064 10.750496028724045 5.460414867095605
Al 5.053289031764302 3.860680383519471 6.438307509560692
Al 2.3602724896919804 5.771679869599584 9.667714324178792
Al 7.627619468543345 10.541848358282909 8.185922003618478
Al 4.532068689839558 4.2017699560662605 9.221579492278329
Al 5.118333488845924 6.807949347690622 10.242779896411692
Al 7.044898088167544 8.333273645757629 6.640858086878255
Al 6.566311761177873 2.334552815786503 4.433482009753868
Al 9.883222869073867 9.055602395743092 8.556997780804483
Al 7.553276589409709 7.828648466710348 9.310296397375927
Al 9.805699866590574 8.664249463399205 5.6504870982712765
Al 8.987038602900407 6.2603480665235764 4.480309433498905
Al 6.754835889287668 5.3942909741696745 8.2144700389805
Al 8.337874715792497 3.913462826784117 3.209978180160987
Al 6.734843315902436 1.7464264882414557 6.973063341184497
Al 7.396331761896633 6.433130133291646 11.70757298599641
Al 7.896788771629741 4.179268563790903 6.036749290333678
Al 9.020681771575603 6.598001418282134 7.335455930938045
Al 6.776241176750631 3.9357340278985395 10.705348569483952
Al 9.739329035512682 7.65309040594537 10.884920427667677
Al 12.073365699628594 8.462761248821955 7.161149831178522
Al 9.436477235825729 1.9957051570293616 6.460721042049807
Al 11.367808398176956 6.175380447801104 5.9903736725615895
Al 10.434336560720489 3.9305551663264446 4.814988929009586
Al 8.275122940604586 2.9099517205879715 8.78231363821226
Al 9.012237948213306 5.274080983859859 9.804271528529707
Al 10.42601185017841 4.188146484215317 7.702143595975205
Al 11.29551708815938 6.461620750761963 8.860142358983358
