42
Energy = -133.48803122 eV
Al 7.4255322445366145 8.842340614549864 2.2394470331278566
Al 9.924125059288304 7.8187720424685 3.1669344023826507
Al 10.175958773486194 2.3848930839549998 4.267647043345933
Al 11.933968673553357 6.525582754007926 4.9115348509911305
Al 5.165132317988494 7.301595194866579 2.713282065231223
Al 10.013416997800498 5.066515232466094 3.581129170664791
Al 7.592750774810708 6.315987849133051 3.370406494412722
Al 5.355662927171104 4.824590663678064 3.8750379380661037
Al 3.075753293330783 8.912974004726122 3.4045211274890175
Al 5.609796277909842 9.73470749163728 4.122016657090074
Al 8.145009963806471 8.974654896392321 4.911531831473583
Al 8.462159691732667 2.5343596793667036 6.300571919132354
Al 10.729082019808871 8.733064980026308 5.6488859881480975
Al 3.371556386812172 6.460249109226022 4.6184967326781035
Al 10.73359923255897 4.315717096296725 6.072438558197377
Al 7.752615118639433 3.6748977315196965 3.986408508091023
Al 11.04524220201368 6.628973058069453 7.53508577733165
Al 8.920007424694052 6.480454230841339 5.7748159578052185
Al 6.019497674397633 7.227893121281181 5.384265618633095
Al 5.712989527983906 2.4651725023367486 5.299016079933299
Al 1.2294783034777885 8.113111496482258 5.264018645437736
Al 8.867295553153586 4.7586993385405805 7.946643676952768
Al 3.858171735152961 8.9135709080634 6.026657178911452
Al 6.383527513535048 9.716936777438194 6.770953160520693
Al 4.280925223790103 6.315129796071301 7.257060652944447
Al 3.6142542914179154 3.958336274480372 6.016101467604592
Al 6.543403235720287 4.743119241551936 6.518582285489081
Al 9.17173426604165 6.9999555519119525 9.460283492340734
Al 6.980631469134984 2.644161230717176 8.411258400849295
Al 1.545038619317715 5.680763471944664 6.477367476459686
Al 6.821560569630424 6.9967381016532615 8.058488601116558
Al 8.947795374161622 8.940631693806205 7.521188788984895
Al 4.608170189320363 8.731840460131913 8.582243620104105
Al 7.151979736675632 4.784960880026297 9.954476283715946
Al 2.0553271951759484 8.041030151818921 7.85566093403136
Al 2.334534125850931 5.305564446897551 9.087064681127544
Al 4.634621510985181 3.8346306966511867 8.567834856755425
Al 7.107117006083959 9.486169013315669 9.390191693247457
Al 7.146863407111293 7.194296077952151 11.053509895881731
Al 2.693533929190258 7.7252719222236825 10.435175512969188
Al 4.8863478606533315 6.2103399461742095 9.934058327779
Al 5.022476915076901 8.729991798284466 11.276351225533498
