43
Energy = -134.71389707 eV
Al 2.0750517251973575 6.888818611682327 4.652546209947431
Al 3.57839897532868 8.758976916389484 5.977911232752838
Al 3.483336208115004 9.401106677007938 3.0784232301359733
Al 3.177880945672449 6.903668026393243 8.31288560612667
Al 5.65349185710108 10.471693069848417 6.903193979646631
Al 3.098564468158721 6.792122334094752 2.034460872093878
Al 4.355335057630199 5.767519865884953 6.115338230103069
Al 4.734269519181736 9.06834584819884 8.93229220990279
Al 1.9645396203451433 4.769509785751769 6.484228844862034
Al 3.478892658210781 4.665483785544192 3.778768323582866
Al 1.9051453667334313 4.795529163082508 9.293241526177233
Al 5.999425774510964 7.72160638532131 6.6373618140588215
Al 4.178839336214183 5.057073209954294 10.763617340493115
Al 5.852761316334703 9.861133397805832 4.320715079768458
Al 4.852362606986277 7.226355372951392 4.054576093204862
Al 7.600152424723486 8.767297781932918 8.727527516254101
Al 2.1554239681780674 2.407597454544625 7.888602972429824
Al 5.958011276274458 8.494943955924377 1.9169781042060117
Al 5.819467455533049 6.643424053992449 9.346069609773462
Al 5.560206333059101 5.487370636231489 2.0279570483880374
Al 8.027044207558657 9.523622591984768 6.068865078323015
Al 3.9743668697492165 2.908901905516829 5.700645234663746
Al 6.664437334155029 4.9295023499450545 7.099959376191846
Al 8.378309095931883 6.7943611531605 6.256874293199854
Al 4.335403658939932 4.117195033039207 8.217354114260564
Al 8.31218580672132 9.554095665983377 3.2671357968669503
Al 7.6686377854916445 6.653641278048009 0.8483553530881118
Al 10.103331988875484 8.298086285412793 7.623126869259135
Al 4.6327812649155 1.3513044642216228 7.747207165942569
Al 7.467261706887598 7.0469685079374385 3.7901101877738625
Al 6.0680674501340395 4.290300825448016 4.426871078556097
Al 8.469687957904496 6.084725813295224 8.927983607753536
Al 6.729326565228826 2.167390552348933 6.177727702108547
Al 4.790201112703431 2.3772455235479537 10.2974241072348
Al 8.754042310561756 3.362881821283817 7.999280437467906
Al 6.738884561180596 4.200001813330847 9.784451815564296
Al 10.264409476507996 8.58513480382551 4.928856124895753
Al 9.724907962896198 7.429827829078929 2.3478332397377666
Al 7.033038633255119 1.6015640436899596 8.927434353971302
Al 10.502981209530734 5.428766528036224 7.088188117014919
Al 8.55263473222754 3.8932734879912174 5.271073219543137
Al 8.23682359475165 4.691221816278134 2.6763058871456598
Al 10.197950764614093 5.880615502248898 4.4128848418582
