45
Energy = -142.45076483 eV
Al 6.477329147108312 3.8790571258629423 3.643189387940876
Al 9.717311731469406 2.761815105485686 7.164800384307734
Al 5.330200266257693 1.4960355370753502 4.114061145804609
Al 5.1864605920660845 3.5433439232254313 6.315845812348802
Al 9.105244728567694 4.098982065929207 4.7152243393917725
Al 11.21327981415555 4.921799300865981 6.206434026635236
Al 7.286334311631168 3.5181017750414916 8.114883653965052
Al 11.006128380776367 7.4943890255939065 7.6165446355932875
Al 5.1404607451027955 6.140230722891161 4.450232645105474
Al 12.17542572483315 7.027854668255426 5.045445490524003
Al 7.127468603645253 5.519185675404097 6.21277350647965
Al 9.403595542977229 6.821315135672743 5.395531333882213
Al 2.474072902413291 4.288594949959761 6.126265125644243
Al 9.300411846818738 5.342863821222509 8.037048111296343
Al 7.074897342610187 5.916533554332754 9.461618699630977
Al 5.004786658067704 4.156152088837451 9.333496066883255
Al 3.2366047747896642 2.6287465548818063 8.205914523640997
Al 3.9988333152685835 8.354616119457205 3.125293258941111
Al 9.454929370121862 7.293397509180741 9.918324998230323
Al 4.407755354380211 6.157160352958125 7.261275620755491
Al 7.455272297738233 2.206326717116071 5.698770335827817
Al 3.2041546733890445 1.7721873222119167 5.7104613843468925
Al 8.194072785373526 9.660179155430907 9.716171037219846
Al 10.706685385231223 5.6841882573866185 3.2388890016902065
Al 8.194103170770273 7.86262293924321 7.569823192513684
Al 5.977370422430743 8.077326043063064 6.193352014830437
Al 10.825642740506426 9.246814471470135 5.349091589962726
Al 3.7669804438204215 3.8167066738587114 3.789266359262571
Al 3.775158087103019 9.199281417292347 10.383036622142138
Al 2.5190641289075018 6.253555408329169 3.9261465993754503
Al 4.211626542659654 6.501148036467375 10.208336205763375
Al 5.902107631590239 8.225295451477361 8.957389141933174
Al 9.652361557332261 10.19147201740376 7.54010282247351
Al 9.399964930678845 8.297518694609604 3.075894879781513
Al 2.3302353256157047 5.190845003558416 8.750591866815274
Al 7.8417126614298995 6.061888361075923 3.290202224054729
Al 5.79873485220451 10.847271476210178 9.766675308533335
Al 2.533873665262377 7.968585280865511 8.420057700236335
Al 1.4609716869471199 6.641608883342141 6.4341417298648
Al 6.635094969095528 8.462757561022716 3.35283616583923
Al 3.3168444405483 8.374892881793967 5.657685435726934
Al 8.140835218471357 9.491261497216746 5.26536088401339
Al 5.27895011340014 10.39161540828107 4.939210020259084
Al 6.97732166810731 10.758895138485842 7.32412308665011
Al 4.33359937333458 10.009850815662274 7.532451548890493
