41
Energy = -128.19937957 eV
Al 5.869052650659539 8.099074239093603 10.639280967605186
Al 4.024684836797825 6.929081617485158 8.94796590365756
Al 3.251946931546027 4.048294167616337 9.44111312136699
Al 5.50234435126453 5.143787569517729 10.316501479037692
Al 5.354231329241608 9.041308011318952 7.968887984876435
Al 2.5696805672513543 8.716538161321896 7.423914819539012
Al 2.3466290529284817 5.489152679564925 7.4729365391636975
Al 7.960291913632098 9.912673532782655 7.767645929327288
Al 8.756308476257635 8.371412458476417 9.827093649221176
Al 7.814101545095686 6.180901289409204 11.02194390361798
Al 4.380504065951048 7.195025548027722 5.9968627848721585
Al 5.468922490843065 2.566013787607117 9.050919640889198
Al 6.932094324108343 6.815790780982038 8.375533879339878
Al 5.309630859096239 4.900981669292673 7.365482690242514
Al 4.740033751739446 9.975498674967039 5.500069232729467
Al 1.6459200126549138 6.956742988461976 5.447283204866181
Al 7.665084381713427 4.074621749773211 9.187885430048642
Al 2.6036161269370264 9.123337240679927 4.252173745503897
Al 3.630995614658441 2.7689982495059886 6.9721866297923425
Al 6.980859747613176 7.984474881063708 5.770832354178902
Al 9.637756955072485 5.836686898488819 9.023581706054792
Al 9.603018721969747 7.817122245446823 7.266337039020357
Al 6.8391354887531035 10.542839233298759 3.9800902447857425
Al 9.059513413451317 9.71204663036659 5.2992683064868595
Al 5.038633056951972 8.711626641698277 3.089563820827422
Al 3.3797582821182814 6.665979578038473 3.2626130196681826
Al 3.3718645872233197 4.780335392479089 5.148037307277132
Al 7.111391412365366 2.7870760538770893 6.876379544644767
Al 8.097589599883928 5.367343078218355 6.392079701348898
Al 7.64466109389737 8.174525455902158 3.059397932780246
Al 10.819701682670546 5.510807750661425 6.57719095017927
Al 6.1080246095621975 5.736438651509285 4.414312277143874
Al 9.796820391187236 3.298307312339709 7.723926975621268
Al 9.588134690317567 7.139437097166282 4.678914680981578
Al 5.824306082162669 6.4483856815863465 1.7849207708135826
Al 5.208940002829711 2.9310423444134868 4.787667171503166
Al 4.178923590128611 4.2438801226150655 2.5997767836478216
Al 7.930313023744991 3.5111810560842716 4.329818599994572
Al 8.530592804397886 5.711819452106809 2.522683813782278
Al 10.319447594786737 4.5745467313390975 4.166119810174924
Al 6.735675883708369 3.8490902689209014 1.8769912586296484
