48
Energy = -151.97479465 eV
Al 8.466437843746373 10.337777767136117 3.773211971940447
Al 8.750748232899996 8.072714150464 2.174214757793111
Al 10.05633132379227 5.904112202800763 2.961939012169457
Al 9.853898855076086 8.36688540149645 5.010301591636731
Al 7.298348348918642 10.15484628331047 1.3012044950459527
Al 9.16414214721635 9.908015496486664 7.445991042063126
Al 10.79027929797185 7.656795231163922 7.6097821175856755
Al 6.806211507097159 9.90535052431251 5.858865677263474
Al 10.09095037438078 5.692106217271286 5.665325760091085
Al 5.701745541726985 11.00019167867966 3.3469049484327913
Al 5.977549095470152 7.88297144463426 0.6349491207721926
Al 6.273101160120171 8.313667803760403 3.3764946331964185
Al 7.280903954464293 5.7663827831039836 1.8346698548958429
Al 8.696626912611572 7.538078202510877 9.505934994080782
Al 7.8455510361274134 6.526587237930803 4.3927423672155825
Al 6.721416093843213 9.249490793022483 8.506608434382361
Al 8.115989362516162 7.405179945577061 6.876712263096217
Al 3.831704470061406 8.822125181042427 2.4156295294340313
Al 9.369993883481651 5.191593545647603 8.183516053540933
Al 4.410533121588125 10.362207666743707 7.636036031729847
Al 8.458784315040573 3.923015316775402 3.8620107659315397
Al 9.23415761200226 3.0694228697575343 6.2834681702112
Al 5.673425442723257 7.159108130488365 5.85024013583352
Al 6.549676141342787 7.519868253602263 11.083175721643126
Al 7.739617428552138 5.0119475071155 10.286617774561144
Al 5.861997762843085 4.581362051668448 3.899431566662373
Al 4.503396599919422 6.192726648784859 2.0668582992786306
Al 7.0974424927455955 4.832596081957154 6.458471740009866
Al 4.266159462819253 9.451514977978926 5.05941532955022
Al 6.068465047962342 6.55088724160212 8.50329346625564
Al 6.3316825794561655 2.2834315774086797 6.233574900357879
Al 4.355253990053657 8.400784109441501 9.637284057001578
Al 7.849365814591789 2.714828863150484 8.479558123535332
Al 4.26329438164602 4.514194790737714 6.099996134794126
Al 3.1313019241821927 4.399661604099901 3.4649475939260177
Al 3.412402740209513 7.830032066920423 7.143604257882612
Al 6.428033213119297 2.6586310972950855 10.853641451963203
Al 5.086875829105177 5.233904490228887 10.997062005349052
Al 5.380682280810965 3.982651961213373 8.514171056423432
Al 3.3545822843553745 6.891168661655412 4.524421619780594
Al 4.466098739245916 2.2366069568500944 4.301569040517951
Al 1.8049548574239902 5.695728389564566 6.592072530427257
Al 5.438047641534741 1.3138760773689548 8.723446955402768
Al 3.3922062969017572 5.866486668628871 8.962468644290302
Al 3.652927836842348 1.5697283119816314 6.703529003467164
Al 1.8293050264187305 3.0901633056662248 5.4595260973979025
Al 3.750522956116645 2.8283240738905593 10.546406012828614
Al 2.4517490772944184 3.532857617633302 8.176084537988476
