40
Energy = -125.59577349 eV
Al 3.7995777598730056 8.83015670095026 7.958366538178656
Al 8.237861898438116 6.603580018836274 10.606203754374357
Al 5.975882686599012 7.926381897175724 9.51364435731018
Al 1.58268923034829 7.152904640030631 8.467671924401502
Al 3.97761425797388 6.180649874779619 9.097440761179069
Al 7.965773383662368 8.788558835510356 8.088182583037252
Al 1.664346004891822 8.733650251652664 6.116881649491258
Al 6.1813911683279255 5.030442473748977 10.131053024332997
Al 4.064685956657969 8.918856166391636 5.02050377294597
Al 5.880303380017464 7.393044557500684 6.564603709846371
Al 5.9635152738125345 10.089854043999269 6.690583779554375
Al 9.331860187512735 4.279837312412664 8.93454555242909
Al 10.05689656305839 7.091635486421818 8.774326632736129
Al 3.3362194401646432 6.520732835595321 6.281826179263219
Al 4.367335341653302 3.340524469033082 9.156267487994763
Al 7.5093368259293625 5.954050343111722 8.00429449482591
Al 10.65032145556193 9.045314374501515 7.121010235981057
Al 0.6572549224671944 6.248117404866041 6.087699271085606
Al 2.221928520240281 4.429038987957603 7.919340159424875
Al 5.198466099645318 4.8492074012509025 6.95188347109039
Al 11.01991818264735 5.419056529992799 6.903979371923457
Al 11.439402057520955 7.524797812033902 5.007963204568246
Al 8.559393350071467 10.024318789986472 5.678093875051838
Al 8.874708262180437 7.2005857872132175 6.0735436807278065
Al 6.943957894411071 3.1666203027267392 8.070175201209361
Al 2.2157701139676114 6.86837453561654 3.8432557059110986
Al 3.9314860288674005 2.485561761799586 6.489484763555911
Al 1.783226018453094 3.936126069159116 5.293988743754891
Al 6.685411355258583 8.697075974838404 4.317332484026497
Al 4.104209937554488 4.540556890849559 4.217480364519447
Al 4.7628434738006895 6.996761955854041 3.2334405466574596
Al 7.199187877547944 5.824730695544128 4.5340936102711575
Al 8.705591274786308 4.033889791451763 6.276170724442498
Al 9.17940178086594 7.889745430533205 3.466046246341121
Al 10.054315933348363 5.309500390264679 4.310561174293696
Al 6.23296735116903 3.065657649487083 5.246976833000004
Al 7.035439823341245 7.21488580816774 2.03390669141815
Al 8.335095585455193 3.249137113078742 3.7271887467945235
Al 6.104537769148579 4.532613690003139 2.474269825328484
Al 8.801537101992901 5.21155891528132 1.8847561554889738
