40
Energy = -124.99345837 eV
Al 7.749492076206503 3.8280118166060806 1.2048076423714167
Al 8.753109318294362 7.978682737124064 3.027719494683925
Al 6.856100509995795 6.254504734625394 2.0054830723364527
Al 9.264406711753661 5.320362805008057 3.1767304020259632
Al 5.963452356912335 8.596324109232834 3.1551950458015563
Al 7.830703501581431 10.495809611513662 3.7523795387757164
Al 9.884851154243815 6.81825742482523 5.453278059695711
Al 8.182667080091607 2.83551271507865 3.6158269280730213
Al 5.54672232835206 3.8447759477093744 2.6758554889463917
Al 6.953984295388603 5.397506113715504 4.655611579386619
Al 4.368552903388306 6.3320688348037635 3.1580846885160123
Al 5.614459463336241 10.083651920726016 5.319850535604089
Al 9.240567590052006 4.14649248037194 5.681187308008715
Al 3.3143335357052983 8.85092447101744 3.98574652669495
Al 7.6585193820990565 8.249071470413023 5.400672397149918
Al 9.370105657755003 8.546814295493007 7.458978152937819
Al 7.967508488113446 10.732579144883859 6.525897155346066
Al 5.208485747710971 7.2346880720641895 5.571705347366519
Al 6.597889597906664 2.7433070122602317 5.699176051400708
Al 4.350890888528637 4.273199114703498 4.99996044783896
Al 6.210641541682933 1.7223247745468953 8.214874954052119
Al 10.126217434828035 5.569305842117434 7.936735631787252
Al 8.045168354647558 3.608362734370981 7.963737922823331
Al 6.244908238974992 8.570862147737206 7.72177728695383
Al 4.010143345668023 2.066362748643855 6.516043434747484
Al 5.422186617078085 4.511457299452864 7.514326987117714
Al 2.65257855190378 6.503020055647746 5.366257180031287
Al 3.5120497309268806 9.238961964132958 6.732193739401613
Al 5.48030479142691 11.092522964580477 7.850080792097493
Al 8.373162501682383 5.37416518989448 10.070521601458298
Al 6.4037832483760715 10.035122804943542 10.216105915328205
Al 8.122964840617199 7.974017344411846 9.73248614180137
Al 7.561030300492917 6.239849677248878 7.326481390020229
Al 6.204457852315743 3.7454387858525933 10.022106992327066
Al 3.7706190672170603 2.2896235330121164 9.22784449311615
Al 4.069112363370486 9.008153990609085 9.445382187420948
Al 3.772248054787178 6.8183014867806655 7.8704452274356225
Al 2.64973249816615 4.391534724622767 7.1848250742267785
Al 5.825035742745656 6.559424198563076 9.609545259752773
Al 3.6916685603332517 4.935561702925215 9.717049444923155
