44
Energy = -139.03159099 eV
Al 10.546755004801705 7.980355185365285 9.301195167310722
Al 11.998076046296061 7.809919937875265 7.040680113301943
Al 8.349513663003874 9.541562200963178 9.24423887913601
Al 9.873517620541094 9.54542918227233 6.862807928270708
Al 10.336981494294415 5.177329504396094 9.38987315101111
Al 8.130909711841491 6.783073211802807 9.70201865732199
Al 5.968438584446226 8.559513909997522 9.976653030238149
Al 10.579671617020269 7.56389365322849 4.76923264516662
Al 4.610653102293297 9.532556776010862 7.73111367713148
Al 7.223346347525956 10.466192957110595 6.938163573480292
Al 11.53726315054446 5.147123949213191 6.807390881408363
Al 9.394562066889998 6.81085738802025 7.1741580845828254
Al 7.2373500567733675 5.1618263715640476 7.218390248832537
Al 9.377607585006078 5.063785329643194 5.048435666290451
Al 7.903879661929152 3.97493182884173 9.65453255468056
Al 9.44256692283818 3.494086205739152 7.332793465676554
Al 5.648375721019583 5.805113527719732 9.320299733252016
Al 6.902638626987589 7.827421085454744 7.412640646425211
Al 7.5233889311278865 3.1092062285464896 5.424239028371167
Al 8.108722617011862 8.592381904259085 4.996335694781997
Al 6.732913090666153 6.0385954409023705 4.754468976158317
Al 5.668109497996995 3.115463377656788 8.396625029148447
Al 3.2408666886672157 2.2283187730439478 7.417711215921421
Al 5.507504762164927 9.07609768110436 5.22602001755967
Al 8.724311959947055 6.839914022018119 2.8861319396950025
Al 1.9529834363389802 9.266062964064067 8.031478331370112
Al 3.3741279317890998 4.773052496200134 8.323631341730163
Al 4.300480048614175 6.769342616796514 4.273624197477466
Al 7.847636063953037 4.2710386074149165 2.905324647770185
Al 3.471181257528102 7.383669458492147 9.311719320015092
Al 5.584691189890132 1.4355317483270305 6.126014209320577
Al 4.905234390667986 4.186538710467128 5.905039805270865
Al 4.505047764213318 6.77250641752638 6.8386360629068506
Al 6.267635884813478 8.126809279047546 2.7763641129112586
Al 2.1968407032854893 4.407853574777199 5.881975698520106
Al 3.260065697827264 2.0505791769922475 4.665913639846537
Al 3.7344773005430247 9.259606274901092 2.9661262355474487
Al 2.854740995133816 8.77717337141132 5.509985339161632
Al 5.562565750859616 5.458240255032612 2.1909919274560665
Al 1.719757868977535 6.750878156762416 7.092576598796237
Al 5.586227761978175 2.9773137466103754 3.5614111608356187
Al 3.240409173351451 4.437513478954082 3.354892316254129
Al 3.2004296194777835 6.760433292882279 1.819781495849318
Al 1.6488328650209467 6.6331629283054205 4.1787196590126845
