47
Energy = -149.49561702 eV
Al 7.5008614445919 9.845079950699635 5.241253041800327
Al 5.425086271182134 11.189348963256553 6.269221713337137
Al 3.059061090485996 10.360420030746527 5.782852172300347
Al 7.422777205265763 10.879435051898117 7.968809743810916
Al 9.693238312712879 9.705583519774205 7.141546383355132
Al 5.258878397747007 10.25658388039045 3.7200663621825045
Al 9.990001250767994 9.344758150252988 4.466359664485636
Al 2.6372658985870885 8.37954993864621 7.697099512491096
Al 7.628019676268658 8.807567910889379 2.72613630617892
Al 7.270770947552196 8.110228920046676 7.293747164610331
Al 4.790923667360352 8.443458630551092 1.7436149170335373
Al 7.465655818746922 9.075021834410387 9.857671676337521
Al 9.648081061324023 6.925554013313952 3.450862163430078
Al 2.9347847281214934 8.599244821983515 3.661713152735082
Al 7.131181593074104 7.032264947092652 4.833182085326754
Al 4.9492324674965165 8.401584584222446 5.758475506773285
Al 0.9361262020672942 8.715216830676674 5.535892095121596
Al 8.94809224802663 6.985228527397705 0.8821099532811931
Al 2.9364938188182412 6.890667527372465 9.864248270194892
Al 9.642493528456674 7.196776954519914 6.129092001570398
Al 5.032199432851118 9.347850275438082 8.449051162533056
Al 4.557403240151486 6.515438510545082 3.793945575727367
Al 6.53684988100347 6.414284482126127 2.0000753366823014
Al 8.589049986601282 4.633060990803753 2.3092203462008163
Al 9.61276139725175 7.541067267525103 8.91591493744191
Al 5.408636827216555 7.43183709269823 10.745283275273241
Al 4.865577420639622 6.545159425283736 7.698925934000837
Al 6.27635538196743 4.534055182828739 3.9924866096662424
Al 8.411150803915591 7.281853507572732 11.588758312640078
Al 8.896871621716738 4.902397990949708 5.072653317735962
Al 7.187339095736894 6.161493032579812 9.12764235017443
Al 9.325299517935234 5.01255007577152 7.7329316506630486
Al 4.203451202083572 4.4878935391343475 5.692959220523943
Al 2.605095349343 6.591782931434026 5.689297232164358
Al 6.719241803062369 4.590773874786868 6.860509252740693
Al 2.6704187470033576 4.898154386152344 8.002942171911851
Al 9.450016703977182 5.041002235102737 10.416897660278108
Al 4.683920409765581 4.812549971235822 9.996702180030564
Al 8.069611992854947 2.550582880734744 3.9526700988662373
Al 6.805257430082009 5.117226645012444 11.683224083325182
Al 4.636531924250914 2.983444244938536 7.965228490161913
Al 5.574747807971839 2.2598690964937274 5.408822408644863
Al 9.60887901577885 2.602361065842118 9.121563113065818
Al 9.04480018209013 2.6168606438365356 6.513513528147477
Al 7.0483465661511815 3.5133276612408637 9.512584824573377
Al 6.889763722485595 1.6043440562460864 7.769724978076022
Al 7.55777097219709 0.40157801028398066 5.498892127133249
