42
Energy = -132.95749345 eV
Al 2.5642577192827356 7.96013832197854 9.204293114763852
Al 3.686245648698322 8.905015906326796 6.937507191116233
Al 5.258945876115253 8.851224706248143 9.022977803229038
Al 6.438347677909824 7.740868506951053 11.112126929999839
Al 4.403191781396384 6.330084834314216 10.160176390834096
Al 1.574562546357163 7.039439311427376 6.924574651770116
Al 5.808208684029804 10.731504716659343 6.933505766577063
Al 2.4255307252455456 5.1081729078528095 8.757497697922695
Al 8.221555064970385 8.55910335194411 8.967105276896362
Al 6.442717123881662 8.077980176539274 6.708067885438786
Al 8.489286683510537 10.208202062137346 6.799583872945823
Al 10.665235600061092 8.776077094935994 7.459979747785779
Al 4.328210003268101 6.22066870248002 6.929339214719379
Al 2.659186436547368 8.003225386584088 4.66189770914877
Al 6.6757720696989304 6.27292702855285 8.706010123476666
Al 4.66141646003901 9.941755605224554 4.635232152506459
Al 8.722445093145527 6.441316253680449 10.706647629473874
Al 2.1381096819390843 5.244601445828366 5.037805804155761
Al 10.929758950026986 7.392267825157208 9.708010180960358
Al 3.2784632286703963 3.59584145562173 6.63844180564193
Al 5.043815944765455 4.180001774637987 8.668162540412835
Al 9.825455722541816 4.241296341649553 9.798879046466231
Al 5.3694776042068835 7.232553026751634 4.394061780014477
Al 11.91558357261795 5.225582573934542 8.463084528388821
Al 7.314613977511244 9.45406600707226 4.461081633440616
Al 3.8049622143125603 8.716096709323375 2.358566676286903
Al 9.251863010987677 6.1589932431269645 7.855991548757559
Al 7.68200518286555 3.7907886498764967 8.142523638331946
Al 9.002391818646121 7.7040777860119425 5.632533707916511
Al 7.109395177843166 5.4821318676477615 5.938488210632452
Al 5.84000557204253 2.9402918470653745 6.346923411754663
Al 6.462480405935093 8.679934188974704 2.0432790725296717
Al 3.2308605189191413 6.106527196984233 2.8004468448658826
Al 4.869649179679406 4.541499816006979 4.427988772086069
Al 8.022507410423726 6.9139012216036315 3.286739504663495
Al 11.469661593586206 6.502756085341345 6.185809523521898
Al 5.792670240076251 5.908591403005497 2.059301087889782
Al 10.291664606894644 3.723742264206427 6.998347427705734
Al 9.553413605067053 5.234403908466175 4.713887803789681
Al 8.34627908956938 2.833163520762064 5.480822312824469
Al 6.144015684368767 2.0043856754958442 3.8381074854151223
Al 7.498704196523646 4.237722675788317 3.3071158771191587
