43
Energy = -136.11259334 eV
Al 1.715286500109277 4.609457959003493 4.5221241485918515
Al 2.8566299325421514 6.666470711023022 7.434511995520733
Al 4.031093636657732 2.94727313634591 4.669992799367142
Al 2.829078115884252 4.098707928448626 6.908508433754798
Al 3.0463425944618105 9.020371191826648 8.644468414488955
Al 2.9660325557888365 3.6231276049998256 2.317010258081465
Al 1.9815956465896294 7.278918005931339 4.634575984258854
Al 4.672585465072924 6.922059755755254 9.475636840667738
Al 5.223964067930913 2.7126630363009183 7.083072524748259
Al 4.23467929651764 5.651794745921707 5.094934089326746
Al 2.8624837181973586 9.286659069021505 6.04969083920235
Al 4.25523141128969 4.307866073959398 9.189449635372169
Al 6.64580354568102 3.8248788704843193 4.974502915814496
Al 5.550695003700331 9.545650006893117 9.137257286104571
Al 6.7000925747234215 7.684942847938381 11.063405011290431
Al 5.426282945781739 4.481787214998196 2.6684606003968177
Al 3.35649927084554 6.301978646881563 2.564943487079026
Al 6.348389013449032 2.5595931419269244 9.520798200825048
Al 5.216250572733188 8.004199885955424 6.73287347231909
Al 5.191531475013882 10.47349791689526 5.425648537499521
Al 5.979353192621496 5.3902191784766185 7.228695729273658
Al 6.963057017166016 5.2728661579032545 9.829770181297675
Al 4.6031062749983995 8.209781215654532 4.043353641337895
Al 6.301656135224936 7.138120071876785 2.2055894961159748
Al 7.313140242363605 7.567709785983265 8.288743721677147
Al 7.940478890304489 3.1885770343605144 7.169720543910389
Al 8.870311676980958 3.286610369272818 9.648873961569057
Al 8.044463610988384 9.789097166376536 9.991368223127708
Al 6.827453355449566 6.47065238390553 4.757896465047466
Al 7.313510509804509 10.000989611213308 6.966052989050482
Al 8.972808268580918 5.504256501084586 7.859867867354683
Al 9.258775227915146 7.285820407670918 10.19147980090667
Al 7.214166194242332 9.12705286015989 4.219193058837025
Al 8.036525113112845 4.874461993767021 2.7536867777975953
Al 8.905942250701942 7.544594964998077 5.988060404554777
Al 8.896435162069833 7.432658781153886 2.898989332351646
Al 9.184653036027115 4.847523587329755 5.218503238400505
Al 10.779066167725672 5.101306336119069 9.996643209112655
Al 9.754408679696738 9.205489364257295 8.08764179842358
Al 11.220984655496391 6.881704551413097 8.15779713527638
Al 10.965111741075669 6.6434732531178735 4.351435727248749
Al 9.518682276725439 10.156965134179487 5.409372160829344
Al 11.558894951781276 8.611703513239732 6.158931035812741
