42
Energy = -132.21580098 eV
Al 11.584442284172702 8.699849164650304 8.827543128672282
Al 8.853309895565896 9.563286722512558 8.452724923855861
Al 3.6118312448059813 9.197878299531567 8.18411315991047
Al 9.593561772639623 7.448365840747672 10.038800834650333
Al 10.605434434530629 8.517721061575589 6.332857652562659
Al 6.177956771505063 9.628675052077792 7.454237134969404
Al 4.500194059058475 7.169846118985728 10.078304318620733
Al 8.52244061484028 10.4965757111852 5.980278180143748
Al 6.988214274923392 7.603615910748761 9.480423056999213
Al 3.9201509265646717 8.954923406227222 5.507320886352684
Al 10.751945875855407 6.190612008563008 7.836286824763974
Al 2.524710906020409 7.031991895986273 6.820976666531616
Al 6.2229193058044086 9.966956917771912 4.649483914718491
Al 7.927007820815503 7.611999619466563 6.839616222749749
Al 8.530224638101318 5.145883230131196 9.177108590685771
Al 1.9145760931928402 7.471637261537435 9.439619958704965
Al 5.2370145907916354 7.035624373764188 7.327320395097132
Al 5.930097972171537 5.029542651973902 9.193471927516445
Al 8.435701902306226 10.952634852453217 3.3195432949036
Al 8.948953635692527 8.414620791348973 4.210969692573437
Al 9.726473696736946 3.820394741824051 7.021181341345532
Al 7.10628135178362 8.851879424390823 2.2413915669336184
Al 3.262756378146884 5.087481649725402 8.772083557680597
Al 6.347542170595742 7.24450534710611 4.651933453990315
Al 9.583767283581553 6.088488663730941 5.409647989527753
Al 4.414657208190263 8.502788082205823 2.9224496322827007
Al 7.5814545531460835 2.7876766754323747 8.303419168839941
Al 3.7188741080800494 6.3555608148220015 4.469205343083337
Al 8.214212392931882 6.067494343669632 3.026325609799162
Al 4.79299052768029 2.720428176163759 8.459730703978792
Al 7.232163797310511 5.104486675324864 6.591343770644781
Al 8.587012933975958 3.7456556780722066 4.49626537627053
Al 1.8442090320920572 4.6383189902216415 5.756253152646337
Al 6.028488554303291 6.597393032233187 1.6120441398261223
Al 6.118552965203078 0.6175502093184043 7.43761852492166
Al 2.1970949537130453 2.8573873342190073 7.6799508211961705
Al 3.8110077966837785 5.249987024232496 1.8907544010548862
Al 5.969740456161296 4.742912279457946 3.9153786672553106
Al 6.4695967031635915 2.6776044908630694 5.727910615848139
Al 3.55548610017504 3.543442751803185 3.9082716213737756
Al 4.532744148643489 4.585239449635246 6.406297791529431
Al 3.94773710738845 1.8046165133546594 5.973075224033465
