42
Energy = -132.76777258 eV
Al 11.131333261521354 5.3352739796905535 4.395218465207295
Al 9.466079841065017 7.4592125655525585 3.4803676005249495
Al 7.574415477269982 9.366880413020446 3.0636682972169442
Al 9.579772557730493 3.4277951307966896 5.569610147191063
Al 9.467423510461765 10.023788366728718 4.697237741119783
Al 11.169906187389302 7.902878805050259 5.4789869438984615
Al 8.794866913497291 4.792079586747571 3.2117815539003063
Al 6.945711240094418 6.743007950917971 3.2000512420430764
Al 4.980737758285406 8.790366731140967 3.060839679987949
Al 4.415793843441844 6.142915016069423 2.6653281622201583
Al 6.3616835873366675 4.197876828534829 2.3513129975127134
Al 11.166211672223406 10.414432371408052 6.693185315259117
Al 7.223898605505586 2.6300458222425727 4.5250879282456244
Al 9.793744916576767 5.8988215634853685 6.687197071502908
Al 6.569124863286889 10.497767540525183 5.3756255766811805
Al 8.022383118712384 7.973491803993238 5.747883239364111
Al 8.451237639652028 3.8846224279432273 7.936937274911104
Al 5.357391693138497 7.22221018713957 5.313424495469521
Al 8.486940682982361 10.407236697517428 7.365080182328114
Al 7.267277417817845 5.231309825883056 5.559675679381387
Al 10.11324581328386 8.24274339417762 7.948959171140037
Al 4.89673140930104 4.2295717341303085 4.5521772367608815
Al 9.888260385746769 6.075464285391039 9.462243716345355
Al 8.022329129677138 8.718259017900898 9.589951920253196
Al 7.48612355853517 6.533642133326017 7.9857731640325955
Al 6.161811273562534 8.961609981984036 7.514236051240679
Al 5.851043387689361 2.878828607329934 6.826018972628823
Al 3.9472158013263687 9.538491650340976 5.516119521482474
Al 7.651752577392406 6.319599065971381 10.819955080588672
Al 4.755615594390392 5.364677124656656 7.049440387909293
Al 2.7237587769109592 3.3522478874989297 5.767319293517993
Al 2.8587660924453764 6.131517891157278 4.861908811280968
Al 3.746598998826318 7.803118045205405 7.650273704296743
Al 5.527913229165784 7.475561719385188 9.63476999298546
Al 6.126496882199018 4.36330909455687 9.142911019838497
Al 5.303091538121714 5.43885170590465 11.436968829950656
Al 3.5050313751843394 3.2484583589678855 8.286155628910555
Al 1.8325859689047665 5.405276304337537 7.230631104057946
Al 1.5847162740824328 8.14057831514915 6.201302718657722
Al 3.3432030639982537 5.78683613130476 9.525412902715418
Al 1.2980348544573979 7.488729620488776 8.784846024558215
Al 4.163753736979261 3.174628826616974 10.848139663052176
