41
Energy = -129.58061893 eV
Al 4.038875767289027 7.275167054440052 9.740388506917418
Al 2.5669872321046876 9.192487426971828 8.245508643270615
Al 5.121607126563219 9.717224100919443 8.98542736535737
Al 7.804265239332127 9.818264868509942 9.26654306111173
Al 2.642943384789099 5.162176321082983 10.785045962865343
Al 6.630583994412466 7.522300410898293 9.901618885525624
Al 1.8242485888237818 6.524936302724154 8.517877472399885
Al 6.60329612020686 11.349042299279201 7.17638459634923
Al 4.391285921127058 10.022992221283786 6.311549785946798
Al 5.346700228396798 4.990978734739687 10.597745203295952
Al 5.435881297627917 5.598988720092072 7.925383090911512
Al 8.897066577869312 9.908091708066168 6.834350974781775
Al 8.866706047142337 7.460057907131424 8.392588599023965
Al 6.496644679653135 8.224439432266236 7.1592966430142795
Al 3.8992139968941313 7.40636430954645 6.762731418120387
Al 3.6380484872223455 3.5795159865056454 8.852393299790686
Al 7.854927783020469 5.161042781830258 9.706845674416467
Al 6.9277959621409 9.728697391343994 4.875724998106294
Al 2.850523048406777 4.91154123661779 6.603184999675523
Al 4.598997426425633 8.186944397935003 4.313165451328701
Al 2.6678385780525495 6.352735726684019 4.314323224727077
Al 4.824550462686314 3.1427165265244477 6.3869726419947375
Al 8.498101542683024 7.476892825445588 5.531274869995048
Al 10.872796704410451 8.943015054471221 5.363945744416648
Al 10.315368951906073 5.02263536943401 8.696014514777747
Al 6.883260228260281 7.401898228059204 3.299510621706254
Al 5.591598941776782 5.659850852176817 5.203623328743253
Al 8.915685866336924 2.8738853183397044 7.876737044196418
Al 6.327854484147103 3.0472993287502685 8.630514279629676
Al 9.199842249403428 9.029455102946725 3.2986371373732366
Al 7.846237826765279 5.320725111851495 6.938360411679407
Al 10.946473509205527 6.708261347829668 6.742213426311914
Al 3.619039902698752 3.852580697747811 4.083566504139774
Al 10.135555326346584 4.172608336815839 5.830089243674671
Al 10.767016769464668 6.446454908907666 4.079865500640176
Al 8.227135412214555 5.082830005945727 4.09167717628293
Al 4.666280198882284 5.878013543178923 2.545448317472807
Al 7.428866270564868 2.9253315554251644 5.687431188505914
Al 7.063393004191909 5.196187451497121 1.5845005328110677
Al 9.138065792682518 6.725149567949159 1.932874697653475
Al 6.144687930565449 3.516468390528087 3.4449138237523975
