42
Energy = -132.79008747 eV
Al 4.57314166280673 2.0505174907507486 6.751491394320808
Al 4.260713643747274 3.1636342294217004 9.088620870393317
Al 6.835397953170404 2.3296799675024333 8.274096501271003
Al 4.115062316079246 4.389618125167807 11.4013183535566
Al 2.730551312876719 5.579015335786461 9.222445407587893
Al 6.034698222902097 2.8867887052983017 4.752741963500709
Al 3.072040926072117 4.331498336603131 6.9095495310869985
Al 6.551870962356235 3.5558146900371574 10.67292300963442
Al 5.836793876053847 4.555715171597545 7.001533463336291
Al 4.287886954355509 5.258538097789923 4.715220799437483
Al 7.613563640786944 6.0032442072904315 11.228881965725812
Al 3.647122540906291 7.031258546285848 11.493066983829356
Al 5.453628002965035 5.827521629908736 9.424211249696643
Al 8.403068479925919 3.488654986708738 6.232324970117505
Al 3.6853139318734356 8.32185144171128 9.158100324466073
Al 7.977524999797508 4.834285113950464 8.712280911960471
Al 8.266995520628624 3.253826940450684 3.3406239923649768
Al 4.4115639402960385 6.874464747741629 7.014798737169294
Al 5.743930445666794 4.420333980754953 2.559573121051356
Al 7.239725283039959 7.354751350777228 7.580663024708782
Al 5.540792064230188 7.022545781243845 2.968789673232105
Al 3.519259509651996 7.962888585659077 4.5643158680654405
Al 6.3907647960998135 8.195879630681715 10.19052685529472
Al 7.080628773168793 5.438147638036955 4.820527730326191
Al 3.2602505084643347 9.513318942018635 6.787130058119131
Al 9.685400503580272 5.945913775986797 7.0047384678424
Al 8.077030982468678 5.910460980948324 2.328332885097896
Al 5.770374815224034 9.646256425181518 7.967915889310867
Al 6.0765419166574475 8.361757100723587 5.395230820291835
Al 7.7008436072047175 8.687966289716735 2.7874573128722435
Al 9.924750156368281 5.144021174942894 4.3704853615565815
Al 5.198214749939751 9.695850878456506 3.1732624983117215
Al 8.287266394424282 9.72011883063198 9.058231230276059
Al 8.619421404378562 7.55498731340548 5.123690083862874
Al 9.253100015323435 7.1739754293508735 9.426956477009584
Al 5.291669284522429 10.997457214293362 5.658058081819098
Al 10.207598154295818 7.580065439073211 2.8389976818192872
Al 7.4659797648727135 11.231153590645553 3.996109382972092
Al 7.898020213970636 10.22645789148921 6.470437016839178
Al 11.471672175312404 7.408405354825378 5.257242482778309
Al 10.11478784176857 8.723687852060884 7.250438084331768
Al 9.948898920430993 9.834561177077493 4.519254243289634
