48
Energy = -152.7165175 eV
Al 9.867340658355044 8.328852392851974 5.342088714169108
Al 10.811176570992242 6.0784192779704185 4.102692924945466
Al 6.254111843903102 8.96282279239607 2.5035685699450454
Al 8.34290663680941 7.097033793149612 3.3630114919165344
Al 10.703419812925285 8.737013518416102 7.945757984064225
Al 8.827889927619383 10.439854053541003 6.873683632054887
Al 11.027008264923746 6.309453732755648 6.867490803540988
Al 7.48198101845178 9.446909261118702 4.777213030430061
Al 9.440805758989304 8.535006142682269 10.240757057931555
Al 6.706218627798602 6.544017463532003 1.3464246443067425
Al 10.739790332951367 3.8255749626290916 5.835077330266337
Al 8.605311106678725 5.750542776349763 5.649041330782261
Al 9.305789090635292 3.714993821646783 3.647642128157237
Al 4.778421822310001 9.381633045114796 4.972673064532885
Al 3.704295955430104 8.005513710895118 2.810685043900578
Al 9.613011295461028 6.117564898688236 9.226507921336644
Al 5.692589889549997 6.942386366158957 4.354189372246611
Al 7.283311274792329 9.829791136660342 9.555216605128198
Al 8.10747944188949 7.934924680825527 7.577671751143097
Al 8.230778648518111 4.373845682372094 1.3410189704811952
Al 6.091641424330749 10.106884412176063 7.200506153616219
Al 9.223158532974818 3.6736680088474953 8.017547061889028
Al 7.175786806792538 5.505188604065103 7.785448024658397
Al 7.186117955113292 7.060740683154165 10.210190366479486
Al 7.6162626077706985 4.32310445600293 10.17900157119783
Al 5.784278049191875 3.2344058424964452 1.4132138265940002
Al 7.668180568308984 3.1566422811116803 5.841087437929568
Al 5.41131059598311 7.346057230236638 7.041082586391609
Al 4.383048474375391 5.4952613222214595 1.9540725396316734
Al 6.6999100217461125 4.690943138915427 3.6238188360983075
Al 4.949742529587967 5.601731390088904 9.380277021485833
Al 6.616181136893664 1.9582606289735074 3.6566229779071033
Al 4.973988694337664 8.521365298136987 9.634101303187885
Al 2.9927619785199266 5.6773006217378486 4.171201575980194
Al 6.3634395118660105 2.9733865887117075 8.221518156462592
Al 5.188299802477008 4.805720652910928 6.031045933682519
Al 4.115321798586742 3.21781821317436 3.5091810789961317
Al 3.4758342198160426 9.18855732966099 7.442391123639969
Al 2.422347441412105 8.083075825772953 5.202772509096631
Al 2.973541565950204 5.977311403663345 7.2348442919795755
Al 5.02363286310909 2.0574849658928036 5.97493072477569
Al 2.435068098918766 4.841654540072194 9.8038537771311
Al 2.5379357468346857 7.455684900192563 9.615740985601724
Al 2.618335374103842 3.4703237981797175 5.6533341890303115
Al 0.7742752848517906 5.83703801511608 5.6144023783476
Al 3.7191431035799605 3.29828688665696 8.11130899028216
Al 0.9781372149345743 7.933248941971878 7.447569032992337
Al 0.9652210853119051 4.058612302190911 7.682892060100302
