44
Energy = -139.56295506 eV
Al 6.062486963026101 4.206021127961227 11.996696649481652
Al 4.9737774434020725 6.354942404860765 10.649880169604533
Al 7.676231307721686 6.071287222156372 10.821286084033074
Al 4.4698750061689045 8.456939367952364 9.010282235060263
Al 4.3814048607454374 3.7339501472167624 9.859856941963663
Al 6.60308030283481 8.648185515638726 10.848359919658536
Al 7.046707289264938 3.805071945040817 9.479246582497172
Al 3.815533599813946 5.889251122962391 8.30962193623313
Al 2.6603886571156066 8.07864360319431 7.107588901806148
Al 8.935984452345888 8.063606878764165 9.39413510745975
Al 6.473623599194497 6.680513794896759 8.343516755470791
Al 2.896912223645944 3.2510798388561906 7.751889514910952
Al 5.536185588755174 8.47505828482289 6.236591779876163
Al 1.6344559951637396 5.462324784601324 6.873295577325089
Al 5.46917892552032 3.928783218953178 7.160679825683361
Al 6.84322646503802 9.6713440303531 8.351184717754048
Al 8.917176114142704 5.3885964920735665 8.481093861802417
Al 1.2823682307403768 6.974117453114375 4.72248894254938
Al 3.257585675588492 8.766682678254012 4.578463256967247
Al 4.056029031472127 6.236385537879471 5.62688708857993
Al 10.65189783543161 9.380672488759142 7.849729106551345
Al 6.220172347081093 11.150926459029849 6.0992484632184
Al 8.7500748419325 10.749807131147623 6.667074767682539
Al 12.598453936532898 8.307982831274375 6.244728736540394
Al 8.351934998778797 7.744975551815865 6.70595686673898
Al 3.877502219799037 2.44207285971052 5.35728542237842
Al 6.7117374784071915 5.786202464090791 5.763619235591129
Al 5.3678380736762845 10.219776216694475 3.7946566812300464
Al 2.386078577976611 4.450197070370607 4.342872913336228
Al 7.788583706195708 9.519947223529803 4.373657094806736
Al 8.098671537415978 2.9622264006146724 7.241204364070321
Al 10.934066663537818 6.681895753762105 7.547786805573744
Al 3.368743654516542 6.523424241526724 2.9219072229454923
Al 5.94417497290694 7.354910259432946 3.5662789931145418
Al 9.2930585510996 4.9775685256867375 5.899862193291215
Al 6.48060884264805 2.4941916751613418 5.004683395940469
Al 10.242034055642467 8.945271731961844 5.08364112588284
Al 5.025737742811346 4.542612139224527 3.741217840460094
Al 8.641496769135017 6.979397376546555 3.950274693769831
Al 4.159823832022425 8.821046207560707 1.9651093754866136
Al 7.626680407803665 4.515566688663087 3.461219821738477
Al 11.278919929890483 6.483779584748619 4.781787510258003
Al 9.133415330256405 2.443207793524118 4.776211400850892
Al 10.2271270086833 4.530600921493425 3.4079851657083373
