46
Energy = -146.13635052 eV
Al 7.650423031535075 1.3412916010517155 5.109675913580458
Al 9.74898776979809 2.0190997494523972 6.817597614280728
Al 7.141629347454429 2.2705914833277907 7.8276280158375435
Al 7.062383336262843 4.192012951547099 10.011751086514558
Al 4.991530503926734 2.6636686113937698 9.32112191239097
Al 9.8096771985944 2.6726066613973227 4.057341473722728
Al 9.116323640846659 4.203776428661362 8.39991870528914
Al 5.374747635542059 2.8639683380680014 5.4513355449951755
Al 7.964937797737223 3.9477881213768433 5.88714493638448
Al 7.197808141920169 3.475483027825622 3.3424280851968557
Al 10.617230859619186 4.527358513956609 6.022946788240707
Al 5.752599378712448 4.733182406400444 7.540508075157811
Al 4.516571653963977 5.277687780374861 10.047003046168705
Al 6.843156657956961 6.745047602965406 9.464447394133886
Al 2.4558418283112284 3.4364139870832897 9.662037997596686
Al 3.3136516315571956 2.9647073026815796 7.144373415787197
Al 10.619000585065745 6.385565952808318 8.048074077660733
Al 4.774550610361651 4.557469449913317 3.1401738516689925
Al 9.146639751504939 5.3796929005332546 3.868338622323625
Al 8.078432664576368 6.435216033460069 6.98844857156346
Al 3.5926328693094427 5.044834817826446 5.5435544915075
Al 10.274542587211645 7.225461685151116 5.494852289119902
Al 7.000506282282401 6.119085459906569 2.532256493420509
Al 6.0985115467006485 5.916940156200409 5.113710694344719
Al 4.725076689079673 6.680569769920792 1.2074324749141276
Al 2.5883834210927024 5.610592739197131 8.020911999855151
Al 3.7023630021219875 7.03201865235421 3.6324987461888565
Al 7.807247120752979 7.8266072672844755 4.6442191964808455
Al 9.600908339880245 9.85568771032057 5.087281111904306
Al 11.162871327062433 9.073244517194077 7.345908157422432
Al 4.308442671723345 7.909305185932227 10.417750494927779
Al 4.716806767595886 7.2471694296169265 7.638113396984653
Al 6.695362057031052 9.38592032553101 10.052005173189876
Al 2.4751425531573714 7.545964964207308 5.947080174832728
Al 8.969316832505744 8.315158682230113 8.893352816535133
Al 5.96775909990943 8.634678477559875 2.795873164249344
Al 6.845184837698141 8.928287873527339 7.20002838887885
Al 8.472265268066856 9.722600590935162 2.70266763971394
Al 4.915841258974874 8.708150292154567 5.376587578224037
Al 9.0195929202497 10.64982959394361 7.616381598183106
Al 2.2486652437843397 8.315300226009816 8.734699373715685
Al 6.896003036127662 10.482540963461263 4.78748942297174
Al 4.4874629355186 9.875511349506535 8.594222510422387
Al 6.678799103441887 11.493337017351791 8.50608774992774
Al 2.630950971920177 10.074509061632346 6.624306583388997
Al 5.001117635257673 11.291944690470213 6.3963135539056895
