49
Energy = -156.30632885 eV
Al 11.152232216007137 7.111827217484803 8.488452063331891
Al 11.251481255423165 6.2805963479938285 4.172358536464726
Al 10.861209914177799 5.08750677588539 6.675912686204814
Al 10.199612120739346 4.878921514562719 9.416279838190615
Al 10.008030755825702 7.8081155630442565 6.089187384152263
Al 9.01269530414493 7.209062613956373 10.392378619531483
Al 10.407457658281787 3.5625530214324073 4.458482056554442
Al 9.910148152456864 9.518653841078933 8.741390216303014
Al 9.65850124976246 5.101891729772622 2.3555509594483715
Al 9.246509302963617 10.33658489563792 6.085546274594844
Al 9.194773553883978 7.878085865456195 3.1898720768338307
Al 8.607545094927488 2.861323946379685 8.920614220218486
Al 8.467799864603833 6.087489403948872 7.732032844844579
Al 7.848467095116223 11.319016781571298 8.390889304327045
Al 8.62771741185137 5.717874517997284 5.002832606721667
Al 6.192067217375212 2.6770781156299797 9.970253668861183
Al 7.490606513003831 4.974313435698118 10.375935655106908
Al 6.298108614056445 7.1919098938640165 9.516825245340755
Al 8.50209219805254 3.2466976000099423 6.359928183383536
Al 7.491228639688075 9.442952384239469 10.289501673883358
Al 8.13017921697049 10.480644369878513 3.6099967290069763
Al 7.636773763713174 8.651409081259901 7.569898854766485
Al 7.182657727031832 8.185238579768106 4.961828000403728
Al 7.621161294815514 3.475642274259009 3.751193712694092
Al 6.516712427955223 8.55506295102807 2.2292254113497574
Al 7.244136950773006 6.020754263137497 2.6005504036083504
Al 6.42892696421136 4.478090123044495 7.707180437927762
Al 5.8774215861498735 5.3642017787175424 4.9741147282882805
Al 5.510836713111023 7.295710175457092 6.79732401331035
Al 6.595991927306398 10.857047982557336 6.070486952701884
Al 4.754383145487928 4.962107991055003 9.920848737212664
Al 5.933289252051997 2.6374303268653154 5.7361403997082085
Al 5.27595882428985 9.747459751656415 8.584304584528535
Al 5.409536034161665 10.67780404105974 3.61707304635102
Al 4.574266748401813 7.95396325857321 4.115326908935271
Al 4.337706379324404 2.7100657221998654 8.025751095116904
Al 4.937163470765584 3.521452373077888 3.20010661223551
Al 3.8263533458634384 5.169295161932635 7.008700153373229
Al 4.1405658391212325 9.909312180853581 5.948406193824438
Al 3.721923641644408 7.269132837820236 8.863994796642915
Al 4.669342868610234 6.11334501827176 2.15076600577201
Al 3.2607994206536626 3.076481586142641 5.286372641902987
Al 3.0837785357120384 5.595112197726045 4.2394584263491195
Al 2.8277988819109603 7.595798031681942 6.091750204868567
Al 2.1882853909978173 4.985148002506852 9.176101820383412
Al 2.5335453534314403 9.597382305818545 8.07174209879569
Al 1.7122832991069874 2.9940967969823555 7.4854426272860275
Al 1.2119185467300095 5.271844862713928 6.155242944334207
Al 1.1351841678097958 7.2636763587658315 8.133613194478915
