43
Energy = -135.08478305 eV
Al 6.138702366262416 7.153162130933576 10.508223105546012
Al 7.365269095308359 8.897071068154357 8.79761607287972
Al 4.760314727349033 4.681547147318209 10.317132183503627
Al 4.679691161968903 9.009804736921797 8.923339294336882
Al 3.442299291126952 6.834960084630685 9.791529536393437
Al 7.364553066821883 4.62992030941087 10.679046265178277
Al 8.446327648348635 6.40159362668786 9.065401108282582
Al 3.641271487665724 10.203955839267145 6.708944428905491
Al 6.0672567273777585 11.022292074273409 7.485804133909655
Al 10.131705439687135 8.484305268638426 8.18395779932358
Al 5.784411259423156 6.3589104339474325 7.96654787347816
Al 8.344480727985545 10.13516184459421 6.391241627953805
Al 1.3943440121950323 4.800837523595521 6.5973020261659014
Al 3.8027549538026424 4.53839478853155 7.678599165698068
Al 6.3074908700090075 3.6725230206057793 8.245174449354309
Al 5.666932381818133 8.368157188870274 6.232990394091409
Al 8.21289222367511 7.452123509616121 6.565869184271062
Al 1.4803040783175752 7.001785961539313 4.912461207041352
Al 9.08398626747384 3.67250598087375 8.771247673186272
Al 3.1029938449553285 7.337467293511215 7.143901190887442
Al 5.695666044009731 10.506805015393311 4.611292579345961
Al 10.480745711522955 8.599704811169735 5.450685585243062
Al 3.387158778456243 8.773569582473817 4.460745005066919
Al 1.409464521305446 4.490254803363463 3.899865910318548
Al 3.977388023898178 5.744190779414254 5.086727364059095
Al 3.301448113453371 2.915378671991678 5.457461658426054
Al 5.855101064572722 3.8569340267049603 5.499065135450555
Al 10.465939847647913 5.796829130420197 7.212068508478969
Al 6.645437662273104 6.283923110535467 4.752353974634079
Al 5.611882795302129 1.1686917107859598 5.490996059644035
Al 9.969612683182614 3.5634997339701275 5.092258663511972
Al 8.004016905119428 2.0853908659544307 6.829617266001603
Al 8.02005692278713 8.713110668703209 4.119503686532529
Al 3.1118638815448625 6.613687977817466 2.6398987467943233
Al 9.621557480625206 6.238203610157442 4.3906277812302665
Al 5.51194303630758 8.061426458629033 3.060003522007843
Al 5.901048611393089 2.541979452590863 2.9836888581469436
Al 8.025574939713952 4.853520495455076 6.5333672245859535
Al 3.6217132647261394 3.8493374539379346 2.7251765982184413
Al 5.6634136906630825 5.392607238357344 2.351455133542023
Al 8.129382810253404 1.6767394671120912 4.169565439223306
Al 7.958894932691551 4.2646860057191835 3.381842359579493
Al 7.87411273258804 6.7929003611458025 2.27513067174894
