44
Energy = -139.61188826 eV
Al 1.6863553480908382 6.9498332717043905 7.164842529356275
Al 2.520343166046903 4.988242862729048 5.415345785062166
Al 2.8612702686606633 9.384052809178023 7.306124554991672
Al 3.54771856466623 7.394346185261281 9.118374711793242
Al 4.8894898245422835 9.833757133672735 9.088430702232497
Al 3.143539037057265 4.928647318858719 8.100307816429595
Al 5.583628850521072 7.899362050107616 10.859357536135901
Al 5.094716820427289 5.353456989816489 9.999362132259453
Al 4.773833896682732 2.8711209739644428 8.921374511293681
Al 7.610352950232305 6.178664615657462 10.542909644713914
Al 2.125161877589058 7.682844816449946 4.550240065302162
Al 7.245794865291269 3.6518172597300413 9.668502214391797
Al 3.956324069272959 2.8386837937676943 6.34494718013067
Al 9.751955413404765 4.7097453279243275 9.870382558932336
Al 4.34673859565142 7.002179118396526 6.30729704029981
Al 3.480560063915421 10.045561626686588 4.805237205500872
Al 5.679762786573878 9.435763841472461 6.398520930850171
Al 7.244087029913173 10.884278999260044 8.24358267418244
Al 6.265465528005341 7.432882904629346 8.20508897441293
Al 3.2772718872970446 5.796488085451433 2.871478827988397
Al 7.96696226406921 8.913089643475491 9.901599873632058
Al 5.92108436941584 4.836699422372943 7.310455492267805
Al 10.107529089648812 7.328659116740471 9.879900813011405
Al 4.700763250181226 7.983091326351713 3.5339150746789927
Al 5.323913794789146 5.064682913897104 4.612676612786439
Al 6.796924673639633 1.9968989527456054 7.400160202753189
Al 7.8104052658924905 11.059341450761627 5.672037114304087
Al 7.012861110521201 7.429186646393854 4.930632064107865
Al 8.525540240575657 6.075670749805264 7.836298409786932
Al 8.57057855245429 8.697724411914491 6.943516436473091
Al 6.006086148349275 10.366175285535551 3.8443279414761538
Al 11.062668635608027 7.421041611746529 7.435616333946463
Al 5.996942813002133 6.036640054162878 2.147272628246891
Al 6.211120182335657 2.4511652748881327 4.837100388089763
Al 7.921048337873429 4.9042153283374015 5.511918014689022
Al 8.951949808663343 9.25439464871617 4.033154925642446
Al 9.967176896810345 7.083873864826407 5.098460643917649
Al 7.03729116474847 8.51858821458815 2.268638021603263
Al 9.20506820253992 3.1521757777566135 7.7547486460866395
Al 7.459380401551127 3.9349830616221393 2.9681383592488704
Al 10.782467219983246 4.859653503575874 6.471097913014957
Al 8.708430592815821 6.570337951983235 2.840041556718179
Al 8.883656569519298 2.3317146004658995 5.149714036057997
Al 10.017750043835198 4.500236675283338 3.868841373865173
