40
Energy = -126.27661487 eV
Al 8.846211147277577 10.775638950334114 5.22058733098071
Al 6.3975840781509845 11.817978861409834 5.7361246870311176
Al 7.122490872539473 10.4159364058567 3.1541176910959896
Al 9.242276947871702 8.711827815000705 6.814105604334404
Al 8.561341227261646 8.207052492975391 4.176535847885877
Al 4.630912523701981 10.465476766866853 4.258263450661602
Al 7.584692779936389 10.712998933680417 7.821695717422314
Al 6.523282360875855 8.834668308987302 5.8964752746451605
Al 7.549875921633774 7.038784143251572 1.8753899806779313
Al 4.599497697295284 10.501107143803322 7.150651602973127
Al 10.246199763119257 6.723322760156908 8.506671602994984
Al 9.49544478882017 5.769043963797257 3.2764685446319404
Al 9.630895504447423 6.232071673721177 5.857482557456944
Al 5.522041927842406 8.044915297783165 3.450691325368722
Al 8.709215005178788 8.918452094425566 9.539708542258893
Al 3.6835804373533794 8.39283120848262 5.519706134345607
Al 5.95063547468417 8.83061202221979 8.79961740716623
Al 7.569797568753996 4.036585529325107 2.37557935287848
Al 6.984130501426181 6.048323743692375 4.574765580496772
Al 7.556884369351364 6.73720536521746 7.8828975973315565
Al 4.984117402086057 6.6223930907737065 7.293186191545419
Al 7.0541478501071735 7.216209977987511 10.68911443508425
Al 5.295144797975058 5.546953744771542 2.2716326221486116
Al 4.359932111902265 7.1079351210023365 10.17054190423879
Al 3.226714328611541 8.517903853739707 8.276146206002487
Al 8.452356121441492 3.774211918555059 4.931585463253844
Al 4.097047038114238 5.906929590656198 4.57884644567062
Al 9.07693436937937 4.295605867507136 7.607717341105166
Al 8.691395567878374 5.2213708321437275 10.261451897867966
Al 2.2701426586480324 6.336151538102628 6.649209788532568
Al 6.407744436929144 4.352386886843197 6.8251122926091545
Al 5.934928656237536 5.0712096178475825 9.519636900885793
Al 3.1323330665449443 5.061534151351014 9.02233082577902
Al 5.621306171731773 3.5994980836309476 4.2915259355092505
Al 3.685830418562728 4.001000070359885 6.390962914353671
Al 7.842810170019083 2.0127203927338484 6.769748670973118
Al 7.511505565859164 2.9272274706459003 9.296456410167563
Al 4.671024287925666 2.8442268494736846 8.682659614681148
Al 5.089224297786038 1.7542525050115738 6.179643286557818
Al 6.230935299665359 0.6580104708025447 8.447520535322354
