49
Energy = -156.22153703 eV
Al 6.044338474118652 9.34593149456568 11.064719594154736
Al 6.871833572984067 6.759362366175846 10.75009024689952
Al 9.579063827183717 6.397356616121649 10.882723254206839
Al 4.303085781858827 7.433320998538026 10.012763244573737
Al 12.162514153225654 5.8662183778571535 9.684546535616938
Al 8.464772598832507 8.904791754292718 9.910438496178035
Al 10.859867851227587 8.090084895914266 9.141410902364218
Al 6.731851788595496 10.96453885421503 8.86632526468247
Al 7.580256786903588 4.316066933485528 10.011491399187394
Al 5.620762603223511 5.484125406484913 8.63874590740298
Al 2.810125533131022 5.6831013821349226 8.758563974942275
Al 2.147811582365392 8.522458156477663 8.204124244226625
Al 4.206399689616791 10.008003509560309 9.18351397400641
Al 10.18805904319583 4.144006010008897 9.43760609031223
Al 4.291328332011538 7.2725494318087325 7.062574728270752
Al 8.462717001652384 6.449298295830863 8.423743055338266
Al 3.768235864019244 3.3005865684706195 7.641084226081171
Al 6.462757779543702 2.96266486703657 7.711221133224486
Al 10.976411068128128 5.918878194302711 7.191225848249477
Al 1.1407143601907987 4.008109921425382 7.442521316150994
Al 9.633928025795255 8.486894757624064 6.917886637661488
Al 4.895200732493236 10.037487353413164 6.601969172412715
Al 6.43440729557406 8.26901507261349 8.214662922844175
Al 8.55861434255389 1.988068982613758 9.019948002136928
Al 9.064617395492709 3.906490874105406 7.108464904648226
Al 10.847409106712435 7.181960352021092 4.776677288682258
Al 8.13643597813988 6.195906898961496 5.7987702743817024
Al 7.62108333863768 10.227492733658947 6.487001140286104
Al 2.802688388898096 4.114179143106357 5.282077369054394
Al 3.833206408304755 11.110345331844796 4.335649224610203
Al 2.7406193604935356 8.804139722366987 5.315756230872191
Al 8.606448536860928 8.7351487134118 4.471627874500762
Al 6.0611166383372455 7.853795020055605 5.227680609296358
Al 1.7184258642656312 6.496180989515155 6.333101501133759
Al 5.392765733820307 5.040214202221093 6.021191144986492
Al 4.92531346286285 2.3769768313328354 5.34210099058663
Al 10.00957570323015 4.519667623711265 4.691282797593721
Al 7.456336023308451 3.396493726430923 5.132816162845552
Al 6.409202159246789 10.346928469340812 4.049363649557962
Al 6.381434972830796 5.415108058113135 3.59636360120954
Al 3.968473185050745 4.102431541226626 2.859204077804515
Al 4.355009115304912 8.754149947941153 3.0557396052178083
Al 3.748991071498573 6.450118650714041 4.321121581626793
Al 6.8910517621139356 8.078326798082712 2.475781446891676
Al 6.13220020744866 2.5505482869633314 2.8946333456778577
Al 8.99088547374212 6.457495072767599 2.9953436532461946
Al 4.671855890262276 6.415184937003015 1.6991879547843114
Al 8.455475202770547 3.742767087198774 2.572213692733494
Al 7.244367068454576 5.77507492344452 1.0429958431592787
