44
Energy = -138.66813177 eV
Al 4.582590408680158 8.54369596600637 9.014188828169619
Al 6.258135934091842 11.382256972001217 5.516483945965406
Al 1.2609358151850232 6.35035835172815 6.604327984980102
Al 4.021066758794974 10.105459952151339 6.576517915053599
Al 4.956098802105135 9.441584763589233 4.025959383099975
Al 3.447391520223062 6.200441552433991 8.149390574357332
Al 6.377566079576277 10.629680773117194 8.200153864598823
Al 8.513274151821284 9.872762177820679 6.559965991936429
Al 2.1757907410081203 8.578585252294818 7.783855493751472
Al 6.1987098174761845 8.3022989110875 11.108948155978938
Al 3.6700614512363585 7.3746304793179664 5.661363643203767
Al 2.084000358887926 5.687708369634006 4.161913624398631
Al 6.635707040539046 7.11482262343136 3.5939287473302723
Al 7.6821601276912785 9.518907838248936 4.089161062134393
Al 5.660197478051056 6.0354286293283055 9.53742621809347
Al 4.877329241189754 5.194851622148648 4.1882632317766415
Al 6.137710413077972 8.477870772729922 6.2452228522845274
Al 8.82942928354405 8.551568906361416 11.012310943848595
Al 3.0977502388607245 4.287486802051347 6.333690981724255
Al 4.785248089053225 3.674410557849793 8.33844385673147
Al 3.9302292293521877 7.312993478787344 2.9009687676769884
Al 7.33786042013625 8.048668616609488 8.614629334708617
Al 9.074831796268134 10.374217701238367 9.075978941884385
Al 3.144654748104299 3.114405346173116 3.953046907009115
Al 5.806761621843582 5.802112360194793 6.702794104691288
Al 3.44339175765263 4.867352888093983 1.873946556504102
Al 8.36856115049917 7.028011967017317 6.214021592955669
Al 9.110868870699754 7.8205490153527855 2.4690549397524255
Al 10.22143160387094 8.826185141825391 4.7401420407734385
Al 7.601400236497494 5.779184618787002 11.327591814231221
Al 5.575959813562707 2.8463973927715274 5.282131041431731
Al 6.886407185872889 3.546022725381277 9.94016487873351
Al 11.236981597317454 9.672969900333761 7.1544640828406445
Al 7.508883923385219 4.833175287041215 4.675807740551361
Al 10.023265309966353 7.815973358115446 8.62848330763687
Al 7.247902010301634 3.4702247231740357 7.220576463408554
Al 11.321833746327938 6.906403300650918 6.486527004404521
Al 9.442771666554993 3.061905720349841 8.757709676756525
Al 8.374234151996815 2.2673240940382953 5.00750825045224
Al 9.994138619705863 6.02878925643602 4.226211345461289
Al 8.338122013790795 5.596682237205539 8.607010673791955
Al 9.678900109109028 4.440040416334849 6.367452291428649
Al 11.228818615509573 5.303898594231194 8.583609232813803
Al 10.135751340429088 6.196815876373718 10.773767000531306
