45
Energy = -142.28445914 eV
Al 8.626156294597111 9.26028646453839 3.4299891195683085
Al 9.031317928769194 6.702194739908019 4.294963006663497
Al 9.096849531730301 4.111982096816861 3.386683874998765
Al 7.156736245098069 7.2523498704382 2.1372324170272265
Al 7.411888866650615 4.687800525729223 1.3260030291331042
Al 8.870131026737367 8.893699120127387 6.129743004301063
Al 10.959118554974317 5.0362317695692145 5.217506578627024
Al 6.699978951051222 10.460999606445114 5.699614614055675
Al 6.078835144637299 9.880307485231896 3.001593639404007
Al 4.4345167010991595 7.756000317245875 2.8976643552181955
Al 4.728883148538072 5.329564786495447 1.7405669175051426
Al 6.537780836192465 7.771881042355457 4.698200577070578
Al 8.095185555637794 4.433608910200807 6.034907866347279
Al 10.169430051849476 2.39958924596316 5.392420518999499
Al 7.669954599872289 1.9761731849886757 4.406655357769992
Al 6.547708700778293 5.194999919418224 3.91126468063152
Al 6.5271188752351135 8.119273542078275 7.222123178054576
Al 4.669582045931765 10.032627502221377 7.7719086868101535
Al 2.042262962703426 8.714373293254752 3.986105822833825
Al 9.613668620375261 6.493881244842329 7.044910711927759
Al 2.1347032225386435 6.089973916360971 2.9375682490300403
Al 10.14732379739649 3.8701544268861987 7.694540103521878
Al 4.341324297595307 9.381914822320379 5.108537187584012
Al 3.7428986839220073 4.153160246354712 4.040346673647589
Al 8.6653539011608 8.239737402201856 8.9151534883216
Al 3.312835727221218 6.634053827491365 5.419069247355116
Al 7.724096632699807 1.9248245874485508 7.092643301025402
Al 5.66925090541575 2.8822805947649806 2.6924677055644044
Al 2.343638815628656 8.816028528599206 6.872874417573368
Al 8.088341390900359 3.3487024719944523 9.38279112164928
Al 0.48881224823712516 7.153746426095273 5.542404612949613
Al 6.172113283047177 8.826103278072326 9.788580767189035
Al 9.606125487557737 5.722652656769861 9.706901835080306
Al 5.608196460733782 3.0439236793214364 5.610790292512264
Al 5.632991770006119 5.714872609826927 6.373085490814619
Al 1.331671559506588 4.615233803638113 5.231614754694711
Al 6.99077273782581 5.878714254435892 8.641652867514672
Al 3.403735880057653 4.031159599837053 6.781025591026966
Al 4.2037593880372075 7.291664371957568 8.255732277121613
Al 5.58589796088699 3.3834888122770246 8.231404608707368
Al 7.621735304529456 6.709640133924816 11.192673386893256
Al 1.7969779215254638 6.028908950089227 7.697053882367791
Al 6.051022307338596 4.276800642215484 10.730946250835236
Al 4.909331036763135 6.695308103206014 11.03296894472959
Al 3.6004580733658913 4.900517999099315 9.43221285824911
