45
Energy = -142.52863667 eV
Al 4.370799826079658 7.318540516771987 11.064226563385052
Al 6.086415437867838 8.711011670505505 9.45271439335562
Al 7.150652094104435 7.6247114395253375 11.747944991245967
Al 5.8762858882086215 5.293748469146514 12.218268818101448
Al 3.951972362410128 10.438491228587937 5.0273159549410575
Al 8.747775448279462 7.508744138468972 9.556282283379943
Al 5.06134834134396 9.343508279078913 7.138182571141554
Al 7.768868854852031 9.405424783517908 7.369168191136722
Al 4.015122680443672 7.0132273998772865 8.345527552883865
Al 3.9474745212237745 4.824479208393168 10.02175027643882
Al 6.574352436384127 10.111923196284273 4.998920058442952
Al 2.7748167075720676 8.135670490632812 6.185301530100791
Al 6.422703164606682 6.015529243748775 9.628935899418627
Al 6.617494413099331 6.903661392684045 7.053021364657208
Al 9.342199499686362 9.97691796595166 5.22838397855313
Al 8.661922749501315 4.894558736619844 10.752877419097251
Al 5.2213209337506985 9.843178259479046 2.5424945888102957
Al 2.265321845320104 9.247207350719309 3.3297392926559706
Al 6.29548929302722 3.391963479999806 10.436230102162126
Al 2.3719867525034735 4.10272938854183 4.924342342282506
Al 4.558613459821023 2.2064348393538364 8.812469356116278
Al 9.713593959304903 7.523044633451884 7.063309239127988
Al 2.4186259316175502 6.600088693696541 4.033634885975843
Al 3.0283658808681158 4.1249282334766715 7.56530039094081
Al 4.9588541190419 7.876142632064757 4.4518972713608
Al 4.3296546547997865 5.771357008276671 5.857673751904247
Al 8.165673825255157 9.522929656206705 2.7251983986253214
Al 7.929925909853971 7.714384891321694 4.861719395047811
Al 10.803320792880639 7.693352882459457 4.6033108058418195
Al 5.85887528460435 4.306768373828689 7.6105761972191175
Al 8.570942720656175 5.169270449479379 8.018427654942148
Al 6.474663102130299 7.390544791398896 2.252637332399932
Al 3.820797043491631 7.586311272753726 1.869943030005126
Al 8.052056187122918 2.506903789107864 8.697736189946593
Al 6.742272770717803 5.398019730320634 4.443671847814215
Al 6.253594320679373 1.4888662114291964 6.852426909584
Al 4.942877072835606 3.2998288014688106 4.966647164826809
Al 9.475011709904013 5.435218357615965 5.322063176696334
Al 4.547587752380077 5.217723566263737 2.875779086096427
Al 9.218345600756093 6.802123143412492 2.591383877054511
Al 7.980515271936307 3.3994464333875682 6.086259497214713
Al 7.419035895248709 5.07312395592296 1.629340056964539
Al 6.959309906712358 1.56061409456106 4.321486039818423
Al 5.987719066946009 3.018945572995575 2.3771639379455913
Al 8.677446501928795 3.626634821822648 3.5133944051356365
