40
Energy = -126.45036926 eV
Al 8.86935133435345 6.8377208468837685 10.386185848754849
Al 10.762348024819932 5.716611172207281 6.305015697727469
Al 10.458651191581842 7.5734731089750795 8.197583120268122
Al 9.450829085449502 10.176612483491562 7.485204499890974
Al 9.613397565437644 9.422744115137668 10.108085447172883
Al 9.875593715415468 8.276805728642438 5.520247181974917
Al 9.153218232517395 5.867527861315562 4.1418145623655525
Al 8.709442410958612 3.8673008344502513 6.035105702095712
Al 9.330147608367067 4.891882325647901 8.5599323755057
Al 7.134870217899817 4.09142629542473 3.9038142263193225
Al 6.823772961662738 11.06621115424483 7.956545182882679
Al 6.21168019246774 7.750604143459641 10.864864442527631
Al 8.004908201306149 6.505987692485551 6.618763609640315
Al 7.551784201731254 8.442627712399648 8.558347794813761
Al 7.33052510047991 9.195906647329268 5.959915069399257
Al 8.150803741270114 8.347924374599387 3.5331546665575715
Al 7.047906237502363 10.296586624765885 10.55738137070125
Al 7.673651579861129 5.986061587857224 1.982363341913471
Al 7.258827674705812 3.2407136501798455 8.295526764721918
Al 6.718380737222567 5.756890379732865 9.054919916948537
Al 5.441567641000659 7.3990487231882325 7.091524334458516
Al 4.122483002817228 6.694393878286154 9.500472406379716
Al 6.150640794514552 6.639227314599363 4.35694323263996
Al 6.814076219764628 2.0533712114527787 5.742223877717286
Al 4.7492111818585325 9.51358381710416 9.232326074522005
Al 6.222473227774509 8.240681049406628 1.6441411246913862
Al 5.835056877844717 4.669309818912521 6.3291312401894215
Al 4.558358487089582 4.174321378782081 8.784695240966121
Al 4.7616431760064675 10.039609695293873 6.440146647597967
Al 5.456242728712597 9.28394931188852 4.013842708673116
Al 5.144637615470608 4.884711751913115 2.080481599904896
Al 5.109506248372888 1.7442696234888582 7.906396767234941
Al 2.8253902031976748 8.444036656967924 7.729329769491524
Al 4.776288867810432 2.8415970315547967 3.9393115415786926
Al 3.4415679422639034 7.833772894855493 5.167708169346498
Al 3.901394543337675 7.283331724085756 2.647976210789778
Al 4.362169657484621 0.7724755707471874 5.563848888313288
Al 3.7552240075554635 5.2426302867949985 4.497675439608831
Al 3.1635651459701837 5.782371161557661 7.034495444316028
Al 3.3638004734651563 3.2370764172117688 6.357946516720542
