48
Energy = -152.64028614 eV
Al 11.716273833754636 2.8576432549970523 9.175124422722345
Al 11.440289260927438 4.796283865480335 7.337249498310414
Al 10.691734887043477 6.830318695522551 5.732606483250629
Al 10.29777755017614 7.113829857775316 8.382347401912286
Al 10.174003066343131 4.204876793858064 4.996119054925487
Al 10.077342101252011 4.837642467317387 9.853441431830063
Al 9.188715251729317 9.28730840117511 9.365748393263504
Al 9.715133699555054 8.905770473593538 4.104630088800124
Al 9.505447894670194 9.112336805962052 6.676805238423555
Al 9.557116622730149 6.233194071941012 3.3801243232573377
Al 9.193991003784287 2.604922199687744 8.354976842437573
Al 8.706735730615051 5.196013686248963 7.117883290280964
Al 8.372191805905478 6.815685083629027 10.421608051722831
Al 9.19615778971617 8.100858432219 1.5107331277605558
Al 8.04844558502963 2.707031134026051 5.9222916571942195
Al 7.73684330007461 10.609405067341402 5.2078157964055265
Al 7.52929862959758 10.67812871134775 7.8870959629999735
Al 7.455956076084015 7.610008081879298 5.14673094469569
Al 7.312542315249372 7.430727736052952 7.832786791734873
Al 7.362833756310493 4.956767450847659 4.541479041084559
Al 7.344938000555337 4.3520538773489665 9.470829255649152
Al 6.652113320465417 8.845981972757757 10.142221985302395
Al 7.277018142770897 9.291691127273964 2.9182589913518657
Al 7.034284492022845 6.578028939202015 2.3591333875985443
Al 6.495794568926394 2.127588690966253 8.255939470365485
Al 5.124466459022985 10.682497536225213 8.880137942870274
Al 5.586336000976661 9.242672606933567 6.552273217856742
Al 6.010796945652769 4.646863964185835 7.014775253061334
Al 4.7742508922326365 6.50252501248245 0.8801927098780844
Al 5.147418956743749 10.576256523653308 4.206601340768378
Al 5.809460514946091 2.645614319727168 4.516548178578722
Al 5.650726884988991 6.270501679434304 9.930070132651261
Al 5.257974353185882 4.460525837477088 2.713150069565078
Al 4.815184905217799 5.979877053356778 5.04635763750616
Al 4.523680828994591 6.956050256330678 7.522040908383838
Al 4.843112614259829 8.160714395917697 3.092022943793793
Al 3.9831184321148747 8.345332976899018 10.064774593024467
Al 4.366956418447015 2.3536556173890353 6.732999751310356
Al 4.558462562079643 3.6900246820903515 9.357131216010618
Al 3.041277096821209 9.477739701563246 7.698673199519122
Al 3.245360797573699 8.395367079004881 5.260708542497035
Al 3.0895170120932427 6.124636814253287 2.9124434892232802
Al 3.2112477436526006 3.6382012170965288 4.530741017755375
Al 3.078965832875814 4.628179524799058 7.1054437387002025
Al 2.914601638102737 5.8198850797864425 9.587135052474643
Al 1.8320868186705852 5.9600897995327555 5.129208677515165
Al 1.7205698513469079 7.100167433556787 7.420762202013104
Al 1.3621834341081216 8.289259689250514 9.782562931160385
