46
Energy = -146.36370436 eV
Al 11.140295369670929 4.69139609866459 7.320668167809011
Al 11.109787908215974 6.790653643353945 5.7832493544424635
Al 9.995738325755223 9.07483496078655 6.859295689104722
Al 9.828180085959685 11.23610603502307 5.054704779658051
Al 10.796389814399975 8.811158122613822 4.205121843396386
Al 9.570364019998333 4.567231244177204 9.46635427287007
Al 10.145659711998125 6.994496896230851 8.472142003561233
Al 9.681431547896546 2.5727548230183293 6.820266013735674
Al 9.624384532859057 4.549998084940794 4.788441914890986
Al 9.615092558443973 6.564365120990327 2.895582817446411
Al 9.046168086666395 11.485443410359931 7.691262501379858
Al 8.979612098305887 9.262390809023882 9.4063773816783
Al 8.466471165270466 6.7886266328003355 10.598747151566236
Al 8.442390958133855 7.4114382319647625 5.2057234838784225
Al 5.55219760241386 2.686559041170675 10.001109820216984
Al 7.4478999621832 10.075030277793472 5.870824662988801
Al 8.31707612207399 9.727162132885237 3.2670351576016086
Al 8.331748341902474 5.229189125060218 7.016444559618976
Al 6.953871862321371 7.4076047012042965 2.7390544409350133
Al 7.341890722072143 2.7826463025219286 5.532260787596476
Al 7.546520281899988 2.933623420640393 8.338632433280663
Al 7.441836039438202 7.798397658564545 7.599467555210139
Al 7.6019802738489535 3.9679064410455362 11.10991310200396
Al 5.625149899370197 9.517476845399816 3.930170357923454
Al 5.715693916927764 7.123162060924726 5.4218077049951106
Al 6.252057992004155 8.101425979621041 9.939496604623363
Al 6.5847255435434695 10.479887554099562 8.428331340875884
Al 7.087144785835518 5.157431609294668 4.256840505375466
Al 6.5127959964261 5.425626877992668 9.134911177414045
Al 5.126384051544367 1.9874092616123653 7.154483528989037
Al 5.625336692191578 4.7110933974711395 6.678875686150241
Al 4.957550725139864 9.322553519635552 6.598075872977461
Al 4.613925368591107 6.890077618793836 7.993500267843413
Al 4.649882969154759 6.0585077992709255 3.0009929930594765
Al 4.978982874883038 3.3419747512064673 4.3473103078181365
Al 3.8859221671974145 4.214657612674375 8.753453668182473
Al 4.1308820632791265 9.518556310861488 9.155677601583667
Al 3.375742340567898 5.780949895796241 5.354223167740373
Al 2.70902545181933 4.0375091546432476 3.182673991238958
Al 2.0022644208837157 5.647874440529742 7.687776476900504
Al 3.325770105185111 8.335527292712436 4.498492199710237
Al 3.0071700655227236 3.3166105074378214 6.274047126219257
Al 2.4972306023608746 8.421253209403808 7.408054239774108
Al 1.6818471699358124 6.504602249751019 3.107935351746326
Al 0.9112479667955029 4.623361637186586 5.147794633530449
Al 0.9244858074727524 7.231663567205235 5.660601668818744
