41
Energy = -129.29774845 eV
Al 5.689913506769612 2.475267271166296 10.298671485824336
Al 8.248106720713412 3.1311882119902283 9.418694035251715
Al 6.452273309361149 5.0459557448209225 10.542832705994593
Al 6.336322535301838 1.2081437371169153 7.980231173316466
Al 7.065979188473358 7.513522941978976 10.216911153150187
Al 3.676394239887522 4.275501337857735 9.928474931388886
Al 3.735488019547784 2.254194068693589 8.168860518387433
Al 5.926213551301719 4.02463959599962 8.128961117557882
Al 8.392972752837903 5.636630666718562 8.503718369619346
Al 7.540100952455847 10.11701590987817 10.452748626744464
Al 8.03878619672077 2.922234246167696 6.7155119768185845
Al 4.131182560343854 6.827197013596868 10.065441544320711
Al 5.754926602347504 6.832641044077473 7.874793070976233
Al 9.261286913690142 8.41698383978922 8.916523859266107
Al 5.22561470761421 2.6944331830381487 5.837186801047733
Al 3.5346995269861097 4.820006289341992 7.173142724425596
Al 7.416525424238926 3.433864348592078 4.092727056665941
Al 8.015159963391435 7.493420220468325 6.5626769141387005
Al 3.015546124431365 7.45522906961195 7.6176588322790515
Al 9.389188505845112 5.014315313520264 5.79108462345978
Al 10.654794990161772 6.8615464286510806 7.23204595113307
Al 6.611816082433496 5.281791711512359 5.836503834883973
Al 3.736676238384673 4.387094479871369 4.401624758154776
Al 5.015901686431668 9.21888382764518 9.340627914683145
Al 5.7950739562229625 5.613251880334512 3.145788243265241
Al 1.878061564508879 6.1113940604390535 5.453906293121341
Al 4.583251429908336 6.821890828846758 5.408691129298948
Al 7.195616837699947 9.818392215112677 7.825314873140406
Al 8.811297544383383 5.498696439013802 3.039833184034334
Al 9.781960442504666 9.506475511839508 6.44524556789536
Al 10.234213480988997 7.361053534645591 4.637907159359437
Al 2.609046963737451 8.721182956518374 5.0578391341348485
Al 7.521606805759021 7.6285727190348 4.049924341919783
Al 3.1168518006513586 6.775895630140018 3.0135108317500636
Al 4.778369809688876 9.336268158455859 6.578298356992979
Al 7.000819077785078 7.302764130928183 1.4242232809619704
Al 9.554358651096631 8.012270440401934 2.089580175474783
Al 7.09872820392005 9.941207595780956 5.246681310215423
Al 5.01609925033248 8.830557027175 3.6550926808123463
Al 9.507911019832934 9.9742282466434 3.866594921163639
Al 7.151011099042218 9.873340746856195 2.4414443383191196
