48
Energy = -153.06658026 eV
Al 5.799283556378267 1.6880581388966285 5.598290854779119
Al 7.636042559789119 3.265028682658151 4.64168728132244
Al 9.658978214983362 4.159928613657603 3.0311528966105468
Al 5.121657288937108 3.185681467384503 3.5277470932832897
Al 4.6876517594567355 4.528292680177671 1.2236009426530619
Al 7.141183004001496 4.7561816046878365 2.380499895984154
Al 3.261594699537737 3.0713754262716666 5.531118326577185
Al 2.7087370628472094 4.599524792803125 3.2433526934920214
Al 9.097366843253376 6.801968182898196 3.140362122102571
Al 9.897890105242368 4.471131935067611 5.678974541925055
Al 5.0142679144856075 2.503835676493634 7.923220564698802
Al 7.647240114466614 3.729986287250835 7.487291855282212
Al 6.724661446770103 7.476332367370374 2.2314564051120227
Al 5.453907797033038 4.594440437357248 6.1563063838136
Al 4.0486178923284974 7.140542884840791 1.4832093192678417
Al 7.530272497351026 6.029545187061039 5.2299264010084165
Al 5.033534901608186 5.963955016444417 3.8209467971751394
Al 6.212055914117676 3.917774048553557 9.883821050032198
Al 10.341931180486943 3.7709304533900867 8.285533813102187
Al 11.71343982428213 5.995872543437884 7.078062208167448
Al 3.0887339855683993 4.350273660245203 7.95153444685947
Al 9.90827730735568 7.571199323602508 5.541515244119233
Al 2.959765463179424 5.811651963663378 5.775273378714389
Al 3.6459016325400526 2.9370006650778677 10.146769186267136
Al 10.92434901914368 6.100243489641951 9.696568577382243
Al 8.594975427959014 4.835193308168657 10.23794210597197
Al 8.978707788593242 6.067389946493997 7.707291963372539
Al 5.338121808089232 7.542860860030648 6.1761622196257955
Al 4.136682997153102 5.601861261812025 10.240426431043277
Al 7.410126121914587 8.835640609189436 4.6171393892997745
Al 2.396741341643671 7.325922507977883 3.605929845850222
Al 4.786510399084376 8.738234098958515 3.5977580596887826
Al 6.300857744329371 6.242303064852327 8.423170481454223
Al 3.4918286167670978 7.055541520333395 8.105039715695764
Al 2.8421852509695893 8.61827750957172 5.956445355275009
Al 10.492518336646196 8.33919933102139 8.09943386526457
Al 6.468964648120376 6.569576748780715 11.20390635793961
Al 7.5788742076737465 8.30628898788266 7.357683490972026
Al 8.613280488181648 7.569572165106344 9.999500360386598
Al 5.050969523779573 10.255670548378916 5.668108836711085
Al 3.903967955613674 8.302594334002755 10.660625423244804
Al 9.315300801135034 10.088314016669498 6.32022638043557
Al 4.120487289905032 9.622333267602638 8.179918803978975
Al 7.317296983967469 11.693198376912743 5.362784329868116
Al 6.34659543793452 8.957898525740084 9.780086430783712
Al 8.732539178042996 10.192793483846907 9.118773023708167
Al 6.419833236893426 10.945040144111653 7.900295343011224
Al 8.669434260174315 12.437681683336473 7.557271336401712
