43
Energy = -135.98620163 eV
Al 6.77706454289925 11.361485205498196 6.858442617963784
Al 4.438506661995259 10.507906856744823 5.674120302855254
Al 8.943461980273069 10.129079322283056 8.60469645974379
Al 6.4057623734336975 10.670254721265161 9.468300509930431
Al 8.933531186316614 10.142575176881145 5.769035637275158
Al 2.036276360326054 10.140674336547379 4.612850046361609
Al 6.636488982245936 9.321329564532224 4.653493031946877
Al 4.260994123021557 8.826643965393911 3.470384801363315
Al 11.131225815940537 8.763688348764537 4.747825089442242
Al 4.447031743785058 9.508751682653152 8.164159588566967
Al 8.849195795493323 8.283170911248286 3.4221836693575662
Al 7.6500481911049665 9.002229088977424 11.282881467282722
Al 7.013050322481852 8.636217443072319 7.3549718810104014
Al 2.427781391905853 8.476307089155833 6.728009813373607
Al 8.528249894242085 7.301632572699079 9.321375598753535
Al 4.903344698752465 7.560032843286646 5.837301656358512
Al 9.86609916954688 8.009087777964028 7.0797473953147865
Al 6.434515303827792 7.154284331042364 3.0188118655656786
Al 1.865887721953238 7.555153223427944 4.173921650417309
Al 5.78453071949515 7.792449193942407 9.671371168581443
Al 7.679821052630679 6.844856608507845 5.476712839432683
Al 3.710513385549605 6.744399263623151 8.308962437451891
Al 7.054052311215857 6.4023175671719335 11.579203944260787
Al 6.438927798503421 5.938025810540036 7.725506966475986
Al 10.258487943309257 6.188706126221665 5.047957396276591
Al 3.878392635747829 6.06609485714433 3.3306132403784097
Al 5.656541847093798 5.039701620739829 5.105652479047849
Al 2.7313755850026538 5.759401593781085 5.9496452870469945
Al 9.25775487164822 5.44896013590192 7.503519870650437
Al 8.162560515434514 4.50902664542378 4.011898227213
Al 5.156687696048736 4.992624839577437 9.964674428700837
Al 7.977117775495253 4.648463603362651 9.754709782052592
Al 4.296151848402248 4.133094605730347 7.434292868419001
Al 5.868983449976479 4.605790212122238 2.2939362858334316
Al 7.4474085429686205 3.662131301778573 6.529395549627378
Al 3.5146289112217786 3.4052209564235474 4.690956671937854
Al 10.181036397221062 3.585104254569616 5.748754158106042
Al 9.27540350551745 2.749803285497507 8.30822643207304
Al 6.181146642507446 2.7020839153424787 8.86559554322008
Al 8.506585627999083 1.7108779983245628 4.84809831356798
Al 5.299956000172562 1.9648068517440689 6.235614020456053
Al 6.225085561484427 2.4621863133664714 3.7557846820063725
Al 7.547728748447671 0.9327636103644437 7.255799956938988
