41
Energy = -128.90549854 eV
Al 10.060199657849685 4.17573850896177 7.724968018159859
Al 7.464140201308497 4.132822437363317 9.072898491627042
Al 8.869724531834676 6.39786869306111 8.701824985410092
Al 8.609700526334551 1.9774102231964892 7.836039666600283
Al 6.161142112835087 6.779463081839871 9.446745987957833
Al 9.704383052059464 6.304917282568029 6.113894841753704
Al 9.707044258036868 3.70240597926944 4.823922114648501
Al 9.21475905404276 8.833917845853575 7.6209666402846015
Al 5.014279995908341 4.334328440853658 10.132872541306673
Al 6.627056265904433 9.168155613241344 8.548175672346677
Al 5.922728543527013 2.341395027929042 7.508999602510999
Al 7.577805026184867 4.3697192401723735 6.35547018709229
Al 5.269390110827499 5.136539417265467 7.465103128514873
Al 7.890695784124012 1.660794337235739 5.361193886868689
Al 8.09160708250366 5.961591843104036 4.036309439010476
Al 8.717686695749647 8.499296916472337 4.916604611697941
Al 3.364848462122281 6.214631139436319 9.082909673641911
Al 7.575952354225155 10.602786859465137 6.402087776762519
Al 7.064170240085035 7.125673326633385 6.704206861116973
Al 7.734580316068623 10.592833309879696 3.599598754686444
Al 3.338752049907804 3.268353177818876 8.23709166922791
Al 3.7225829899560674 1.1199030703060555 6.598081412451623
Al 5.458804795426318 11.735231531682011 4.836905924193938
Al 4.287818141143664 3.55622934534949 5.5204739052042715
Al 4.8082365072343425 10.407729136147248 7.0769902972944365
Al 5.453181812804121 1.3784166994635774 4.409958670449993
Al 5.863827695160868 8.809311814564978 5.013478677233874
Al 7.113826790219997 8.143463590974012 2.667994683191237
Al 4.247299942334632 7.751322206652039 7.007342649739339
Al 6.94383718197242 3.60813000521869 3.762008073393809
Al 1.6557558164829331 2.888488335853812 6.118937981845029
Al 2.4737221413510326 5.4298266141203575 6.687065760031713
Al 5.05356577436165 10.103943699476707 2.738165416892342
Al 5.295409032851324 5.930607499069011 4.732159906531955
Al 2.7599360600455545 1.5417446295441515 3.999997156545981
Al 6.169750002399967 5.653242924627801 2.11844490610012
Al 3.3033786828056586 9.72225210497064 4.985915561979014
Al 2.2363945018767133 4.598312283923087 3.9977415624898556
Al 4.439520923466233 3.5060892516224973 2.782796490694231
Al 2.6196602609839243 7.1760148284730985 4.722625284423489
Al 4.328203828878518 7.585981710302503 2.764772673104619
