43
Energy = -135.90375489 eV
Al 8.95160113005888 10.392268937988648 4.593531475342578
Al 10.425849066285036 8.77330801098012 6.164282363975417
Al 10.847628974219242 6.189600464680216 5.156567742302424
Al 10.184131194212016 6.419444186351364 7.794444537319765
Al 9.647002453878217 8.87495069585302 8.962391679115358
Al 8.254830805376868 10.405710475948819 7.298661095679887
Al 6.86689763427061 11.923804007736203 5.542951649019322
Al 10.560350123849929 3.8562336006955373 6.68934742249817
Al 8.544471287215073 7.737319167267458 4.34418852130654
Al 8.29645848853871 5.412395929754769 5.938776869827222
Al 9.344604138465446 3.618624409805813 4.194408456106261
Al 6.467283248260861 9.224154091362447 5.419569333493283
Al 6.084346339476487 8.061624423008027 3.0910524052378765
Al 7.824079106361214 7.703447406140248 7.119386789458054
Al 8.205481125165118 6.8132113077723 9.822545578777873
Al 8.99547492404642 4.3638177522697426 9.062190178348303
Al 7.37022801140986 5.657384028569403 3.089265074068475
Al 5.530887320213498 10.69411291111517 7.644992416899903
Al 6.83456753158062 9.124782526149339 9.351347620817368
Al 4.314409445920715 10.981521800880257 5.245147288661257
Al 9.665613781443962 1.8782871144034037 8.596252101637054
Al 6.523331751301215 5.362164036472833 8.028709030407969
Al 2.905829913465937 9.878108459106281 7.265009041709675
Al 8.031414544489472 2.797532307636901 6.750884857840108
Al 6.8172655004663305 4.737857815332788 10.901348985128285
Al 7.741763603197531 3.2067962668092442 2.0799030971707286
Al 3.8861949148919432 8.248688169293938 4.975499717794859
Al 5.007623131547952 7.835823808335345 7.480179766060172
Al 5.771485075626502 6.195166412558736 5.33615731610065
Al 6.9736214148871145 2.4610096034869238 9.268042350807503
Al 5.454861527162776 6.9680585018746575 10.194616415344946
Al 6.651489645202692 3.4439486195652607 4.672679214904861
Al 4.193111734859565 6.331916076268947 2.986579672226022
Al 4.121730205352671 9.3194655993277 9.633320332106992
Al 4.390473916257552 4.358876897406331 9.53219941304356
Al 5.199443620435071 3.873328210843974 2.4636931820152634
Al 5.277052333953333 3.051796505183724 7.153518043290455
Al 1.958825894633586 7.451807778911804 6.9743729729390695
Al 2.274715595806235 5.898930132312867 4.82969900794585
Al 3.818285316704694 5.36804520681233 7.095840785410996
Al 2.896769254707582 6.667862290578252 9.323085997958197
Al 4.029100633632529 3.859657520227462 4.931058065465312
Al 2.5063084081745743 4.224050599926268 2.6491962014401547
