41
Energy = -129.73191545 eV
Al 4.196454120071156 9.611427303396177 4.320154715623701
Al 2.981841739970656 5.3097704105766015 3.3746113328733918
Al 3.6022248352533595 2.837142714474156 2.3826454461883055
Al 5.0352889243414545 7.119127447873959 3.455037456850156
Al 2.435539998176507 7.703892753421641 4.450599567196218
Al 5.661333788068025 4.683807162817697 2.430400126298152
Al 7.674574010959324 6.461919324085233 2.7549993582160814
Al 6.736258830873781 9.070031370820631 3.8401527550438814
Al 9.287632876136012 8.389741142104025 3.511856734853998
Al 5.697557016382863 10.246694494331404 6.40796745257331
Al 2.981030675159716 3.0822085990214183 5.040569446032207
Al 4.694845455544336 7.569779431443914 6.131342230022146
Al 2.34661797570756 5.438021103995485 6.097093534543831
Al 1.9867913520820353 7.903332615250162 7.122259524042035
Al 7.747286582481024 4.0991670559080715 4.173826437731765
Al 5.119348144871053 4.931181287915815 5.1647627554907345
Al 5.628100370413552 2.3175198049893684 4.038180819386017
Al 9.862900326633236 5.818444512344298 4.522689187543041
Al 7.366150092004449 6.813420269747847 5.416588881620394
Al 8.356603376457558 9.439613947065107 5.917345977356595
Al 10.928473674416264 8.343664186035909 5.52731304875829
Al 6.932215053576807 8.199753879257116 7.880695525984586
Al 8.774424879086457 4.432529859503651 6.586602298032571
Al 7.678306934849168 10.907653003548306 8.207013737332833
Al 10.038394956568178 9.597776059383948 8.058705116041736
Al 9.433032082534694 6.917769084058558 7.261351438583787
Al 4.171791019445323 8.961953666840259 8.367933861797129
Al 6.558595998718862 2.8781477510964253 6.489202299535124
Al 6.212426952021911 5.533494188922496 7.553083909141112
Al 5.954927952759892 10.02767607598205 10.03402463760166
Al 3.60167625872719 6.194561491772463 8.397169869512275
Al 12.111522837844312 7.917551890394522 7.8126083706407385
Al 10.083308757113782 4.703450541705496 8.940728381953374
Al 8.336007275535465 8.847077884453356 10.234036806456723
Al 4.0533780021981185 3.6479872229217385 7.4468525178386304
Al 10.477605181562485 7.246737725759159 9.802210854999537
Al 5.538183716167845 7.226050732111302 10.11968474695264
Al 7.692558107071292 3.5321856037827875 8.944811777223038
Al 7.9031855338024855 6.153106004228322 9.592668667117538
Al 5.1773850443182265 4.542344484092298 9.8599249792113
Al 5.546045049432644 1.9441116719067093 8.93211917513896
