47
Energy = -148.90188434 eV
Al 4.5161067929690475 10.883394639537277 5.855058927480487
Al 9.959358918658268 2.9924010792702473 6.64133361967271
Al 8.948382595546827 4.545649829699964 4.450445982344748
Al 7.6033240429830675 4.141236966621393 6.8739798971251815
Al 6.0963359332134575 4.670312628796446 4.800818743359127
Al 6.646652428973628 12.411209451167833 5.903705963340535
Al 6.470660625875172 5.372255817811178 8.97806993659365
Al 2.996899252135496 7.950442540794604 2.7108048527685775
Al 1.8293114240665562 4.96321715800185 9.078258405982188
Al 7.98636553794691 1.2876446573027582 7.318744268118494
Al 7.335358898352571 8.63682798808004 2.8344676786242786
Al 6.99150743552948 6.753396001166562 6.6009345645057325
Al 7.375168952685226 3.3444864644294494 2.4451309225655873
Al 9.063138430131136 4.057553245705015 9.125385890574977
Al 1.3094548237556227 4.797196212300586 6.38146827004579
Al 6.197534543916173 10.339031828239055 7.917737599779935
Al 8.655070169953373 10.976327059623209 6.84781371175474
Al 4.718569229450856 8.173455700558872 7.0775029388408
Al 6.724566285527314 2.6130411303045835 9.346289564690654
Al 4.330867567469572 3.7960577104291957 9.341690939059816
Al 9.425387061269904 9.879526530173953 4.334659421111597
Al 9.872959186771398 5.759649573802532 6.731173106439139
Al 2.8782583126114796 8.961653435381804 5.212507687767384
Al 6.856849193155815 9.315631662108805 5.461001150077334
Al 5.32460276903194 2.170509867767335 3.778226991590121
Al 5.447606709414076 0.35158785494094585 8.090434964097883
Al 5.395022815153689 2.771707500182011 6.716751859261165
Al 4.372048296844887 5.231769300344936 2.774598215337752
Al 4.148602196398482 5.298128965624807 7.0062552768781154
Al 6.3056855127368925 8.03604463781998 9.272872305292225
Al 3.657999246559047 0.9532758440174292 5.7026634201949395
Al 4.027885345455868 6.591278829159898 9.399405213415193
Al 7.184096528545727 5.972165779995666 2.5599277156523614
Al 3.3913547045920347 3.671953119440194 4.882269764783998
Al 8.600526442765547 9.553958992562881 9.202047937903474
Al 7.191232528908814 11.310562947549883 3.4912599518532414
Al 8.900876989386427 7.179451917188692 4.480892575758025
Al 5.312170554071649 7.499027105153059 1.302415118845402
Al 9.228822082342571 8.394464709667306 6.791031876895786
Al 5.313359011417693 7.2727131307175314 4.4133470972743725
Al 4.914640583635557 9.750421769528892 3.264525905450859
Al 2.70328589854991 2.7918387544952514 7.4935907260507255
Al 2.7058101691204457 6.279934136515366 4.7625085655631665
Al 6.2417506496145485 0.16813481003752084 5.497470692981797
Al 8.015629099122313 2.104421630957673 4.7237691940166915
Al 8.78444291720735 6.885003326278884 8.984558028586058
Al 2.221270044768059 7.231704324822007 7.338462828514345
