46
Energy = -146.1158338 eV
Al 7.364617488941572 1.715825856713148 6.409720082079998
Al 8.479835544000812 9.769614796070025 4.847321249982739
Al 9.893465298290613 2.5734396588772612 6.628314158604705
Al 3.217668951464104 10.317436055912156 3.764121818557971
Al 2.116920338519015 8.068847716451813 4.993177287807169
Al 5.56869408627577 1.7247272040243489 4.170947809779525
Al 6.307344696907629 5.832170638266303 4.384642910402987
Al 4.203323876379005 9.640980719850242 6.296470785840674
Al 2.740123543119666 7.948047924442497 2.1611857495969446
Al 5.021246519818917 9.448461248993697 1.7223570068379521
Al 6.000670145824534 6.492946148802007 10.59331974237713
Al 3.1476266120820107 5.714690872398853 3.6440328210575887
Al 5.20763457940536 6.544691546099148 1.8488021098432976
Al 8.096035869520316 7.087431071951864 8.042266169969944
Al 3.2683206140926053 3.6447813629064862 7.318737408401316
Al 1.805872175326486 5.635791995122892 6.181619499513499
Al 5.670321554093228 3.774951182918308 5.955473653101718
Al 5.982268377442464 10.382134361259187 4.349936620928278
Al 4.649264270000599 8.021146888628984 4.043990888483893
Al 3.7928169597404198 5.669624049636535 9.083216651822752
Al 4.39856890453679 6.197107436971368 6.2055127868202415
Al 9.973122807817106 8.696520220364778 6.745509592614074
Al 10.701069494445392 6.166965364830442 6.4610432010732275
Al 5.426663380927066 7.817909154959859 8.107279164256173
Al 3.8781532116692694 8.195910936109904 10.234150676617835
Al 10.541295742168941 7.086050390325119 9.251592972933883
Al 3.3190670699582228 3.2402335232405735 4.667082090497914
Al 6.290179547554671 5.0999731772437755 8.220916168620901
Al 8.434264432913881 5.171910088331987 10.234670047025215
Al 5.425224750987351 2.4704272016634126 8.39025299183134
Al 5.4458824309351765 3.9546440579042286 2.537101335300608
Al 2.6610954386428207 7.835051210648438 7.721042467533473
Al 9.084547905316091 9.592287260349963 9.082853224192585
Al 8.830421328901823 6.956937732671522 4.630838645739226
Al 10.044998058017542 4.508614697507105 4.4339877514853905
Al 7.726883048366242 3.334976016377373 3.9535736520727336
Al 6.898513575105001 10.156150632981499 7.334082073504045
Al 6.425466998863653 9.260497922788398 10.149564754577838
Al 7.841811959276818 5.586206406833957 2.2520809014797702
Al 7.196181831610355 8.243344685836677 2.82956699547943
Al 8.478229889033601 7.733611399865505 10.997231752001452
Al 6.152953842811537 3.7680280016374197 10.606880773761574
Al 6.644127415916481 8.006576216089329 5.791749076821014
Al 10.348788804515301 4.421042475713915 8.47417865458825
Al 8.222772338906266 4.740167547598173 6.45808120660827
Al 8.09040699552947 2.8944987911886084 8.807089133060103
