41
Energy = -129.92244905 eV
Al 11.41154121132138 6.079315037570662 6.636161519029584
Al 9.510459286084192 3.371487486906157 9.558674942784352
Al 9.95479120136939 5.994502260414168 8.917499439225326
Al 9.6447718420407 3.9225633043862826 6.998508008466906
Al 10.732430901281973 7.894824727896035 4.74291710673336
Al 9.294296158675461 7.827466185238037 7.025763804452974
Al 9.184007972821163 5.639212381129028 5.042577043331805
Al 7.338247415339421 2.4559923756831363 10.75280695128937
Al 7.686131346213298 5.216014536021371 10.137539531383824
Al 7.945458576093425 7.824677999046688 9.336139076524221
Al 6.973357091173579 3.057557581192971 8.086688785117724
Al 10.038770499819819 9.674187028985168 2.7739602862511266
Al 7.4371033701169935 5.737231357700445 7.311959647190118
Al 7.59050625780307 3.4183173622730125 5.3884572905438075
Al 8.804191374776002 7.290375499635785 2.802885535446638
Al 8.939343874784358 9.926103638012256 5.269571798570981
Al 7.189773841037508 9.458827914924843 7.17648336155481
Al 7.221769886395637 7.481995551492625 5.175930068660513
Al 7.397526999558466 5.083279972517827 3.0443973315545896
Al 5.288394633584443 4.029074093783613 10.394202454379696
Al 5.516895357756807 6.686206688287563 9.614425144009251
Al 5.834508298998033 2.8364293015811866 3.4337131161140233
Al 5.505884176627541 5.248866993084847 4.995804669165999
Al 5.197417660506907 7.452620289262399 6.989785962058998
Al 5.637267251772587 9.356724660280461 9.325077511533486
Al 7.220151852479476 9.660762746126453 3.120473629849759
Al 4.9620458787148936 2.7254282929184614 6.0016542791412615
Al 6.58033975653526 11.375292436156503 5.131431626389561
Al 4.8817110204186855 4.780099249425242 7.770797096421213
Al 3.1919579361206383 5.565308031175134 10.636412060897785
Al 4.789479448648774 5.02393426569448 2.069999470050596
Al 3.24438386766014 3.525414275206476 3.7818811369797993
Al 5.966282080897339 7.410426810802304 2.653594249334292
Al 5.038450335153951 9.009346369956353 4.718267572625226
Al 2.951377233720775 5.152311610252455 5.913372481116288
Al 2.82080179460161 6.518703447653689 8.212359154908086
Al 4.78630872259084 10.616940711534214 6.966001452941843
Al 3.4985551764710654 8.193531953411243 10.605568756052344
Al 3.570184341201082 6.710685289746792 3.807263617154701
Al 2.762370363756143 8.014228354664501 5.940072432859617
Al 2.9902292851329317 9.283207508024422 8.268396177960538
