42
Energy = -132.66033817 eV
Al 2.758066588072324 10.629981020245253 5.87055325634413
Al 3.6154920028362656 8.230782179577401 9.279256454529662
Al 1.8076433653113715 8.550187675792047 7.3156028784399245
Al 5.006545444026562 5.992813700938493 9.623665326641298
Al 6.741572434654721 4.791138908565757 11.30452128248393
Al 2.9653958870036496 6.077596565161174 7.770295002166749
Al 1.103261798269297 6.324135742980206 5.806942362610495
Al 4.009884106692252 3.640105792216204 8.142461160397279
Al 4.436404887508855 10.348605640435476 7.949608468286406
Al 4.251594918389447 10.068793269112652 3.7144185918391184
Al 7.225793637488011 10.761270577973074 8.244050818333735
Al 7.720685213861152 6.937623762273639 10.142399549940325
Al 2.0849816906099083 3.8885784899808065 6.239404953436906
Al 6.26918742994953 8.159876081720373 8.064574543377793
Al 4.2484978815387135 8.09841812553558 6.215749282694233
Al 2.257015032243131 8.248478246568654 4.29882090995266
Al 6.58296169548551 3.9552295077403863 8.710336977201244
Al 5.485133762771013 5.633516634402833 6.735901542303149
Al 3.53098645453772 5.754159929388544 4.835310758266457
Al 4.5295242452204185 3.1771539600870513 5.362308981116281
Al 8.89910220451779 8.65714826267552 8.59541533598747
Al 7.975836245325595 6.050542942890617 7.467037042946401
Al 6.099115236609868 10.08717194991517 5.834680146850816
Al 4.967583131405055 7.5082257823954635 3.4167971640092514
Al 5.798221496845728 1.6825983332642755 7.398965645525615
Al 8.582763627762562 2.1341923326232473 7.808091255811015
Al 8.691462697627195 9.665337988536152 6.144914851284102
Al 7.154807903380966 7.504153796161059 5.305771920948898
Al 8.972491298793571 4.370063434689085 9.658413047356019
Al 5.96593618900769 5.01460329291722 3.946362282863205
Al 10.485348343419446 6.420813816999945 8.815572895549304
Al 6.907392560845863 9.446435589951793 3.3405508773557537
Al 7.137829513720249 3.4767212231460394 5.914727605237513
Al 10.075633596288434 4.265102623827369 7.125784873805267
Al 9.358507693987354 8.687747967751873 3.805643411900886
Al 7.529899574773986 6.772524245434202 2.5861702776394018
Al 10.037423117253915 7.205826165689523 6.058068340309653
Al 8.57391485500443 5.244473612654243 4.647510919372714
Al 12.22126066594823 5.806242634796866 6.943837657253412
Al 9.502681408328161 2.6346558254190007 5.054179404374788
Al 10.237665600001735 6.41693019832871 2.9007721419305126
Al 11.257441738480857 4.7429893450348555 4.667496977124207
