40
Energy = -126.19884066 eV
Al 10.79009649980882 5.535328544958983 8.16793236184333
Al 9.413494661962833 3.5019167980212744 9.387243330621734
Al 10.071804582080128 5.585900871414033 5.589563870721149
Al 8.86970132437586 3.3798375504759477 6.8219691317849716
Al 9.801569460345274 7.5093836582843725 9.691241105148045
Al 9.34611790763507 5.982261347111688 3.0843214843013262
Al 7.462459337053092 3.13008473151698 11.378282503635837
Al 8.218765159761228 3.710587117825421 4.314453990908999
Al 9.263682684531567 7.739428067291835 6.984809383482155
Al 8.446124185953671 5.617976656469053 10.999055126071513
Al 8.903664728351107 8.24741132780296 4.394202900326054
Al 7.409364773106175 4.6314479420971715 1.817945294169589
Al 8.01324885181077 5.6708322226577845 8.246172494417841
Al 8.52121817026702 9.609129171221912 8.79301290600149
Al 6.78282820391388 3.1630166495333696 8.726093356105137
Al 7.41457605255174 5.976248206404554 5.6085763630262235
Al 6.16367048968976 3.280926509494806 6.173122058288548
Al 8.165542617262659 10.15645905470534 6.038209608621846
Al 6.916964832349435 7.641631246140896 9.88026647899285
Al 5.804540188275451 5.234378986666499 10.435747616820485
Al 7.387612652194105 11.931282316263081 7.983448451050749
Al 5.833470167879077 9.942819309190616 9.158091903961035
Al 4.133774779601324 3.242746356342183 8.276415237257972
Al 5.362893014118659 5.609974040591317 7.685383319763687
Al 6.522616731008142 8.128517435341527 7.134351011318359
Al 5.593187044038397 4.413155808256108 3.8671508398410483
Al 6.874701473068845 6.995683475663997 3.1403505804296135
Al 3.317955890282864 5.441410654636201 9.624563158052073
Al 5.459727479187488 10.70767552810123 6.5961094279492
Al 4.270414467542482 7.867291201908172 8.903156363771101
Al 3.586532067694202 4.154097385936147 5.7743227047045975
Al 4.877735160562655 6.678887675559068 5.214118533510112
Al 5.968611495210053 9.116633738023694 4.493336833238258
Al 4.976687032510012 5.8637311437183985 1.616046560602689
Al 2.668624555118815 6.3868201552007235 7.178104884739635
Al 3.608011067453373 8.83212158576416 6.277232742655352
Al 3.053571876188046 5.450618999799807 3.5336036311064456
Al 5.052654006851888 8.60694876562657 1.8312093136102177
Al 3.117286765780631 8.262420533861325 3.7573565909634694
Al 2.5641007679030916 7.07258043540065 1.4330297514648005
