41
Energy = -129.49365883 eV
Al 6.816257881018553 1.2217343903006959 8.10373296780321
Al 8.188473281912426 2.727647505824994 6.364325533450331
Al 5.2731126382466496 2.21791012590627 6.075520778102992
Al 6.3910209449329765 3.916860196071824 4.411017205250326
Al 3.659088656908606 3.16297466211166 4.104063169083808
Al 9.041640975495786 4.567424583431336 4.738150423921871
Al 7.785931372743577 3.6276200126369145 9.030263547328833
Al 4.782726950247771 5.045400866416211 2.6013331907153705
Al 9.399143499289274 5.203795680337484 7.342954943435712
Al 7.3794380529803245 5.961782572103078 3.1141244444388074
Al 5.0963304829650085 3.4009052587181183 8.465433610306826
Al 6.732192976538599 5.042325695230183 6.83663146675461
Al 5.850465944114149 6.784347625163894 0.9312078813459128
Al 4.05629616770585 4.668807422095813 6.314598308481223
Al 10.01774965113832 6.722314662026427 3.560072049589731
Al 11.122299002869136 6.5153871249999336 8.859081340624998
Al 10.952199449381366 7.495747681340072 6.194656802488021
Al 8.430846378847173 7.655485187718583 1.373031359921875
Al 5.4497700164045595 6.692662290278275 4.949706038768592
Al 2.7377928575499477 6.0274907025257525 4.3395778871656665
Al 3.2337263875266564 5.321562029234367 8.878609959958334
Al 3.617941653528915 7.626607905647951 2.2590962777482786
Al 8.789462929167039 5.870831041013525 10.117012918653348
Al 4.109205806971962 6.116204812023724 11.302943789531675
Al 8.171042006114634 7.163333487522515 5.567677036324289
Al 8.669190812276529 9.107734719650791 3.60682901914816
Al 6.141129115892583 8.57116555038357 2.8982767639993163
Al 5.984727708936892 5.773413047043106 9.343462162227134
Al 6.796454265137002 6.343970859403733 11.873084968158608
Al 3.2227005467757106 7.218119161715923 6.684701280288719
Al 9.353725171240205 9.73607403725379 6.009298256666704
Al 4.144482915288199 7.872271263773625 9.140055079502865
Al 6.245678218327985 7.642763236370436 7.416421625301422
Al 9.048581954331876 7.9807636558057995 8.133652445583675
Al 3.9071181580141325 9.02974257575738 4.523624154020873
Al 6.608000144673109 9.501042871680749 5.321117966084642
Al 5.037039839790051 8.684171526469314 11.566354754474883
Al 7.395402093413715 10.149246048714591 7.826710950288063
Al 7.140756404642114 8.259660907402203 9.946831182675258
Al 5.339992136885822 10.277457036340884 9.473069840604563
Al 4.491364498305202 9.7057399300868 7.01218656831107
