43
Energy = -136.33603694 eV
Al 10.960709737382125 8.185740765595584 5.74478654829737
Al 11.882133974652923 6.238492300047292 7.439595827760286
Al 11.310718188732503 10.760126385145135 6.847630048211949
Al 10.61505728601459 8.524193613402396 8.385634103339727
Al 10.700773028105404 3.824581318937037 7.568658434355814
Al 9.806828010419792 5.6994779437446015 5.70101168916728
Al 8.838422728019275 7.650064580855944 4.166530827573467
Al 9.577705034108027 10.312097378023504 4.765980061254056
Al 8.873541337659782 3.118274516413517 5.580717037450342
Al 8.174038527604697 7.7094064374637785 6.882615406963408
Al 8.745433063530887 10.424980501905134 7.460704828683679
Al 9.438209757968654 6.033379620031686 8.60271442114707
Al 8.310944090146553 8.3668288369894 9.628877121511277
Al 8.378569021915323 3.5560185591480584 8.970644531846615
Al 7.98861448569968 5.014122099436507 3.756880982844137
Al 7.377532658621089 5.080844247252211 6.820445548895941
Al 7.8641805625838 9.789559766774492 2.7479459223571694
Al 6.270814886854157 7.073256667583586 4.956815613541416
Al 7.125296941415689 7.106624894691041 2.249036448137138
Al 6.993354143722295 9.70193406439567 5.421573245620262
Al 6.242066662725488 3.093937220319679 4.8130095538474835
Al 6.964748441565577 2.0901592697405795 7.322849941638852
Al 4.5409745482723975 7.243984167638607 1.6855571649856798
Al 5.291248027975208 9.187683265036139 3.4198421494526334
Al 7.158405221849337 5.833593807442027 10.036252358555727
Al 6.308157482927634 9.593115894872534 8.096056051776902
Al 5.625247134486616 6.88605220403584 7.850796225767061
Al 5.6793168558103915 4.059895420357289 8.739629549021185
Al 4.4296135568822885 9.148634496693811 6.058567372584636
Al 4.370353101437882 2.4458201493182674 6.822251975004191
Al 3.5806478792831324 3.1917735101915357 4.342615892058732
Al 4.684776927439439 5.108880953735729 5.970894013856878
Al 5.237218204699123 5.1034271806463165 3.226791766156653
Al 5.874061564705825 8.32317979358841 10.650642182877705
Al 3.61679459399837 7.169266208480234 4.256819544007889
Al 4.46114174008027 6.055500316782205 10.220237829471904
Al 3.823532403623993 8.78187019988573 8.853455105638275
Al 3.1448337220398748 4.504677678152066 8.175425940586775
Al 2.977630787707634 7.068447732583881 6.881784159774563
Al 1.613139116179196 2.8995796135904612 6.468713177083473
Al 1.918014943864358 5.298901350313526 5.062959298109744
Al 2.0102461821765827 6.833889753033328 9.456994621749967
Al 0.8146120559094889 5.507383936521886 7.488714097831031
