45
Energy = -142.65840581 eV
Al 8.025693143982789 7.184830333031079 1.7846467294552415
Al 8.993605530808006 9.732612658898677 2.7984890585167954
Al 6.52454632106417 9.616616449116005 1.83321514306759
Al 8.928741582821111 5.26113723337768 3.4916849364125433
Al 10.052595349329817 7.5861703680434385 3.8862363194421192
Al 5.059097304810478 7.50042788083514 2.385308484340856
Al 6.282499072940241 5.227336340090805 2.959305277468899
Al 7.462034118914403 2.934249013801459 3.509262865392323
Al 10.093495299139452 3.0141706413808267 4.459734352603568
Al 3.2992310478028153 5.6241669794854765 3.0259002632216037
Al 11.187900471148424 5.449739901547809 5.291586846699765
Al 7.2395383773198425 7.922760975532478 4.274522216021141
Al 9.066942560023366 9.508533203115018 5.708673881073551
Al 7.11929579175245 10.831070040216556 4.397793655564944
Al 4.8613327546842235 9.415545573924943 4.329549399974095
Al 7.187001680639064 4.568951538991521 5.634568241611081
Al 2.6441574877938216 7.913090041683637 4.494953847366236
Al 8.80782218727437 6.559623899008543 6.15383118271279
Al 4.46683853644569 3.762372365235191 4.555297269901771
Al 5.07406921718364 6.568981644188447 5.072464613524332
Al 8.223720561640642 1.8604128308314947 5.94013543476494
Al 9.592942557526703 3.984834372062476 7.026855054295685
Al 11.207109075729058 8.153362920994935 6.364861694540602
Al 2.623571690029487 5.446627861312043 5.750364364920873
Al 4.048370597296312 8.586749615987538 6.76435270881638
Al 6.538923814898777 9.584211825628543 6.739965800319248
Al 10.896989446069023 6.170911030491792 8.060697451809126
Al 6.390142890835467 6.812042696841741 7.476659472914237
Al 1.5096713269958886 7.604426764822883 7.109707425120239
Al 7.35024466881649 3.0949021318358945 8.1966609431053
Al 5.531352726894129 1.980399305452937 6.216450558094408
Al 1.4173194712662065 5.016947023914789 8.112637099235808
Al 8.619171763899233 8.242045771735896 8.247824366254914
Al 4.956615997202376 4.538313457530832 7.171647266899949
Al 8.541729966590133 5.499343829969804 9.04511540114615
Al 3.7639864458181824 6.535563165352077 8.401395524920016
Al 2.6432483200939703 8.87524299586394 9.250621141181187
Al 5.405228496456129 8.916843498506498 9.12733827515893
Al 2.8512121575862226 2.9155208213949044 6.884326848912803
Al 1.8888452515517313 6.479641263326775 10.433565152291337
Al 4.895197944408812 2.2834584236817945 8.869115351382153
Al 7.200683339663399 7.339437434346398 10.508230659894677
Al 3.4219050291484074 4.258794526008158 9.858148711901112
Al 5.967734269185511 5.020382640397255 9.631476133748086
Al 4.521070785200956 6.875976859053823 11.034215618660063
