47
Energy = -149.78170095 eV
Al 1.2027740179856699 4.0024256988522815 8.717858836910203
Al 2.088850894753794 6.629389171131059 8.626549207137979
Al 3.7430001726400572 4.443646106881722 9.426603677478855
Al 1.823724044933361 7.815008606528778 6.1978198143610514
Al 4.440046574887942 7.16391825029733 9.786982931883156
Al 1.9385707566808805 5.103353949657451 6.310788814657996
Al 3.7585153891546277 8.89202928876454 7.791271114929731
Al 1.72548429719969 9.034902594214222 3.78225087124576
Al 3.2000234452256735 2.894913579673005 7.211944441788335
Al 6.230570192566094 4.604066766052442 10.07897356338151
Al 6.933173338630076 7.29145027411651 10.461480775731696
Al 2.362870280643951 6.207711000944297 3.8943119742886414
Al 2.9790478084840117 10.433834932154445 5.841113908168973
Al 4.4852006474333175 6.187886452656028 7.2383635676459965
Al 6.380631940756117 8.383912550801128 7.937861378923948
Al 5.719528376549463 3.71740413195985 7.5748866593461015
Al 8.912070025645274 5.326681851982192 10.358300620763291
Al 4.29432394260549 4.53380202137415 5.114839658012084
Al 4.151247925722728 8.016828046951723 4.909826565114208
Al 5.726855822648655 10.071131500667617 5.73987821387233
Al 9.247679528407712 7.698556336361879 11.717777315144982
Al 3.552301829387788 7.973642768991605 2.1129124414550997
Al 7.341543639349936 5.869836858921199 7.936042748969144
Al 4.06941457695218 10.47773808949166 3.3538479886755588
Al 6.066000684133514 8.646052126079567 3.0259802554714543
Al 5.034523569821274 1.9772309585225167 5.517927389683477
Al 6.42438235522915 6.632885412104205 5.487522909125987
Al 8.05134941111365 10.418510817791558 7.085035607982986
Al 8.513628471649103 9.243211708727687 9.474921346677
Al 5.103260323874107 5.992472390290649 2.9825168967739573
Al 10.547485204991517 7.425436962490097 9.38533341757345
Al 8.353088242186706 3.368776896903167 8.583265140829766
Al 7.559078181775133 2.4206148948120974 6.057731634010918
Al 8.963005714728093 7.754356210287312 7.048489108271507
Al 8.037210393641969 8.8786971452884 4.736178809252563
Al 6.639060181949863 4.017705337854428 3.934939416556615
Al 7.83186263717353 6.509272797479817 3.1582693086401465
Al 8.650809559383237 5.050258651252355 5.543597431152077
Al 10.845563275045524 9.872191968727016 8.249204594042716
Al 11.66168538759313 7.349664745444868 6.898271855982039
Al 10.461188564385822 9.644073837178437 5.5717055941956195
Al 10.200589910110388 7.2678876514891835 4.520516936316653
Al 10.11235614747099 5.112154220311053 3.033157894107299
Al 10.099855856497975 5.285979415762578 7.871787748118562
Al 10.168674927506075 2.8645272603984817 6.590601282336695
Al 9.168566652754555 2.786192158974897 3.974238755760938
Al 11.455063756094342 4.963514480756358 5.402058455604933
