49
Energy = -156.33486319 eV
Al 3.5739699592600185 1.9131937037074094 8.40925228451897
Al 6.3597963154669985 2.239301389082438 8.754139398974567
Al 3.0170963197884437 1.9964456358179492 5.650713817844269
Al 5.208728391071904 0.6024522227855595 6.697735840638907
Al 2.606800541385384 4.2664214710776625 7.434788380061989
Al 7.235623477641205 4.518154814415853 10.437343732879524
Al 4.63807404596052 4.284927718942235 9.22813653603456
Al 10.12055184888599 4.5411569573289885 10.624344139552196
Al 5.158256012487483 3.4161025404062 6.49701573269606
Al 8.946046943164797 3.029781606818395 8.632334741499005
Al 5.785004638668288 1.7605514941869442 4.302282996004512
Al 7.577981359463263 2.1388608519396177 6.318750661550442
Al 7.201398389797689 4.806399694734102 7.600659064475652
Al 5.020352908072277 6.0790619601257285 6.648450099244158
Al 3.5966638762702154 6.8139300808729955 8.993636062246205
Al 3.3443160178025213 4.7442094184785875 4.83954140674584
Al 8.949423383200033 6.555349234044709 9.332690800355378
Al 6.2924753406029525 6.841755807884556 9.27181409593128
Al 5.962738439827942 3.98396009594866 2.682560757857035
Al 10.811089810807813 5.053163168912086 7.952606303273621
Al 2.1657831153175326 6.654370796777754 6.443899539787005
Al 3.610234540587116 2.7078296872027168 3.0659923036547827
Al 7.296816755019546 5.000138490093244 4.912520605631573
Al 8.246934900889034 2.6931971404065926 3.6255864093849137
Al 9.522432211180636 3.8042139323779445 5.907345865580878
Al 4.885014254393678 5.859402749873824 11.371025568465106
Al 2.324756798090824 7.037821351167504 3.5766011377796736
Al 5.2889082940726535 6.367323868529882 3.8284189635436774
Al 1.2897974639794734 8.841182607681615 5.247714989097939
Al 3.399361987335103 5.126525527573997 2.050659217075669
Al 9.002052484253843 6.621897393248011 6.6103163983052236
Al 2.7509242136905443 9.099427715823868 7.682699707005476
Al 6.966223832091121 7.9448638748939135 5.505555068653097
Al 8.067396208251456 8.697788351719627 8.08641956907699
Al 5.428646465419648 8.745056276022543 7.693965511664322
Al 10.116230288325863 4.635059762386668 3.2712573046882247
Al 7.99583854383638 5.643311858366763 2.0876585773678173
Al 5.609103947300167 6.375183160082754 1.0478133657305528
Al 4.086120092193381 8.386899427560412 5.286813724129762
Al 11.275311201414754 5.843343424715872 5.393154133120739
Al 3.230699388634752 10.522285968192923 3.8911323676407576
Al 4.29531393823386 8.477344075803558 2.371930819964416
Al 1.953970580948075 11.274122892202312 6.225735924284398
Al 8.577607548789254 9.912278993212466 4.129189019400618
Al 4.622941166119473 10.915133187889799 6.3216727337644825
Al 7.0830112277139365 8.169389773374094 2.598639350681331
Al 7.287535503263247 10.60087021134209 6.387985745306126
Al 9.27284166840521 7.241470396447695 4.035647390968807
Al 5.896253757520757 10.167133359650856 3.9819987052191177
