49
Energy = -156.93815691 eV
Al 9.5587287586592 4.4192074171329345 6.591265437404794
Al 7.916305982496298 6.304332888059972 5.227796013657189
Al 7.4345212705225965 5.820368480325637 10.652147002526952
Al 1.832014509106354 6.349237132065264 4.3624461638001435
Al 8.674924134941305 8.107522665148421 9.685225065591396
Al 9.217792587731095 4.1259252021824375 9.410944190398562
Al 6.156774182572232 7.974770655630774 6.531659157822995
Al 6.444007065763555 3.724355634792901 9.050632468373019
Al 4.393510248168451 9.54599438426378 8.064413953314945
Al 10.765970290962233 6.628750744843281 5.557186027045415
Al 2.6480679583118665 4.558681411675652 8.62596900863897
Al 4.5202718577147625 2.700138699560072 7.445669519944076
Al 3.3826812866917195 7.786415693211678 6.10082658241938
Al 6.637762794423359 7.254406857739749 2.9534010493191145
Al 10.485563356739739 9.212062103433594 4.803380480907668
Al 3.329357528434217 4.471267728568938 3.2009177987843795
Al 6.78783942465488 4.240020405892497 3.606930937513864
Al 3.903845370966295 7.161327848011189 2.561205546028239
Al 7.665508813526631 6.047682626961206 7.893606172610715
Al 9.41872049401583 7.364717157914747 3.163402817912
Al 5.494673578469067 5.291829344592164 1.4175408672038876
Al 5.039311114959893 6.000562985492412 4.814683143860192
Al 3.121881305330476 7.302676675688535 8.966671974341939
Al 1.2596224089883676 6.29943342657357 7.097263088139846
Al 8.681245770998778 2.479266760829992 4.967815572453483
Al 8.994104527973894 8.359261766908459 6.887114350395899
Al 10.428012476962737 6.395284649445139 8.326673306645747
Al 7.118178706050324 9.90889099527429 8.384869088468356
Al 3.0424048523642817 4.533550859375272 5.9258600206530225
Al 1.7452538282615506 9.242561043851364 7.652875188509198
Al 7.773512049585673 9.246070261079938 4.60641056768151
Al 0.3630789276664672 8.365297708244581 5.5222940440834964
Al 5.822625076879295 7.672995876374227 9.319362440697521
Al 2.3440694974008887 9.050823488112215 3.787036523006885
Al 8.265826241814365 5.4862195439937445 1.5616049076333778
Al 4.634576626262463 5.479864244826223 10.394136840493116
Al 6.029591213451268 10.780160837901912 6.141104270275833
Al 8.432191477756321 2.157439777528336 7.670387066381356
Al 4.75883866217091 2.780283748416871 4.74842438792265
Al 9.786620248234522 4.718863560756589 3.8709421376129534
Al 5.043269084911795 9.003541203678934 4.242059966044295
Al 3.2941310768283025 10.649687736415444 5.7729975773067705
Al 4.93161537686101 5.67961931739048 7.545990415446122
Al 6.736661636959982 3.9877492544296254 6.298801879951049
Al 8.626489964121689 2.8497178635666 2.266193077533813
Al 4.088831854506052 2.8392077122512895 10.127386335800296
Al 5.033699817605184 2.6935117666995683 2.008999007943018
Al 6.751122020226604 1.1267094765030865 3.379480510610703
Al 6.5098827592490105 1.1472224756374172 6.131486148142832
