42
Energy = -133.01414246 eV
Al 3.4127815996977113 2.8705724879258496 5.217171633480345
Al 2.307618054751737 4.303260210306989 7.151564219104251
Al 1.5550393245282474 6.43723979848422 8.569487345188094
Al 2.9455346651632928 5.640862061467552 4.897008598512522
Al 4.270921094953274 7.004534774764319 2.915718153384881
Al 5.095466157751418 4.256267892008629 6.992958170702325
Al 3.6738580361940443 4.859934132329004 9.48600799888006
Al 6.080902565982125 2.400368868201097 5.20901483593989
Al 2.252921490596053 8.946107157878256 7.6031077519544334
Al 4.81475862572247 4.329596775759271 3.408285801947083
Al 7.167166166369931 3.261132843861392 2.918054890049656
Al 6.21890669041288 4.1205105945534015 9.494377933037446
Al 5.575140423692813 6.324647424164793 5.288006493336735
Al 3.519791374381551 8.31584042570513 5.216607469845802
Al 7.487591696462296 2.9145363017325927 7.446640347503196
Al 3.3641541347596107 7.452400006888933 10.325783763463503
Al 6.800993693605443 6.249685420644784 2.8433490601961253
Al 3.964986320598852 6.754267052006906 7.3823525084989
Al 5.83773366465199 7.056566017080165 9.280385215043006
Al 5.918486654561157 8.834214111770882 4.057679635827145
Al 7.736506425261777 4.565471553556742 5.272649733693736
Al 6.1874852439973385 8.396505630418941 6.857809368937066
Al 8.038167636298034 7.267340290628163 5.194654661562914
Al 9.194871868910377 4.9845600566935975 2.8063662367164834
Al 4.420923672474952 10.554952639382051 6.4094780544879875
Al 7.634496525367447 5.74478366050847 7.778851910750025
Al 6.877614451002178 11.052588208678912 5.476227789562069
Al 5.211032216368198 5.758168108812983 11.604576081150539
Al 9.14377555540977 7.668759844223297 2.4231820674649858
Al 9.849738239516235 4.263716518280511 7.307509214811039
Al 4.587698161442991 9.490910968014152 8.952956975408487
Al 7.768179913076091 6.036736494422211 10.740891606954122
Al 8.855788535178622 3.6389859653167105 9.76381355844646
Al 8.244799721440321 8.17816210130427 8.919644085900545
Al 11.538628483219403 6.399208220830668 2.795677424046378
Al 8.88016754226907 9.550980285047421 6.54683867256945
Al 6.929333272179522 10.55358657159571 8.287652980662166
Al 10.588280563394232 5.475169916724604 5.108791110825233
Al 10.171727943675885 6.070878129367659 9.530469650360681
Al 8.407988070529237 9.784710293083876 3.7670304101044536
Al 10.032104381045952 7.16741247615496 7.170864940543633
Al 10.599024778127838 8.226953344440801 4.743587274168542
