45
Energy = -142.90845366 eV
Al 4.008479882172935 2.435048431386444 6.205986466942583
Al 5.207276288794922 2.3099874823900253 3.813911550355809
Al 5.288533436888691 2.7311253484826823 8.490146270911538
Al 6.791069772352781 2.084509704550845 6.119861964500186
Al 3.524800889222706 4.555328775855806 4.692311644345171
Al 5.3133161585188455 4.654418601460486 2.49481507521408
Al 7.2611844827774945 4.177072802120124 4.3315827377774845
Al 4.638715732621728 6.506147361158183 0.8159015797877155
Al 3.3206760407089786 4.744152182459662 7.430493709471276
Al 3.1980171342274546 6.767418066489465 3.1145015684133583
Al 5.4964893323029616 6.420376129891425 4.665098847920814
Al 2.97196905428253 6.972718343378465 5.883615434556822
Al 6.304372894895153 2.9615155674815505 10.883930298292482
Al 7.584605362209372 6.462130621975003 2.7642514680038675
Al 7.426274459742668 8.060818380347941 5.076601885731649
Al 8.75619248805492 3.8805312101698672 6.543850791234821
Al 7.4638130691424385 4.6088559991062 9.038164540293765
Al 3.035604386388469 7.0971037705363775 8.675996295008462
Al 5.950684879030628 4.696375599883498 6.658851165175162
Al 3.867103045677257 9.027925058573354 4.413753019128341
Al 5.639873582855511 8.295187113262262 2.446375309727472
Al 3.9556507034134745 11.48398248644553 5.395659590556247
Al 8.05375259500406 2.019122755601325 8.579200445944993
Al 10.083383776703334 8.20921356148871 3.767196766614218
Al 8.113285335413114 6.4460375698398344 7.139486364565636
Al 5.524708207884704 7.4098094536678145 7.2690588212421305
Al 9.403072242183447 5.803771044308628 4.76150394631011
Al 6.091080531131367 10.545277989449199 3.9008350229232063
Al 4.803540078574333 7.521573823996815 10.829861224069688
Al 8.564676199892437 10.423186868184862 5.292745731757159
Al 2.9334780406907353 9.41802176362941 9.967332452327875
Al 4.8698600870813396 5.160010362758871 9.541723880280903
Al 10.060172660751249 3.8654175656660557 8.96214468220473
Al 11.968117516602677 6.7938291035307925 4.946310647687583
Al 3.5126463394519 9.443839172631652 7.217667701273226
Al 8.126104631923452 9.396852473649508 2.5726321594529593
Al 6.604921158779094 5.626738010749165 11.630195077222918
Al 5.579492892284603 9.53121739823902 9.114514505309018
Al 6.045669062937068 10.241677860678895 6.532763550129897
Al 10.232871295069671 8.331559883542534 6.4475524209671145
Al 8.063441190720999 9.208752012943286 7.835157649928252
Al 10.83478554285576 5.712248406788254 7.121354904820015
Al 9.868511272489393 7.6013902623643546 8.99148503045819
Al 9.19793637782173 5.738623114320678 10.786639834573128
Al 7.187828073298501 7.347138690393251 9.565014152415353
