47
Energy = -149.72380413 eV
Al 6.755643770432404 3.7948763361813693 2.063497555331402
Al 6.1472812336323495 6.2679980726213484 1.2678114634021056
Al 8.604773604267452 3.710758399365191 4.1048121945790434
Al 5.500734295409632 8.80602847036499 0.5007745556160944
Al 4.052243185670468 7.54017924982689 2.4666355908362854
Al 5.899501308924381 2.786162731415417 4.481220097323437
Al 10.52054845196377 3.6437562978913145 6.1903900552937285
Al 7.554816473405697 8.591867743134522 2.2206416221511036
Al 7.923095574271621 6.138659468074173 3.244728172539358
Al 5.08883411915045 5.256419621721687 3.5727356018168264
Al 2.643877903385856 6.307298476820361 4.36270264732058
Al 4.090261261572626 4.300281655377491 5.868348601316061
Al 3.6419596955332496 8.895408018677292 4.787758687102646
Al 7.945481771646803 2.7225285261859637 6.452139444750938
Al 5.375805278959669 9.91704543372006 3.0695352426660114
Al 9.373873267600782 8.429051899783751 4.097229511214701
Al 9.649779550527715 5.982732619224071 5.25341384295376
Al 3.7670028422795467 5.0475553703135585 8.645434573267297
Al 6.865230225405758 5.292863194542772 5.687253940076976
Al 1.8103697569079182 5.408400175265527 6.747418065731804
Al 6.046433771460677 3.9619445690564277 7.857937147271619
Al 6.098181349159115 7.661846613609561 4.573822953812692
Al 1.377458358271718 8.147013412180234 6.095667537537058
Al 8.679328476318918 5.212494767248277 7.784788019228794
Al 5.098962257874872 2.7106836474694305 9.986070006727983
Al 7.5131297279539195 10.1006647222325 5.025286853707141
Al 2.1518542028749494 7.450664497003667 8.58634734817654
Al 7.290882942659527 1.686081525553776 8.78289972970933
Al 8.139697479588301 7.764523921462262 6.655450569595102
Al 3.236327444048566 9.927372670385997 7.22332988235645
Al 4.175376611381884 7.013471771091703 6.666155693984458
Al 9.982657938348908 2.7724457040386143 8.658233106730405
Al 4.996022635870421 11.317332157536008 5.42916300741527
Al 11.415617394729768 5.866852951993031 7.439959699475078
Al 5.654238558803139 5.208772099235699 10.761524607398442
Al 6.288360098502497 6.596148681736035 8.461478199145569
Al 5.857913576873841 9.124281068690253 6.870581772616181
Al 10.845620990998743 8.303497722042021 6.3417987133245655
Al 7.859677053987969 3.940468454031373 10.079722626420011
Al 10.478910160332537 5.215706412655499 9.905724616154412
Al 3.5661012716515748 6.860018302736033 10.829019794287817
Al 4.638328400207401 8.742232705788249 9.155937814690956
Al 9.301100156217037 10.148102357168575 7.556350081369264
Al 9.986459497286427 7.790751688410197 8.902339211890938
Al 6.073410686529023 7.877833977431872 11.281897494011282
Al 7.543558956586538 8.929668916675146 9.192432870956427
Al 8.211146153178651 6.547122644675398 10.529468899361975
