47
Energy = -149.71873752 eV
Al 4.888808760097023 3.0578480888422543 9.072559628542932
Al 5.994244397620935 2.6121809099003492 6.576505190926457
Al 3.3150161678856773 2.636817362674413 6.804102466332995
Al 8.60174670590915 3.2153770923176834 6.402268402263772
Al 10.202941168000446 2.563636485787958 8.469882026729527
Al 8.790719045677507 3.821079157648576 10.367371672368915
Al 6.370711656202861 4.69938174027164 11.147021986108802
Al 7.469183358942373 1.9196094472194456 8.723701257893522
Al 2.3567707803194784 4.451829598885498 8.524278412002165
Al 4.488305728977519 3.6643111810165134 4.604431938644067
Al 4.488211228246764 5.796234383186474 9.4694227018841
Al 7.159876415209211 3.6706471926162956 4.150267535340875
Al 4.907337226933813 5.278508882531778 6.791468802615083
Al 9.662808828747522 4.812473312839865 4.288340295069517
Al 2.355631554585371 5.078061844049964 5.794876509988542
Al 11.184100442442706 4.095729290171759 6.334448532869163
Al 5.948528703082242 7.386700619725206 11.100961208842254
Al 9.636684123014058 5.282438741659306 8.181457798378064
Al 7.692772910941719 5.807914404464559 6.098892337085953
Al 8.406991659722554 6.542737430574606 10.290976570459721
Al 6.9480182807718185 4.744183618838303 8.43185379129098
Al 2.885942851806366 7.026876753130192 7.65703491683878
Al 5.472208359069917 4.243502928881646 2.114634844678593
Al 8.852164491683123 7.81057979613622 7.844799990863441
Al 6.158358154788234 7.617097854277227 8.264429133326567
Al 3.0961035793560416 5.591417641967631 3.3092074735179735
Al 3.921344735822312 8.580395428054281 9.551911622490886
Al 8.13227719723407 5.643591340882632 2.2917532130661975
Al 5.490522411729354 10.015753528474065 11.322838060165603
Al 5.938831622611611 6.19873993706424 4.01123833039198
Al 10.666242627882111 6.783448991012124 6.074525856436446
Al 3.8594501646340365 7.433817529429723 5.159605389238095
Al 3.600048297401265 5.901546559739977 0.735430981382615
Al 7.812412873865779 9.170450827783975 10.058824695128529
Al 6.676772329943888 8.233692172318618 5.743579124487785
Al 4.369241191108916 9.328490536283349 6.882548876756991
Al 8.936850433468972 7.548893630081618 4.132893491842184
Al 6.110621510857906 6.651691645311431 0.9645941758363181
Al 5.669486854154441 10.665159280004342 8.738984719941662
Al 8.063462747147655 10.299557477999615 7.571275006268993
Al 4.183509825080178 8.000739446684234 2.5237335525953233
Al 6.929545959184529 8.45693803151238 2.670141935863744
Al 5.027427101309135 9.934174132402136 4.239491971357001
Al 9.994866476036787 9.448113856052037 5.885401349804449
Al 6.115963382561795 11.596365060289571 6.127740882825794
Al 7.8620193339367495 10.21051849715068 4.317441633888666
Al 8.931196807789178 12.097026795647578 5.807130169161585
