40
Energy = -125.33665066 eV
Al 4.363988776921011 5.032399866438436 10.050505807858917
Al 7.564290323481511 2.4174993462231087 5.846697745490034
Al 6.6543254680004 5.212669241179601 3.023577842834083
Al 8.758953815455962 6.762280742534997 6.9288467592332506
Al 5.536160260819527 5.4431737147467665 0.45631477790195807
Al 4.102365000992944 5.434920305359573 5.91625525362465
Al 9.398504843841724 5.404600991624854 2.6527901212377993
Al 8.355245366665786 4.107045502980992 7.717355436540723
Al 5.282032883476677 1.2183019193966824 6.607316814006349
Al 2.561651600774027 4.4038068747873504 8.122025004985924
Al 5.700497152202374 2.8896433902494696 1.770637041770407
Al 2.910393977679753 6.89728704010974 3.933949344337099
Al 3.3729845134574648 6.908764738078828 8.27568453146618
Al 1.966208868447028 4.350665196645022 4.401858487248002
Al 3.863953154459858 2.1355353508888126 8.908881660156998
Al 7.933871335622765 4.16616853052022 0.8153263870289101
Al 3.00466810024622 8.522937065186381 6.151784774638102
Al 3.1718812854854312 2.7063931101059824 6.134315980223019
Al 9.353653089379254 4.748637195665456 5.22404415984824
Al 7.639481808796492 8.512033091455285 8.858254953169675
Al 5.038603353260028 10.40107724408492 5.630930065568742
Al 3.8397226278039485 9.378118166702173 3.4765120219392105
Al 3.979946328551595 4.763137785053262 2.646294903117158
Al 6.580954685129657 6.295413089876075 11.150473190304666
Al 4.743535592834249 7.964690252033516 10.242976417297387
Al 6.210502285763134 6.271859152196926 8.287018141269556
Al 7.747094404490088 7.205636589599948 1.3136091065699511
Al 6.716991411405642 9.403525966455879 3.3901496787498995
Al 8.071792124690795 2.9047067434121376 3.287629709454276
Al 5.433299992075217 7.604366019333419 5.10923054028458
Al 8.132571481276822 7.222104703880527 4.256002656009427
Al 8.773152346273694 6.090582431797812 9.598618346680166
Al 5.508547702718532 3.7369813098554796 7.560228947973604
Al 7.444392741504383 9.118065590317105 6.169158425805766
Al 5.097650987230507 7.333680153214356 2.292649423184652
Al 1.484214620850773 6.2005531828199265 6.340171003761409
Al 5.318993603964432 3.1302962956833023 4.4411177779592395
Al 6.722092910103036 5.246020296918622 5.690776018674905
Al 5.164169703954239 8.876595845629486 7.770324876198853
Al 6.865317065925252 3.937241551632521 9.912247388909886
