44
Energy = -139.28775808 eV
Al 9.172916132668714 11.547362131418177 5.958506655672009
Al 10.543931567902654 9.235982093054119 5.497312506223837
Al 8.342137810618555 10.041371396810835 3.8743579877978176
Al 8.606458211009851 9.315720663976757 7.629335097317498
Al 11.233996028556838 8.563000963840233 8.01881183437544
Al 8.896989844807779 6.057312998202787 1.5342365027768823
Al 6.578973629721191 10.697451640019969 6.072629480647948
Al 7.781525480005037 8.617873211945264 10.233321029386216
Al 9.577309121322104 7.35649866606552 3.770400783998548
Al 7.206422761666447 8.13232990550182 2.452962077586335
Al 6.000574837926847 10.043099883395072 8.612346574563546
Al 4.541258485487251 8.82225416916449 6.734834562539189
Al 9.622344308086653 6.9206642579711835 6.468190655440845
Al 7.33653827136615 8.017294205165596 5.465508628066776
Al 6.213955867128848 5.826350122843899 1.2275575190585215
Al 5.465064460261233 9.45210497567973 11.262531454939799
Al 4.676872594866814 6.772952726592603 3.109875560242374
Al 4.036796264047472 8.225265955015688 9.308732244762492
Al 9.427316382176743 6.876184094864073 9.169603858929117
Al 6.662729113502823 7.4101477026665385 8.043897251973485
Al 7.239890447309211 5.78320604358462 3.849366530471387
Al 5.232212542106414 9.229464480267568 4.195789237569907
Al 9.678705457806563 4.52360258702853 7.7579865285796314
Al 9.641478436562139 4.775448591291817 4.727547453847326
Al 5.766037302735883 6.7848219065816835 10.787159687836125
Al 7.432560887621073 5.329196260204183 6.513429144681614
Al 2.8599238935864273 7.672997681984844 4.912557460135558
Al 7.715120168421564 3.6430883320720127 2.069885487450351
Al 5.12346802550178 6.40147679115857 5.785887313840757
Al 9.881656144852604 2.345941865610509 6.026971245731763
Al 7.341277549451117 4.919113335318724 9.372716871608919
Al 2.655142863946126 6.830769706411461 7.548409052324021
Al 7.4475725797508545 3.1277885254416247 4.737087182144981
Al 4.833001724146269 5.446645162081782 8.469880958720447
Al 5.251386994682508 4.043146003925485 3.2570088168067404
Al 3.0272903930113255 5.982228012158254 10.468499150180259
Al 5.269637639459528 4.211352922439011 11.114094109404766
Al 3.171417443311813 4.869340626425605 4.657462518888633
Al 7.547065259982004 2.6742410343482446 7.382486017981279
Al 5.170657165057409 3.709978063587902 6.170752379451165
Al 0.9216086017639545 5.740722485554795 5.8018534083914215
Al 2.690638291634065 4.11049976242469 7.35930376535135
Al 5.351767274640811 2.756426658785081 8.800060779842987
Al 2.9896362239595593 3.3205458815485183 9.952117116889312
