40
Energy = -126.36713081 eV
Al 7.5141158310769445 3.034709957722085 11.312813729629541
Al 8.861912811051539 3.833182340280267 9.147987283821625
Al 7.5725138859507455 5.721584009919836 10.555431491146402
Al 6.233234750516528 2.7365633598097907 8.907056068342333
Al 10.356384802863785 4.373982693528213 7.091563815425261
Al 5.228711382961743 4.337163598872969 10.985577186962812
Al 12.022567216082425 4.879471308433395 5.0425402369224885
Al 8.932098091053126 6.622457801577036 8.25980773087393
Al 7.90488325231314 3.187838577514597 6.676756489658726
Al 7.536504643841978 8.255683544569274 9.839218520129474
Al 10.864472833149769 7.0172930057288205 6.445089364465675
Al 6.481804560487129 5.414133954029343 8.024318889465789
Al 9.494092135184657 3.895580072380228 4.451389204286357
Al 8.456941151693748 9.681413416186427 7.6363382402233455
Al 5.090285527031056 6.847747133642473 10.180793355733147
Al 7.32309770154923 10.897613715821004 9.793136251552212
Al 5.119446023159028 3.3647115005478647 6.668845759099944
Al 8.142463808560395 5.901667177436234 5.747043953960962
Al 3.8940472454636414 4.766175752645592 8.754400206120755
Al 10.161839849658516 6.552042124750619 3.855460206492395
Al 6.8380331979694295 7.6610884233005665 3.8031329466692783
Al 5.134908401230516 9.31780018867724 9.243465185337062
Al 6.515309993274364 7.960130920682961 7.065450743925539
Al 8.932352500792051 8.499819965621128 5.268499903483532
Al 6.0851718047740375 11.330775992636292 7.520165665001779
Al 2.67608354113741 5.376819630707393 6.478767149601421
Al 8.074588591335772 5.423759877178898 2.6498090466458684
Al 3.991909639072459 7.327829098554775 7.773458237450352
Al 5.295585280143213 6.0080651127227656 5.598891912769221
Al 6.7298399113034675 10.018907775673897 5.283749081582052
Al 6.733964446209418 3.837917365010834 4.438887780085563
Al 3.840739611500408 3.874313591386317 4.448145014674128
Al 3.928176048397947 9.900474026850402 6.911274637777565
Al 6.656316342920278 7.01778794953429 1.0784138446274634
Al 2.843148699498953 6.289668000489875 3.9250783805560245
Al 4.474906865884274 8.496392856991664 4.726722936885262
Al 5.323499865641376 5.381007607106568 2.8021386530970256
Al 2.0135652377208153 8.13322484931671 5.971173103183009
Al 4.353733566159948 7.798233028507548 2.1127577103610116
Al 2.106832703714292 8.765052445983516 3.2645338343032013
