40
Energy = -125.20584254 eV
Al 5.3422725720336 7.196467573144642 10.225987463262431
Al 2.6200422318890464 6.472054024574972 9.732659840271284
Al 3.5637532334833866 8.841740954870495 8.794536149872659
Al 7.237210417415901 5.147463712466127 10.98664134040526
Al 8.116215887973258 7.532302762026704 10.057360994375294
Al 4.8110061553798165 4.657205340425455 9.6387337477408
Al 6.345943813451914 8.754421518349337 8.07414187642988
Al 2.0140223009057614 7.265703978123463 6.9935944495176985
Al 4.553776115990808 6.624835144528265 7.445029289320203
Al 6.997569766010174 3.227275123548487 9.052268078255366
Al 2.7544348793979556 4.419148966872153 7.935158506481684
Al 9.32533685781478 5.107593560262927 9.040710071495655
Al 6.1472814239659375 10.811774829952963 5.516893468716644
Al 8.642344748478912 10.145632440998806 6.212697679273001
Al 7.005324053732336 5.961190776424058 8.058800868862177
Al 4.240836548332244 9.153990255494291 6.260897500459416
Al 8.972869464287475 7.937289477514032 7.610084311825419
Al 4.378029385298105 2.133209967724541 8.62709143843376
Al 6.855933652523304 8.088345002385179 5.531768596703538
Al 5.504230793814535 4.275389081317603 6.604585161120614
Al 3.5098895226696163 2.4562536763181173 6.046654633863852
Al 3.081513537546596 5.211149872231941 5.418970771651224
Al 5.288020277724285 6.363558372818454 4.242010408270818
Al 7.905600613031908 9.994905123906454 3.5620581639061952
Al 2.8232788873490136 7.7200573779659845 4.384278790075572
Al 5.246842061474965 9.113514019264182 3.549862143159103
Al 9.46123325600882 7.971740760208749 4.729162255236411
Al 10.117038130070885 5.698734345510759 6.468379206852021
Al 3.1768179114877624 5.640923768883286 2.7204978236553305
Al 8.301961104409246 3.730592413055583 6.807233262834462
Al 6.3587190739557045 1.670965983234495 6.777168276120149
Al 4.554363830181367 3.574383471980071 3.8375392297111746
Al 7.42045377701484 7.3590449520394134 2.6685484156232397
Al 7.774588338314156 5.669005973336537 4.898805728938052
Al 4.749522206036077 7.546922007489625 1.5009392337390997
Al 5.714532797717507 5.1580280630918764 1.7209301804709207
Al 10.052170321489198 6.139746627592689 2.9541150793451068
Al 9.752785755789324 3.8645624704370958 4.5177347600520354
Al 7.191976089273636 2.8724318459115223 4.501738560846921
Al 8.157840631996198 4.50741011993338 2.3498629137022533
