42
Energy = -132.09651948 eV
Al 2.320193430134989 9.329375557679773 5.283526370202416
Al 1.9698906084050058 6.589347694062856 5.863256128389303
Al 2.1616055746180693 8.808785460246169 7.93315683712617
Al 3.6877232544637537 7.285223989419151 3.8120056153635344
Al 4.374075514601856 10.258455197343176 7.249095875405988
Al 4.993363435357553 9.437778555952677 4.619401364037051
Al 2.952717290883682 6.207579401366 8.484013221528675
Al 2.24362386481833 3.9801624849339534 6.969325481327613
Al 3.894486020286333 4.873423711935761 4.856315970622292
Al 4.3603069652131685 7.557177013718331 6.505081950281378
Al 4.640284220743075 8.241870167561174 9.14355264561743
Al 5.831593715458518 5.385740483479603 2.7442534744452134
Al 6.741741295766603 10.965957476316078 6.024483601941225
Al 5.620536140815119 8.093055788908725 2.0572735592695377
Al 4.134295538717479 2.3667867883661193 5.774828899889329
Al 7.2303845664569755 7.6115390674107095 10.250438045189666
Al 3.475399213087136 3.787207503855649 9.50669763440934
Al 4.640775511756689 1.6704944185588235 8.330458811919307
Al 5.198744050963197 4.442920312509339 7.31517556395169
Al 6.86591790520607 9.488637630164966 8.321238092520932
Al 6.321485971695789 6.395646706863114 5.139742431035601
Al 5.342658107521319 5.637293003939111 9.868118001886787
Al 6.667459508361556 6.77999106614949 7.716062364278868
Al 6.3136948621065345 3.5607032540176036 4.714504432747665
Al 7.387311351356544 9.721510457048463 3.4627907301610894
Al 9.121534660409079 10.606204022159408 7.632881360617705
Al 8.010787875697947 8.5116565827198 5.853641181117582
Al 8.084517580870072 7.083447897466002 3.251860648105949
Al 6.861531799309646 2.1285711965095686 6.9989294808710465
Al 9.274166828087424 11.003053555133521 4.966041438942116
Al 8.084271538295543 4.683712480161104 6.695389455829984
Al 9.230773065384708 7.69789603546368 8.182669484937504
Al 6.456974198167186 3.1662382342970004 9.547982605186235
Al 8.192653157047314 5.188698907349783 9.455412303761108
Al 8.715030991267666 4.652379469836218 4.000692535679468
Al 10.055656239013139 8.729906654085843 3.7981194370846123
Al 8.827884425662955 2.29472140036725 5.249275212759412
Al 9.98266015275915 6.501465260957479 5.584042474906343
Al 10.81080933716579 8.999151913298988 6.3593684528358425
Al 9.413440007042267 2.839422562206366 8.223171760465506
Al 10.499318704907381 5.339670340823175 8.169222597688973
Al 10.821955755859392 3.9019104165261536 5.910155496625593
