41
Energy = -129.56927995 eV
Al 10.954853335060113 4.73779196440989 7.454030049480069
Al 8.790730261840096 5.771056834476339 8.740483156789935
Al 11.05233677961594 7.3255890204628455 8.470895469159418
Al 9.442538027577681 7.802789643117447 10.498386340849839
Al 7.103031629251708 6.461750656889374 10.685151314283393
Al 10.171494749092357 2.7880671938830544 5.7573505499641815
Al 8.049534402916766 4.290985773373725 6.660989591785957
Al 6.536757986552008 4.380324277176651 8.888436463716436
Al 12.386830368089703 6.941355118489391 6.2412249032974065
Al 11.21078557113238 5.094649403633297 4.774586028666558
Al 7.7352824104416555 2.0338667346915673 5.123600424817094
Al 7.347311764045996 9.37428483295894 10.355943928708692
Al 4.757393539513929 5.254192514154421 10.755026700415494
Al 9.41795331218317 6.794867761182213 6.189038327069003
Al 5.759714394976528 2.4290003997843628 6.927381303190302
Al 6.484068353250665 7.067864862684853 7.971708252544639
Al 8.668490429208612 8.703211282362764 8.00578603528697
Al 3.9221417422847953 3.5044209689254546 8.836916208545375
Al 8.715206869074695 4.162880119387443 3.899154392117804
Al 5.006954389457947 8.132403132539965 10.088010155743616
Al 3.771894129111679 6.338818421177235 8.498155752191344
Al 9.60185039000053 6.708606855257366 3.4452614580947887
Al 7.127652457127673 6.280648310254706 4.951371397245765
Al 5.1829113733712795 5.065505802135099 6.542137555194384
Al 3.6956913836774996 2.933655295780642 5.3153464134653925
Al 6.178881775714202 9.889752229839962 8.08408408108099
Al 2.2639788569246777 4.540087260305425 6.939948139308397
Al 5.823604375045646 3.9666847391566207 4.026802714496814
Al 3.544452936427792 9.035832042659488 8.066087145643124
Al 7.298512311330111 5.578033700185293 2.209521111095719
Al 7.310056773610535 8.909337678037081 5.7146835223501204
Al 4.8442563294506025 7.710168314552382 5.906462569427939
Al 2.165368316314625 7.161294650021293 6.440485734378217
Al 7.54730466191318 8.232230316370146 3.01347166636291
Al 5.1219683992978 6.745275873655182 3.0484369291211286
Al 3.2861501088324854 5.516461949727195 4.535818486123116
Al 4.789746696137707 10.533884203552345 6.008877658373645
Al 2.0157066246172657 9.827473339836287 6.062858724490433
Al 5.34679486349314 9.470857358968788 3.566231054844815
Al 2.9473856648885977 8.13260090250763 3.951254108634767
Al 3.1487777949059206 10.89779479919534 3.8749607194035054
