47
Energy = -149.61084714 eV
Al 10.4881405388721 4.915275533569943 5.103910369398289
Al 10.130851482328287 6.280420226556214 2.4169415382835453
Al 6.22056228311998 10.155479464186334 3.9025593977656317
Al 8.402587627820894 8.438121260694016 2.9784425702431494
Al 8.380982387183245 11.242908780629108 2.7467821977029128
Al 9.549363316647465 3.6605650482250707 2.967356050919246
Al 7.997505825352256 3.3820520785645374 5.424955864625944
Al 7.001368330719062 3.2049657558748494 2.8110978812712673
Al 10.205087335550264 7.517093711357916 4.8478876362643195
Al 5.185165425600369 5.180720846475835 2.8764990835758333
Al 6.003767413545499 7.50281317512621 4.1067204468049745
Al 10.029222617581642 10.161977299946296 4.572879326485733
Al 7.8613723269955385 11.672599223216952 5.467261454055518
Al 8.341653279902276 5.876472284595063 6.5705117439175025
Al 5.207595517969407 2.6588632291751777 4.668623762194774
Al 8.542001620767806 7.929548704318035 8.33938961856223
Al 5.874663527623075 2.7312524391013335 7.27120816823082
Al 10.572654544244365 9.343287554949532 7.025127152757785
Al 3.5209752199099777 6.626346767892235 4.508916336621269
Al 5.777084614712203 10.62619143569696 6.723171031004229
Al 4.054988618337198 9.162655509828545 5.129447812859357
Al 7.901855696639796 8.82039519151435 5.746309575920819
Al 7.920299474959613 5.696258484201153 3.833136539604327
Al 1.9091756833052975 8.101870780884624 6.239116475347775
Al 8.358947934856516 10.60781734776098 7.863344727142194
Al 1.5608001898025567 5.299802762558832 5.773663822734513
Al 10.959585850400886 3.9168891575463642 7.544262316519337
Al 10.951570702855044 6.680803115145048 7.330075947003005
Al 2.9464808792200845 4.038362430218935 3.8675077831010753
Al 6.021270279899086 7.540179790642875 7.066868711872655
Al 7.294301864700151 7.0821613179202965 10.598385471840471
Al 3.7408047537885856 6.192600333288756 7.29904168319494
Al 0.028013035193890225 6.63213460985209 7.544948908712359
Al 3.8978828437902133 9.129112366112738 7.905686122822788
Al 6.340144605147407 9.267423506945608 9.214727302419933
Al 3.3855929556166924 3.4978873853701997 6.630426277298685
Al 6.577809458995838 5.277158220437878 8.653212103727563
Al 9.41547995223799 5.581438121676493 9.212432703890933
Al 5.768013661711046 5.173332594398773 5.68292710297945
Al 8.418070927405942 3.260855517326439 8.110738444695436
Al 1.7962958813304195 4.77352335873257 8.532454393733898
Al 4.627445108438448 7.0639828999042376 9.795583047457248
Al 2.126114896126026 7.539606102471269 9.060146432449633
Al 4.186813845688131 3.990332391570296 9.206583240789652
Al 5.541744854158036 5.0732495228110395 11.396482363289461
Al 6.4298629584687506 2.6733953479912245 9.860768435831927
Al 8.095481398042299 4.367270560298232 11.118934169636216
