45
Energy = -143.61291408 eV
Al 3.5214909235329053 4.3712724899499324 9.582662582880483
Al 5.977203214876942 4.987833214213152 10.42944174517971
Al 2.2780935832126255 6.176011431334659 8.001846890759943
Al 4.144394016565849 6.986187760467087 10.00805001558005
Al 6.669976245832177 7.6211064529260515 10.661259561695914
Al 3.0127636275135634 3.5302065831133445 6.980619103831595
Al 4.920694531353902 9.648690963981936 9.905679650099845
Al 2.9592393848886562 8.757004721373587 8.253530840114575
Al 1.929680905462282 8.428788399730848 5.571733839741468
Al 8.046617478575119 3.478737327356594 9.216134366559103
Al 5.466199975173645 2.7357715284736583 8.618311674691249
Al 2.0381574723711506 5.579389488277755 5.38879563974597
Al 5.156653519839784 5.4075641311696065 7.640715275662626
Al 7.766399076268384 6.255218351623868 8.229806101156907
Al 4.2998702949380725 10.247033418664564 6.490858495430952
Al 5.926708692383364 8.182682928020458 7.956543064930274
Al 7.626806584026073 9.88315016081579 9.533553181626715
Al 5.213685789058376 2.321850273992824 5.931324794172623
Al 6.840600356710362 10.933825028157798 7.185693918538023
Al 4.218302927597056 7.302917240445494 6.08558129149258
Al 8.56215563372684 5.674239617215067 10.776594734874514
Al 9.622920764671093 2.9975283914475384 6.992471370377067
Al 9.547662725904146 7.936605620781558 9.65860826544894
Al 7.826622921954356 1.804758084337897 5.404095806467175
Al 7.243144965510241 4.210047205389873 6.475699800973477
Al 3.7928380295450097 3.868057474442738 4.234622742423889
Al 8.631651940767082 8.862236205030637 7.216247232498302
Al 5.924608971755534 5.819683713473366 4.751220585682774
Al 8.440816658647673 10.533678551266993 5.032171988958199
Al 8.462409319430702 6.540415886687847 5.549050006574187
Al 3.3799994123924657 6.739936027768521 3.3884207278242746
Al 4.0798242279796355 9.304728833476911 3.965261968711545
Al 10.275229216341122 5.111941328802784 8.749679937357335
Al 6.538833254673282 8.498382421011613 5.29507614803878
Al 6.515395546389939 3.316518597064679 3.6066291795971375
Al 10.963556231446605 7.432762577283713 7.393774383011831
Al 9.15979224705828 3.926446148773446 4.2431559595370345
Al 6.505222578303809 10.200758412488932 3.2082383157764487
Al 7.852815057770124 5.695658686836433 2.6108267879139504
Al 5.19575950838687 5.122617993346736 2.165469134064009
Al 10.40678497217308 8.67903870193072 5.080106621471461
Al 5.920123504153037 7.6808473057683715 2.4721193540634196
Al 10.933230719680392 5.140652561045036 5.936217392234321
Al 10.340738169433902 6.365978570325806 3.590012048365486
Al 8.463143484652539 8.30005785284324 3.1309061367934348
