40
Energy = -125.24657231 eV
Al 9.52703282819646 4.949289173241343 2.8003921561892327
Al 7.044921147764906 5.9378352337600875 1.4552022905248831
Al 7.14975698424412 3.5746837460562824 2.9627446552857224
Al 9.271450361951503 7.626781052679086 2.5100395206076795
Al 8.621815970903423 3.967218509028687 5.169780211434083
Al 9.867928689803003 6.270817802671586 5.257924694786904
Al 7.0965234643489685 1.6099201316158667 4.966043695825112
Al 4.934743059169489 5.081186538961528 3.10547929491001
Al 7.353418195651971 6.3891463704793665 4.11455782372587
Al 4.702316285164545 2.3824359077324164 3.34905711144239
Al 9.508687387402984 4.992577113579336 7.911960689254206
Al 7.816244063646022 2.834593579059861 7.3462629998952504
Al 9.462021656295484 8.88961428089745 4.898496517972714
Al 7.195237403882134 9.226305928947484 3.2471721148684374
Al 5.733384339138116 3.8572492490502412 5.648429203224919
Al 4.252073888297226 1.5013512428988818 5.865980853235841
Al 5.362493948544662 2.3721606692295665 8.193275880595243
Al 7.253886946609301 5.823902588183882 6.7993462634620405
Al 9.31218753264651 7.817599049232255 7.466608129520178
Al 5.19419913503412 7.609836218472959 2.6615851140476257
Al 2.8586946323475786 7.087396827623992 4.114854006406267
Al 6.927587625777639 10.993877077997647 5.18979385394538
Al 6.844482486994284 8.499406399110711 6.460962768963593
Al 5.015363813626362 6.507615443547197 5.5375957232030055
Al 6.898731460367108 4.47347722717669 9.316894692257033
Al 7.5076407201057584 7.0437439534362305 9.26563878096512
Al 9.069045428631725 10.596753521017813 6.847061610700497
Al 4.807587658491189 9.281020718264834 4.777316889114631
Al 3.1278616535303363 4.20816277089139 4.792452041576736
Al 2.8592565051811 3.326976475866115 7.301678322867326
Al 4.715885126062963 5.639473879080354 8.105542187618267
Al 4.371674663210882 3.795060909152747 10.185571774996356
Al 7.726891885400167 9.644825348314136 8.929427796017764
Al 5.21950650151832 8.49043389531963 9.052412903063919
Al 5.122535157759839 10.577378748034644 7.195643569919777
Al 3.5435382623365292 8.392106235615334 6.92022906041
Al 5.371335467344595 6.274247358042231 10.74698845458396
Al 2.365833081566345 6.009741105400166 6.726709715106954
Al 1.991385085994241 4.801978302105674 9.286547718873154
Al 2.699647482412045 7.3580485139690515 9.189703216682261
