40
Energy = -126.08711951 eV
Al 10.151296368796908 5.9369721368537585 8.372151790887159
Al 8.861427605793745 3.8635509124060836 9.549221829629433
Al 11.19010458377803 7.807539278761277 6.783947099192282
Al 7.765542529488712 6.523011757597753 9.563047022171363
Al 9.013907962346536 8.535402305566706 8.259937736497129
Al 9.021712194551688 4.054402648614561 6.7957592721636395
Al 11.302077953985046 5.186294593804892 5.8287180279288675
Al 6.304676392362558 4.295747070556734 10.135588163820765
Al 6.9785675576788275 2.675849915987101 7.839121685861961
Al 6.400545962154471 5.368247696199824 7.540695959699251
Al 8.408969286982954 6.677311241994981 6.310400807608904
Al 5.108309657004533 6.710677796529932 10.042522287935146
Al 11.7700964442402 9.558089033119858 4.847892757612142
Al 6.990379548484703 3.6110955362488384 5.247676383425396
Al 6.3406855479057045 8.53291407029797 8.580341843538234
Al 10.535840913027487 10.652020903030149 7.086861301433234
Al 3.7093487200750115 4.542781417488442 10.917914699150778
Al 9.114360515933749 4.957508575235195 4.1359015834771125
Al 10.671111178017782 7.199305326858824 4.120454424198731
Al 4.300301460253208 3.440217602975143 8.508226890773447
Al 9.042469153329757 9.145877072849512 5.340607083744131
Al 4.857790082466881 2.137797084847854 6.239684529622894
Al 7.533315292227415 10.523563810602065 7.193280846633606
Al 6.953521792604607 4.796999359880428 2.663028237555826
Al 3.5663369000728253 8.71284219978373 9.125818542799792
Al 5.965120517877942 6.09775288946772 4.940482164633858
Al 2.914545494486328 5.871741396973235 8.663958673600499
Al 4.469942291885635 7.334936296362258 6.918586897164741
Al 8.01685680018208 7.3626831881853585 3.495024476348112
Al 3.9314647648284122 4.781908510658497 6.215618480105278
Al 6.454644360511063 8.748211244032742 5.222796600282386
Al 4.88366495603091 10.124129070850001 6.945976856670955
Al 4.729133872121249 3.538337509080583 3.8675499819671812
Al 4.5632257176288435 4.957143534898089 1.4605014078003484
Al 1.0933593174325318 7.757522981351467 8.145604055036237
Al 2.4096644618671337 9.398534822472932 6.52705840855998
Al 5.472677457938448 7.403107759870691 2.5987009002796655
Al 1.9490862769054134 6.747296680183978 5.786540930919636
Al 3.8652770517616806 8.518722870067418 4.481465211286416
Al 3.3972825764903885 5.920593418965135 3.7099756694951975
