48
Energy = -153.10901853 eV
Al 4.544401052051634 2.8569262355823106 8.642100921224081
Al 6.457982057762458 3.985140558284045 10.309272384055127
Al 3.8000165854815906 8.102201678381636 10.531194053266098
Al 4.2149952821838355 5.391121225861711 9.617188051742756
Al 9.592190641062654 4.03754877205231 9.559123845175789
Al 2.167811954537309 7.032575721150043 8.763973622562679
Al 6.03305254962578 6.734980340899813 11.138816859802468
Al 5.660687428791725 1.1823376504717338 6.855002321766099
Al 3.971703667644509 2.9684553134076532 5.785734503034993
Al 2.6472513931016692 4.539366540127967 7.572184961745697
Al 5.417836702061238 10.036303588563369 9.620052279694917
Al 7.438233579792236 3.026142020997928 7.949070888710346
Al 5.501000617488337 5.004407264169671 7.2114846576700415
Al 3.314330266864691 9.48932086684421 8.068798241786974
Al 8.398298181992855 5.535003300368962 11.502451059470577
Al 5.423497311604304 7.550942583291175 8.37604252158447
Al 1.0149768060814435 8.814567049537866 6.787899104049407
Al 7.637638833112715 5.966963878229793 8.886383416286142
Al 9.463520078473387 2.9851179373168 4.437557661592525
Al 9.976119707593497 7.220079074918322 10.117713642943407
Al 6.7982543221354845 3.045627989473849 5.295569485552097
Al 10.093480879749624 3.4720266125804082 7.015740337994245
Al 2.429781904229287 4.996329653390485 4.760952414631418
Al 0.6853465068182863 6.114188596259032 6.606112248236773
Al 3.3710593072635318 7.055676365663035 6.398923104791327
Al 10.49225255994604 6.093099658904265 7.78701521697995
Al 8.063731225829981 5.348152628796303 6.355916736330416
Al 1.185045392453401 7.539593073167743 4.37576819274833
Al 5.182402768266697 5.153963923025972 4.5352251188250365
Al 10.51419652561274 5.449484080276268 5.157821355039158
Al 7.6726360643496605 8.623062718573621 9.946349193656623
Al 7.792333122588584 5.011011125901773 3.6243544362581415
Al 6.033730852459085 7.42024041709346 5.778741505445922
Al 5.981692924024024 9.86608049515176 7.021960986438988
Al 3.8029044334818343 7.372993339960895 3.740902555952682
Al 3.1640524418449756 9.529401392788001 5.26604976217586
Al 8.407027396302693 8.026078143640387 7.415690863186224
Al 10.221836633236093 4.661738205964403 2.5117609843957696
Al 8.56656578185966 7.4621550156147975 4.611981319174563
Al 10.872030639180599 8.060525030364804 5.988752527924462
Al 6.285563493219291 7.157623867933682 2.964469416423192
Al 5.585145483526813 9.625714507500243 4.244229376482822
Al 8.276917862558577 9.999737655053796 5.630980402190413
Al 10.952183419986731 7.274330186820626 3.2871407822614485
Al 8.663581411195818 6.798078384301738 1.7110429749898628
Al 7.849997777731091 9.498015336367029 2.861185637696629
Al 10.431770437642383 9.907380043176747 4.0377750506484125
Al 10.0731389922837 9.10239520888229 1.4597482724912005
