45
Energy = -142.43994931 eV
Al 8.35430634710975 10.326168708178427 7.716567581189178
Al 10.71131259974107 9.204651471789054 7.187087994308556
Al 7.242242459104479 10.044360801059781 10.262067576172896
Al 10.905620568220256 7.327454679876615 5.250524259061126
Al 9.449889578199821 8.562556132093588 9.790103779340622
Al 8.548520759537224 8.559856508406538 5.600416970876439
Al 5.967549719922909 11.40243123528844 8.406293093125079
Al 9.748799590674368 6.766603978787202 7.666731885812268
Al 6.155707541552033 9.55439518020382 6.319859920770731
Al 7.25165061770368 7.807121715174487 8.263481960024315
Al 7.408411504695166 9.510323896874693 3.2473729139400844
Al 8.929197664044022 7.148090019604811 3.2592231089475656
Al 9.759871495417986 4.5303129729863 3.609745296777624
Al 8.579316412800555 6.019366593895094 10.044215526441196
Al 8.270373644856999 5.600416015163504 5.708867251730604
Al 4.899460655918878 8.971064285038462 9.218318541951724
Al 6.529662940638458 7.67552946086499 11.035612307156503
Al 10.896386023307064 4.771613601746546 5.9557938623517765
Al 3.6694897155040787 10.43766747884163 7.381557588523406
Al 9.597639870218282 4.125964893042316 8.108975229843699
Al 7.985334265696758 3.3186346873515293 9.955882133066766
Al 6.368187365431459 7.2883200772798835 4.6375240553840475
Al 4.8963016744422045 8.840321212729732 2.8550439758193935
Al 6.263081391912304 5.07795157373748 11.189649164814863
Al 6.702442058509118 7.256365837712786 1.6925545645594278
Al 6.576103050784272 5.141084393129029 8.291315975690514
Al 3.759388208337742 8.790822599360443 5.301224741414339
Al 5.062612826477681 7.042185142360364 7.006802772165333
Al 2.6698529314210715 7.88147494513399 7.946984362002866
Al 7.224700628663014 5.028061687127664 3.0120688914407783
Al 4.338947393028005 6.4647443249165955 9.670369596778553
Al 7.592615449664264 2.902137567725546 6.869228575080466
Al 4.441764865938474 5.7693945584323005 3.414265721461822
Al 5.789958696502468 4.649422837508621 5.527179840295198
Al 5.688897564300256 2.5257669841953674 8.616043638702076
Al 5.912207411963553 2.409622162395542 11.4152133688437
Al 3.9465762687133488 7.05375640249414 1.0832610853851945
Al 7.61136856746378 2.705425493070856 4.197997112436138
Al 3.981187055935759 3.9164739961115416 10.112993138701178
Al 2.4414048708217977 7.541424057152925 3.303716207445157
Al 5.452241183184175 4.84488117856934 1.030264939969477
Al 2.609197245174444 6.291272683459154 5.751160617998712
Al 3.878785980336232 4.555179540341596 7.543610682898367
Al 5.217393353329942 3.134386844729988 3.1234447825596336
Al 3.2685989203713186 3.7794985216268486 4.973942344309829
