48
Energy = -152.31662277 eV
Al 11.522363227528903 8.336766106450908 8.792696274269098
Al 10.69704919275906 8.131000031522891 5.746169898491728
Al 11.035604145905818 5.749137517953915 4.572791920378254
Al 11.197253400374219 6.080189971980205 7.4628789645781515
Al 9.546675757230727 9.793647322960084 9.951642054903168
Al 10.294029774579911 10.354041579653394 7.313110782367298
Al 9.653377133688043 6.760823062296234 10.212160498292546
Al 10.928850724064294 3.66572673667432 6.494078782156032
Al 9.934958172673438 3.1958618128772938 4.0275579698183925
Al 8.967613571029304 7.786334531582801 7.831827490639321
Al 9.092155005210158 7.914338259283393 3.733364373024326
Al 8.991095454820734 5.388785140287021 2.727150995380326
Al 8.962251034869595 4.847640340534627 8.345255198691994
Al 7.284597221949069 8.363014911351781 9.985609575670782
Al 8.642211590585061 10.363562871816171 5.052765340102846
Al 8.593651872994082 5.681797352548572 5.738393032927202
Al 7.654295609813263 10.326220237377038 7.802654432274369
Al 6.4335802557198125 3.923964779073792 8.190292567794293
Al 8.375395601676843 2.9154056757323588 6.422890780242381
Al 6.530719886945952 6.5771893884227035 7.907993213188129
Al 7.113163165492094 5.548100619190235 10.354193393350501
Al 7.165695784555813 3.746717915530869 4.050889412937761
Al 7.2406516978110265 8.154268464606634 5.912589323011383
Al 6.654892328643883 6.449470072972717 3.8852737404302022
Al 7.834815205048742 7.515497121706587 1.4067533393294631
Al 4.646843968971453 4.384425527920612 10.410221201958784
Al 5.499025245330607 5.008141912729379 5.910698093802422
Al 5.840413762664847 2.2029181436461127 6.056973087606845
Al 5.232203938188792 9.603398598179657 8.668118140486126
Al 6.584874551450188 4.875254904149683 1.4851295531632498
Al 4.069983962761318 2.797982590341762 8.112992547817969
Al 3.981309277382053 8.011857897501553 3.9553662759930224
Al 4.850004841849929 7.221825485161151 10.077556481790847
Al 5.779444284822785 10.439175535956927 5.818751913853324
Al 4.634807507175211 7.874568009556509 6.540689734920533
Al 3.838285573829815 5.615304720031071 8.079309138725847
Al 6.569085413701074 9.15484914963358 3.4892393280755343
Al 4.372839138571926 5.09607556202527 3.18681722577008
Al 5.1128360323498985 7.2863976590137876 1.6926658399438639
Al 3.335429625040764 10.351871679359189 6.923725557096941
Al 1.9804728596962922 3.79683046311188 9.627232238035859
Al 3.6343853986008656 3.162686061767071 4.829790473407682
Al 2.3476372017044693 6.341643159653018 10.40664376112384
Al 2.9584143242934546 5.889938690284042 5.37122221267854
Al 2.8101741493303893 8.343099828806132 8.654385047358087
Al 1.9711495924737081 8.344389969286473 5.861232500975686
Al 1.2193710092523822 6.351752457954453 7.672109606685789
Al 2.0189567864622284 3.9183767481766356 6.851934480877099
