48
Energy = -151.60263657 eV
Al 10.014501874310463 10.367369960162613 6.031086847966892
Al 9.925851779081976 8.535051188162647 8.020772602332872
Al 10.963571342849551 6.2384008170534875 7.315023290209823
Al 9.774067023048328 7.8064595845218685 5.382191356483322
Al 10.329118353005981 5.168627311782885 4.876218574173496
Al 8.483136627557032 9.494034103120358 3.7388291831511027
Al 7.9640205713532675 12.009398299430464 5.995304999857466
Al 8.243233964400558 11.011140730799575 8.644858231327708
Al 9.23805410875548 6.136988773360959 9.557462971252434
Al 9.444253707931596 4.156224968013188 7.440709446628243
Al 9.123339212468084 6.813317262107138 2.9270167526180586
Al 7.525059902785693 9.222092137122567 6.703278872130587
Al 7.809027433089061 8.45874676999162 9.650828973191286
Al 9.529057842397405 2.6667193661731843 5.181803735173471
Al 7.916535779887628 6.550398657466791 7.135711002270068
Al 7.486186407377951 4.682779718187472 5.175493387327357
Al 6.975583926234728 7.415496804872513 4.5928101717266
Al 8.824114371719677 3.93443552566374 2.81177930063528
Al 5.626433225434055 11.461725371500673 6.9122326531882505
Al 5.950531779035955 10.025957201587696 4.593942668206628
Al 7.036368729668436 4.652775642505491 8.838130239934065
Al 5.513157785485485 9.628279719548226 8.772026575033065
Al 5.594367794327836 7.022915975693553 9.627013419690606
Al 6.709431229528572 5.694492378307601 2.4764743640152957
Al 7.263650013434964 1.464906104732169 4.674274236540645
Al 4.567113513042102 7.19147762867222 2.1638725932745673
Al 4.802385813420953 5.765182327523575 4.603411826791855
Al 4.871114982781187 4.497111888698923 10.395707067132072
Al 7.449020688808541 2.470332764420705 7.156240394338821
Al 3.659005935923956 8.814009902321907 3.982913343660384
Al 3.4220098468533386 10.034596388932316 6.399722663447966
Al 5.479356820910729 0.6830471809839398 6.723458811484792
Al 2.8682919195681795 6.196043716147062 10.165756954703589
Al 5.158883096796833 7.901074341942537 6.478707423036233
Al 3.2601664265649575 8.200593837842552 8.444426611555514
Al 2.331200134743885 6.0461049568601775 3.45620116921385
Al 4.4766341370057585 5.569952257209287 7.5924857570149555
Al 5.207429723438664 3.332729395918791 5.675452191205594
Al 6.0783786883779065 3.1298596902040807 2.899915550301358
Al 5.075303489743659 2.7748562364772074 8.397242161441458
Al 4.645035758045145 0.9239072978990538 4.1866248877252605
Al 4.196441029669323 4.646866087933931 1.7984491664162159
Al 2.4009871055274323 7.452958685449507 5.800514190922256
Al 2.963544088243138 1.9468767254174244 6.453242196532394
Al 1.4788202913184616 6.130088102903431 7.826674896992754
Al 2.581866690997964 3.820554424611016 8.539310768331626
Al 2.504565113996998 4.6159141186146595 5.848704915703155
Al 3.172979008747195 3.1391101496048077 3.769275604809556
