45
Energy = -142.91195787 eV
Al 3.097051846683344 7.463888247477083 3.822421537048327
Al 2.4179101121537907 9.433093828767298 5.67294164718852
Al 2.2435084367488534 6.822800373919124 6.3705477834907525
Al 2.707073239727019 4.913491808229514 4.554138125743914
Al 4.537909213740528 4.861662950634646 2.593829327068629
Al 2.538869578409213 4.099011290368329 7.2124562568607296
Al 4.516392245141091 9.76312602284926 3.7077425243224003
Al 2.803443730467632 8.700148700146551 8.359828319480465
Al 5.39294175616434 7.441993898969973 2.351350463804317
Al 2.3717768488029174 6.122750187302454 8.999584560582797
Al 4.558347589267987 3.299922310054113 5.4199032056758325
Al 4.565129548181038 10.998475917711959 6.263890749667513
Al 5.170459158706764 3.0250193838161072 8.094143032289505
Al 4.764700789286961 8.212721270508307 6.390165352260172
Al 5.322998044877407 6.01263914621165 4.837125426257688
Al 4.649439225113279 5.7241091347067945 7.3541636951188885
Al 7.021900703006167 9.623150694012192 2.3395141485084756
Al 6.653194018664281 3.4321108854807787 3.608549103958451
Al 4.9061594382445675 10.303012068382529 8.854252816847929
Al 6.79749429507418 11.071178338112711 4.634769384990555
Al 6.854291132872095 8.345225232069787 4.727190270646946
Al 5.657993062752354 7.688662827267439 9.077764984089727
Al 4.553902130875796 5.0069768666187295 10.097208109339297
Al 6.583928198925813 1.7470402363374853 5.980486815084495
Al 6.992540881537974 9.79380466463314 7.126829189317145
Al 7.378599609579132 9.802361750620683 9.750739357652387
Al 9.256220765179874 8.327086612283686 3.330613392300858
Al 7.958375064235207 7.067363520445128 6.910171794225842
Al 7.9683050386889835 6.025745576005398 4.184710708985351
Al 6.914801561270794 5.333853742812643 8.69277678963617
Al 7.121378557655178 4.419692973485562 6.213374616975105
Al 6.6267821618372285 3.2964011158538162 10.528645784235183
Al 7.931950250010933 2.7271231371176485 8.270199051563234
Al 9.307783442192637 3.6957810841834897 3.5524103175275066
Al 6.855533802196549 5.889750865525931 11.464367587465084
Al 9.123925957469478 9.930369057570115 5.492194193306238
Al 8.474149326615496 7.3685579029736346 9.874937324568513
Al 9.536655459607044 9.105696971777109 8.033930628675543
Al 9.23162773048134 2.3807889546544567 5.9404865851752655
Al 10.545297551125815 7.609500711439556 5.862325371915789
Al 10.437992262028644 6.444798437457381 8.277627265646476
Al 10.640448795942755 6.010220680977808 3.580591485991558
Al 9.088073065694203 4.683702473726595 10.049940459822967
Al 9.912789478939793 5.0192140908359875 5.998946080092243
Al 10.55998387257199 3.506003034412599 8.090243353343348
