43
Energy = -135.80038253 eV
Al 8.905627180246839 10.122132771082931 7.633507822977432
Al 7.564015220173155 9.31860194152823 9.668988697274528
Al 8.975645804449623 7.398209503625441 8.174766946913815
Al 10.624510547233983 8.408061775616785 6.242339979131293
Al 10.014357754650526 5.332882999183562 6.82765168210225
Al 8.537486764506015 4.645898763604306 9.089315698927129
Al 6.087915404712861 10.965315054189652 7.855073883941175
Al 8.259085542361936 9.742984648774025 5.123613281201919
Al 6.835371766343156 6.701140682010301 9.674967745200425
Al 11.118942468283953 6.287243873555357 4.408726049110949
Al 9.957210994892716 8.52235544875957 3.4727085834681493
Al 6.5881336680862885 8.389891299205447 7.259143498111233
Al 4.925215081287232 9.005965057216404 9.850400417579394
Al 8.51816591095355 7.004233117344828 5.32106631128862
Al 8.199303587406357 3.320201318289584 6.670324659142701
Al 6.882742795490152 5.779419257140311 7.033867229509709
Al 7.247347611775345 2.0305246846361844 8.956780092374403
Al 9.334729974623798 4.20135776262878 4.346012803078359
Al 3.887586109431176 9.251521423836884 7.371169289705028
Al 5.595679808171741 9.91554888866394 5.192988334737236
Al 6.959435975936276 8.043612241081354 3.332955870829147
Al 8.839932144845491 6.177100001350258 2.6353593283085575
Al 4.961029014911004 7.264902503925358 5.369989018366185
Al 5.616362884725595 4.2938665463483465 8.989757581227133
Al 6.71673184763691 5.262038710511964 4.341689867631369
Al 4.419722127951746 6.73399531932658 8.454748885458255
Al 7.228814440868526 2.46606202731023 4.152719453705222
Al 6.569457660559491 1.1117588357566965 6.403383078024448
Al 4.470116726297228 8.908180997886106 2.9476580098964984
Al 2.7480353726837023 9.404106798102497 5.006579268126435
Al 5.480065148872569 3.6395185611105214 6.233173970205135
Al 4.5019988601349 1.8606239757131764 8.05631711583482
Al 4.822391195131478 6.188545742139099 2.7055022823057344
Al 2.4259846037175357 6.922438662173347 6.565181889937012
Al 4.262604995244755 1.3754590205770345 5.180314109424403
Al 3.563208714399838 4.97269786640352 5.060585049050801
Al 3.2501265735745495 4.44847134093656 7.718531162715453
Al 4.829857579360123 3.367728323674611 3.3161549341028738
Al 2.441590816619142 7.085800949687629 3.7550909675708217
Al 2.132625211573837 2.147603428591503 6.878354931833359
Al 2.4891705391979158 4.7543961125688385 2.5058123233355554
Al 1.0192441674235944 4.49696869021359 6.062937949776534
Al 2.202479378954858 2.7658131169598876 4.1831627590903135
