46
Energy = -146.49705194 eV
Al 9.502569816647515 4.032261149697529 3.2024283752351534
Al 8.059143576759526 6.214800404673625 2.0431673752817017
Al 9.559228615013684 6.505956902451251 4.312186220768236
Al 9.751280749426513 4.148163835760007 5.867939222537466
Al 7.4616412645098515 2.5132583374672963 2.344424224245628
Al 7.916232758081866 2.23969749044936 4.985950739435098
Al 8.277172448712799 2.339782614572943 7.593119732434188
Al 9.952591370541695 4.382649761694317 8.505233479926943
Al 9.648890480995409 6.667131074674687 6.985688887455487
Al 8.614464672298029 2.76611205779889 10.232664418577627
Al 9.523611765862954 8.891968463377978 5.518563587135972
Al 7.1065380347727425 4.856102056888554 4.344572718207462
Al 7.9284158107111375 8.616753768898548 3.183882370365824
Al 5.879945161874496 4.6256370959039455 1.790391325002978
Al 5.314091452954137 2.6882509907480334 3.9109584884128665
Al 7.425294519328928 4.968236377028972 7.26641812365413
Al 8.634134032155272 8.420109636186673 10.977031994932434
Al 5.776176108778417 2.83444522680761 6.56427435410434
Al 9.50305092966555 9.344103646270524 8.433895939043039
Al 7.1413776479329085 7.316527118000528 5.677141833596019
Al 9.596277514033408 11.258867290938928 6.606833599025476
Al 6.172790317857044 3.3234930603566077 9.198641411686188
Al 10.21644981243575 6.9290621503907035 9.568180118136617
Al 7.814744578835131 5.3790644122941496 10.106993830180281
Al 7.36221240974173 7.573088247223452 8.464422238974185
Al 7.74716133400102 10.861949331739405 4.602760519119325
Al 3.2731094904251847 3.1565522551768668 5.5370725302180235
Al 5.6528146670730814 6.9886462716555 3.1878806591056996
Al 4.907487505454477 5.475795582070515 5.9662522436275545
Al 6.207482903012727 7.332123006163838 11.115710156040366
Al 7.189601911233119 10.046503612198626 7.068873031321747
Al 5.216441751813114 5.971437596504651 8.94697505807566
Al 3.8404634513410816 5.0193403162287895 3.415616992226601
Al 3.7924752200496434 3.8536042773010633 8.162836777932508
Al 5.550671945586287 9.264900423735783 4.555614753505461
Al 4.9631693620451305 8.236986903975472 7.075886011912012
Al 1.3091319696396302 4.053964562146977 7.276379429922324
Al 6.834819405636579 9.94492689428619 9.763310894664718
Al 4.356901972171544 8.596261778194451 9.830909918633957
Al 5.420333835037353 11.74539501115366 5.638535349346832
Al 1.9209166078333004 5.499788634062653 5.153296339231166
Al 3.4315736771533962 7.594712281770115 4.752183171781483
Al 2.832603910498166 6.489085935874525 7.540747429108047
Al 4.799120184875693 10.850446118769964 8.138271511534892
Al 3.23113592606636 10.1161447799945 5.656165334436929
Al 2.55113807775776 9.232792215070887 8.096598238530206
