44
Energy = -138.22470107 eV
Al 6.401718194756902 8.410378564414817 6.401718194756902
Al 6.401718194756902 12.076753319999915 6.401718194756902
Al 8.430487120359581 8.430487120359581 8.430487120359581
Al 6.401718194756902 10.343219198554994 8.438916095224535
Al 6.401718194756902 6.401718194756902 8.410378564414817
Al 6.401718194756902 4.393057825098988 6.401718194756902
Al 6.401718194756902 6.401718194756902 4.393057825098988
Al 8.410378564414817 6.401718194756902 6.401718194756902
Al 4.393057825098988 6.401718194756902 6.401718194756902
Al 6.401718194756902 6.401718194756902 12.076753319999915
Al 6.401718194756902 0.7266830695137186 6.401718194756902
Al 6.401718194756902 6.401718194756902 0.7266830695137186
Al 12.076753319999915 6.401718194756902 6.401718194756902
Al 0.7266830695137186 6.401718194756902 6.401718194756902
Al 8.430487120359581 4.372949269154224 8.430487120359581
Al 8.430487120359581 4.372949269154224 4.372949269154224
Al 8.430487120359581 8.430487120359581 4.372949269154224
Al 4.372949269154224 8.430487120359581 4.372949269154224
Al 4.372949269154224 8.430487120359581 8.430487120359581
Al 4.372949269154224 4.372949269154224 8.430487120359581
Al 4.372949269154224 4.372949269154224 4.372949269154224
Al 6.401718194756902 4.364520294289273 10.343219198554994
Al 6.401718194756902 2.4602171909588098 4.364520294289273
Al 6.401718194756902 8.438916095224535 2.4602171909588098
Al 8.438916095224535 6.401718194756902 10.343219198554994
Al 10.343219198554994 6.401718194756902 4.364520294289273
Al 4.364520294289273 6.401718194756902 2.4602171909588098
Al 2.4602171909588098 6.401718194756902 8.438916095224535
Al 8.438916095224535 2.4602171909588098 6.401718194756902
Al 10.343219198554994 8.438916095224535 6.401718194756902
Al 4.364520294289273 10.343219198554994 6.401718194756902
Al 2.4602171909588098 4.364520294289273 6.401718194756902
Al 8.438916095224535 6.401718194756902 2.4602171909588098
Al 10.343219198554994 6.401718194756902 8.438916095224535
Al 4.364520294289273 6.401718194756902 10.343219198554994
Al 2.4602171909588098 6.401718194756902 4.364520294289273
Al 8.438916095224535 10.343219198554994 6.401718194756902
Al 10.343219198554994 4.364520294289273 6.401718194756902
Al 4.364520294289273 2.4602171909588098 6.401718194756902
Al 2.4602171909588098 8.438916095224535 6.401718194756902
Al 6.401718194756902 8.438916095224535 10.343219198554994
Al 6.401718194756902 10.343219198554994 4.364520294289273
Al 6.401718194756902 4.364520294289273 2.4602171909588098
Al 6.401718194756902 2.4602171909588098 8.438916095224535
