46
Energy = -145.84875058 eV
Al 9.440359811701526 8.598566422163607 3.0825304960322923
Al 6.497346223908322 7.5545324569350685 3.4376630778769175
Al 9.017856525091753 6.054783922186755 2.8733349105125767
Al 7.051583036607464 5.070403574787718 1.3469824787313966
Al 4.733049315353513 5.833406504042717 2.326423607305826
Al 7.560257720124432 9.935921597039671 4.550383366627338
Al 8.643340409581345 3.208453212409539 2.594919033414296
Al 10.157574145315927 9.73218681302531 5.347975217392069
Al 4.966934484199489 9.999448680538375 4.4504402862340555
Al 11.012908127814457 6.940411207577624 4.813907666267131
Al 3.855157955583174 3.3300259385197695 3.323577096480171
Al 3.6393847695296753 7.860098547769929 3.711613561994682
Al 8.381581587334429 7.22847985185589 5.353215615109783
Al 6.172568183603126 2.0884630636298978 3.117182987690249
Al 2.2294590836859665 5.509809186829151 3.2394873706365654
Al 6.767196236590704 4.723078271080411 4.026761811297824
Al 5.3946526592490205 10.512112256795513 7.064064995378178
Al 9.54682425313726 4.35995220496865 4.866056648402588
Al 4.598409057796639 5.660173580475443 5.248110380311018
Al 8.03865464153182 9.758036962196307 7.159801639997639
Al 10.4153830365078 8.135951399156363 7.428887374634223
Al 7.784894523312566 2.1823020229493992 5.227600261981401
Al 3.161015597694229 9.063252514738764 6.164829877128517
Al 6.637528248084192 2.3609889936484407 7.91530571412938
Al 7.274238191757361 4.649488575208703 6.57722013735222
Al 8.948592042915761 8.908143847924862 9.622633828626865
Al 5.214478315710345 2.9101996295377224 5.60201752006159
Al 7.888592290908833 6.890888807716063 7.920006729461604
Al 6.243817389071235 8.763822038853892 9.006213497347515
Al 3.609893886298135 9.145960105409825 8.895297933515936
Al 5.8440319707379995 7.9409178128621685 6.181442865145807
Al 10.321958449042159 5.442332784165964 7.152232700836473
Al 3.928830144349204 6.607982277204352 7.781201969831058
Al 1.9464252032525506 6.613602779353298 5.588784544415628
Al 2.52579226480359 3.7895924906080984 5.604057023334717
Al 10.223819901896436 6.468762934063938 9.691222441842095
Al 9.459345246242796 2.8011196861288408 7.165972020635958
Al 1.3010953547814117 8.014684821548975 7.710377280097506
Al 4.022479776572835 3.4501426630855296 7.8611520087540585
Al 7.45117416128496 6.63549125093794 10.616190399851506
Al 5.9229580784478175 4.99077334398784 9.003454668313374
Al 4.754189700832566 7.067711326144881 10.465329458677404
Al 8.550044175789266 4.3899498866067095 9.072796885260676
Al 2.0004723444445918 7.123435104688663 10.105496493564612
Al 1.6402306318264501 5.085670291729482 7.8788040052012835
Al 3.3671192113139345 4.775536090213447 10.008690694734442
