43
Energy = -135.19787841 eV
Al 9.85404340897288 4.3999310127260856 4.386189426316522
Al 10.16838493021792 2.714038414615149 7.28043624200456
Al 7.993291813440528 3.206262953594474 2.9481885346292254
Al 11.396854200630052 4.939493247605961 6.463992263440592
Al 8.047535939019413 2.7034557982094594 5.566584088550936
Al 8.687666933533013 6.588373700433073 2.698808198568349
Al 5.102372742257337 2.6482257716835313 2.0465736776149
Al 6.352580457649534 5.059372586625101 2.0356812805812075
Al 6.38378152124001 1.28987299432954 3.994230517860658
Al 9.845069907154965 4.455303651586508 9.416511720383939
Al 9.669022583993529 6.96564474139905 5.2844297983025825
Al 7.209189931029359 5.677498077087419 4.7414970347138485
Al 7.589037799408755 2.6599283422964803 8.19494568740788
Al 8.60764771913888 5.053388549931879 7.0661868968820025
Al 5.619484059095656 1.8187792935789364 6.5478491357703055
Al 10.475237836578584 6.98507103624567 7.880029599583894
Al 5.430583960994943 3.810139491242149 4.490170661937772
Al 2.9253879637088955 3.5540979479178745 3.6055917966362068
Al 7.638856806498027 8.505637543198194 4.5512744582295825
Al 6.068184909247824 7.658021054204604 2.567419172018712
Al 4.00127618578922 5.955786075137407 2.99376006087107
Al 4.602895533664919 3.7924775024103416 9.230287306210391
Al 4.874746494308984 7.544921861253065 5.092073205497845
Al 5.430466420553385 9.98182525460618 3.5958064563681664
Al 2.6223383725615435 5.743606916977146 5.174972096005612
Al 3.489522801623382 3.4367571607976535 6.35149361154957
Al 6.809351123595216 7.300051732699166 6.923243242627812
Al 7.119328174207883 4.678144355421728 9.850721344362059
Al 2.823196584221137 8.40414021298346 3.5255004830351364
Al 8.841668605998011 9.1371977430842 7.116802822163062
Al 3.2699241184566596 5.744849069755552 7.843041585004958
Al 5.959919842864311 4.665077545671478 6.994443202532565
Al 6.3421981436604264 10.1194553723739 6.23317797538497
Al 8.237075590512724 7.052442656065573 9.210979120603584
Al 4.399279096211879 8.395557834199845 7.549674113845034
Al 3.567244629923789 10.102851290558403 5.526403125692081
Al 1.98030044309713 7.991914806715441 6.290828353799183
Al 5.367209251536472 6.6723481080453215 9.390293848461887
Al 6.710399770489156 9.258535660411924 8.958426180872943
Al 2.141416488674282 7.692126914744094 9.127871439049192
Al 4.821473301524559 11.116540080250015 8.129778924034895
Al 2.3108881727095003 10.172769938971038 8.020751569657298
Al 4.219939949011076 9.247332277165103 10.121889587527201
