48
Energy = -152.03784307 eV
Al 10.242250298795806 2.845489895447316 9.270793544700602
Al 9.72475230191252 4.7558223739458665 11.154387781749477
Al 10.616552394753887 5.668808445031537 8.745411779065355
Al 9.997708092314868 3.911080608488917 6.780092243203282
Al 7.68655971120202 2.7658759508203947 11.025027884650164
Al 8.77704730872556 1.458469669506922 7.327224626007012
Al 10.882668295026912 6.707270444597177 6.33761173490344
Al 8.028138170809141 4.399905458985446 8.877334708936166
Al 8.616246368249774 7.238961003111822 9.75371492983794
Al 7.105445288214787 5.491709051274107 11.314556268607799
Al 9.233889817718925 8.84752972230939 7.473980135058914
Al 6.511008912723319 1.980780601132689 8.595880549633938
Al 8.290082958060717 6.321475649881098 7.0002466645185715
Al 8.794987746699784 2.317410155042572 4.857415214927037
Al 9.197883952693859 5.165417874178488 4.599882688133369
Al 5.34548159489475 3.983464263584887 9.969449788347553
Al 8.49984935955137 10.357180975850591 5.336351336046104
Al 6.19421759160605 1.4914858712910128 5.834906344016737
Al 9.104640016123662 7.861427028016367 4.712945499356665
Al 7.182151514979988 3.951507851427861 6.342390760556996
Al 7.0039114581126904 9.366399021954946 9.208157891145737
Al 6.183900977749625 6.328861082588909 8.68889305745797
Al 6.527414708195504 8.538795584142893 6.616734222049945
Al 7.540064819655422 11.54590877201302 7.562590915092901
Al 6.737129399420364 8.840261030084614 3.863018843966262
Al 7.2162392579686525 3.803055119876257 3.3278911690340394
Al 4.651328823919603 3.4130574968641 7.376103467291122
Al 5.999473205149108 7.845755626069746 11.039221153475527
Al 6.532265252449591 6.242786208031678 4.78363320243347
Al 5.872097025074493 11.03915815223672 5.391529918573877
Al 4.491444747419677 6.435809943603752 6.432738192748396
Al 3.5356192737840657 5.580963898653012 8.813644938861293
Al 3.777411188829216 9.124027694373886 6.052906700644302
Al 4.8579530052286675 3.970485597067846 4.81997936225853
Al 4.935314832503969 10.673625395138835 7.887271188112976
Al 7.931418349555421 6.584221818791928 2.507957019760038
Al 4.39291001141845 8.229792031221423 8.752434093880797
Al 5.256555684697538 5.203446401852844 2.4054396633013426
Al 2.4745555762124565 4.563133040175981 6.404896686053207
Al 4.411683046127258 10.170684094062366 3.37478496663191
Al 4.078514166923829 7.435963389755393 3.7635404195296327
Al 5.654906932925063 7.933806515600819 1.587780170386778
Al 1.8742883868000284 9.477739712815474 4.098178728913213
Al 2.670282903147929 5.035672581719155 3.677689779847105
Al 2.0004392114554936 7.093524383899061 5.509011776408257
Al 3.419340044388924 6.390064569639684 0.9681912498107733
Al 2.9942013294164176 8.968175161282433 1.4860554922894278
Al 1.4161629117168244 7.144139280171052 2.796173598313676
