47
Energy = -149.77204914 eV
Al 1.342840153538112 6.925267185180171 6.355118025041501
Al 2.43410215148655 4.4798003604628 7.589802468724782
Al 2.9742698118915403 7.1079498458339145 8.408706468691772
Al 2.5473748157890457 5.098375192510526 4.8332074002334675
Al 3.764199602904816 7.358818234189806 10.942558416762314
Al 2.6168133136709226 9.415628101741278 6.825213527946471
Al 4.303162398524467 4.9995864092287565 9.426763394365372
Al 3.5404788849569977 7.628425637520455 4.957207985184731
Al 3.703667519471564 2.776195420527344 5.716918627933608
Al 4.7551855800523875 5.6060358055197765 6.644441646233952
Al 4.059180269272863 9.47707529522125 9.2247302106725
Al 6.399912388505992 3.3246756105496686 10.272936613432018
Al 3.6905652486443192 6.209790548071838 2.6749690189080773
Al 5.780370613072396 5.75819645378526 11.500314195557062
Al 5.012167118837474 4.178445560942472 3.853988755620442
Al 4.48422213230898 10.245054392811022 4.957284868430892
Al 6.240364782125485 8.849566856616699 11.201531614020451
Al 5.091355838095462 2.8683634533278632 7.984830289051407
Al 6.582159936488372 3.5977174375466228 5.850180232561307
Al 5.1901426621331765 8.45334842888812 6.860990308965128
Al 4.920970193066882 8.63460228680125 2.8766885870854946
Al 6.04672396457985 7.30512313350349 9.027899553618477
Al 4.703815549722043 7.319284791895452 0.42908551923001426
Al 7.896239400065938 2.39185267211902 7.9327353619376
Al 6.977037585209912 5.015837604276893 8.178336196206246
Al 6.2333828908752285 5.581033581749616 1.906504170821114
Al 6.206681483592584 6.747199654739905 4.66823058859739
Al 6.768382956254982 10.772793943538371 6.1388635478107805
Al 7.798681038896348 4.072518577234616 3.487972196386865
Al 8.92808555198247 4.231167369912939 10.014881211930664
Al 7.797327100042544 8.200551084549955 6.667871442737908
Al 8.454907240235823 5.6745359622621026 5.832450106471417
Al 6.5431448478407255 10.17898529594096 8.692937603764998
Al 8.167473049388242 6.704173497077489 10.8821261155218
Al 7.066983695534973 8.19831347859024 1.3523545635059444
Al 9.194073650247176 2.8236083126639997 5.415680192332665
Al 8.678744134178398 8.922919397907329 9.516017601147263
Al 10.119480239300731 4.076403093215417 7.664278365527326
Al 9.203018743520111 6.510069655673609 8.378272966769353
Al 7.5281720862586425 9.083594231390006 3.903077658720204
Al 8.571534098352666 6.6186352464409355 2.8651059532330128
Al 9.297718320088237 10.286390831878604 5.522039346424414
Al 10.013596548910051 7.904247463567395 4.679472900643795
Al 10.421341853006338 5.1804847300920756 3.944178525747898
Al 10.411541652274568 8.736303473900703 7.384615725942019
Al 11.835210538981775 3.6925398253247455 5.611806272258738
Al 11.219467236355953 6.294785443812037 6.461094527824834
