40
Energy = -126.93132959
Al 7.856557971709645 3.0557928146417472 5.067294093211715
Al 6.236154432474425 7.592704585929546 3.3704633646638578
Al 1.7854154282867096 7.300206732724015 4.890346732173065
Al 8.815686327281758 10.24062569204733 6.385739347358116
Al 8.226577335649463 5.5044714240390125 9.23624840627464
Al 3.4980101475898557 3.6376931136024155 5.0876661549272875
Al 1.355319059077181 4.864702429216916 6.429763261173854
Al 4.468151022998195 10.820957860160398 6.405441292742389
Al 5.572262313940486 2.6120106490618413 3.595830580097558
Al 6.549866574814849 9.894701999335597 4.881670479718355
Al 4.157646309616904 8.483462265414872 7.9498574210382955
Al 7.863699436450092 3.248902262677896 2.255033755646741
Al 6.236619767467347 7.496447789612151 6.413554087463526
Al 3.4919088863489574 3.6820721991855905 7.8316638309736835
Al 3.8834443995416343 6.216362200617311 3.5583044560732358
Al 2.067267463332694 9.568601655926653 6.383010725640866
Al 6.25719797675383 7.546261187047024 9.392817836281226
Al 10.258145701350022 3.676799615424671 6.387696052500864
Al 8.463424869054474 7.965979702677766 4.9084142111919515
Al 10.572527357614133 5.9938767563579205 7.75836323675863
Al 5.913366732700356 5.024858569770604 7.791700424381382
Al 3.8649665390571912 6.123259385012706 6.403972836455507
Al 8.165995997427116 5.5491602774820254 6.3842611033902115
Al 6.555575361704765 9.832987644905092 7.861714999343755
Al 5.557392538225615 2.405917971167129 6.355997100942482
Al 4.198513693551666 8.535637371703652 4.92769428452699
Al 1.6706917808841693 7.182950942625251 7.798770799581011
Al 8.51611122521988 7.901010024947042 7.930251908769131
Al 5.8980326502711 5.0070113156420915 4.943838249920722
Al 7.899049562086626 3.094029239237954 7.810454555335569
Al 10.803942710732269 8.402559777320327 6.344330377548677
Al 5.905904606217289 5.15989085631484 2.0847888537633232
Al 8.14784385375639 5.647766129282503 3.5389813544718156
Al 3.819252308166554 6.093800583218093 9.255494202074185
Al 3.5170060274627897 3.8294297229571166 2.2746315032514355
Al 1.4333041944656557 4.905297843946758 3.628326098705769
Al 10.169014844796301 3.7401752528446104 3.5878675196532854
Al 10.467753529563835 6.142089561753453 4.850826277503537
Al 5.931993287727939 5.076664135435613 10.576658870565328
Al 5.595532741528581 2.589997425629987 9.107386320804899
