49
Energy = -156.1310927 eV
Al 6.811603877763832 9.699217513901498 10.874226498660365
Al 7.09738606166156 10.371580590045129 8.349228001079181
Al 5.06101610282101 9.753266169994754 6.433148956351757
Al 7.338980731057962 11.07658643093678 5.827697484722775
Al 8.774063537386683 8.344754597483737 12.291534332743977
Al 4.9143431306455385 7.951771609121057 11.57752464530432
Al 7.456195133630115 11.355279351918993 3.2409305873187386
Al 4.908278353795722 8.96758644216264 9.001310282567744
Al 7.08699956667561 7.193164422086195 9.676723151349279
Al 9.434928290677847 9.831042949079032 4.430576165809915
Al 7.024652851675898 6.284193416788528 12.223481230657555
Al 9.246188723020998 8.959060656925022 9.676393901284223
Al 2.8557631032738553 7.197961246159262 9.877495465812412
Al 9.368547133044643 9.474864031152846 7.052793583009345
Al 2.9445153109310054 9.224562729035096 4.754700810824157
Al 6.983082728481559 7.837558264693552 7.0640739986704215
Al 6.86467768059687 8.71872983312018 4.49837295723583
Al 2.776292547756761 8.381254486921277 7.3800203924937
Al 9.579360228119377 6.334248826792189 10.646186290834196
Al 9.43292355319686 10.28274258755954 1.7262907321175458
Al 4.640903905985886 8.1761746916293 2.830871555896782
Al 4.950308123717193 5.342376477280002 10.706970230393685
Al 6.912611387012779 9.064409917153354 1.8075912162340153
Al 4.872413342368949 6.392745904116543 8.101624066064279
Al 2.3442881197954186 6.788794793249648 3.796537673065948
Al 2.945886072726595 4.630467111028341 8.95471816760863
Al 9.493213478089269 6.920827479042578 7.963719144412688
Al 4.680344742162202 7.098585206177952 5.499504987517206
Al 9.356123280981626 7.801724420122751 2.5895960541376466
Al 4.687729222902161 5.452060480262055 3.2826748569873336
Al 2.139960834705578 5.869192579226183 6.6256311760892785
Al 7.508136408294261 4.418984980770485 10.381347957691222
Al 6.955847086500727 6.471420364888996 2.399302755851787
Al 9.13551990149354 7.301685925882843 5.297167961643968
Al 9.919563203747689 4.380330248417539 8.821860480230153
Al 7.4974778849425405 5.066945786396585 7.645200128158811
Al 6.895367147639375 5.402786202158341 5.05126413031891
Al 5.442360345378443 3.5183153537435876 8.778026228700883
Al 2.5085556819294323 4.1868926424166855 4.420068913952166
Al 4.415984357679447 4.393535096124288 6.386612753848785
Al 10.004266381046458 4.938610665731189 6.13936381772991
Al 7.905329626941129 2.3770584126420258 8.733179935453155
Al 9.317449052542797 5.293778111497494 3.363035049382813
Al 7.033946940235152 3.854625275622155 2.6848575897628866
Al 8.847968621693877 3.004659002267282 4.640572623280599
Al 4.862740881234321 2.9242198610428667 4.182535905726601
Al 6.690094822720012 2.8492293000613493 6.294470925124472
Al 9.97257491829945 2.367227568455392 7.018380783383751
Al 6.965144540828083 1.3348189465241458 3.8625124223129665
