40
Energy = -125.18651731 eV
Al 5.538074604192495 11.333491415257836 9.374249860917363
Al 4.153459900717851 11.103136963812846 7.104280624080902
Al 6.750722208147482 11.387929141080837 6.642139566653951
Al 3.872755530637815 9.045323388048857 9.423367337859238
Al 8.075532784105986 10.642702455927795 8.997399601326403
Al 6.341154095114467 9.123168776515415 10.76435993264497
Al 6.034130296740017 8.948126166250846 7.822744998217805
Al 5.930386111230406 9.275137726258638 5.083405473791255
Al 3.905726824482993 7.6341708933274655 4.1901796608466375
Al 3.2821880560683856 8.735890196506928 6.649708640440235
Al 8.454310578903996 9.2980036817103 6.619621525185202
Al 6.255420782241065 8.02617797316727 2.5842567936753986
Al 5.660724947183107 6.871069755094183 9.499890552024718
Al 8.38858558496544 7.949320859959803 9.346026190404492
Al 2.8951542169972178 6.581595043813735 8.520348994418196
Al 2.127395879976496 6.455209334613142 5.9028271313012315
Al 8.04081344819836 7.588553253656307 4.484554465271967
Al 4.241266888619562 6.453135528867109 1.7310336078714972
Al 7.3922116110765765 6.5776973539897465 7.171756786726347
Al 5.827490402673141 5.638868734007797 4.1392374140146115
Al 4.806796691160888 6.513180255944523 6.609701722503875
Al 4.5588828983168606 4.466665076229259 8.731430077450078
Al 7.2684374389080055 4.7427161004987015 9.36433400785852
Al 3.2698292674043485 4.083840179418592 6.348988412014249
Al 9.631809367221406 5.669385468260524 8.589578586339499
Al 3.154871122144777 4.9869493034529215 3.748445998730083
Al 9.92128112173394 7.124696416956665 6.296512019914722
Al 7.948451471378709 5.674347576633313 2.4730060966386938
Al 5.377817948456116 4.029699027140089 1.878708410623641
Al 8.283293838714227 4.87502818009171 5.160244758028146
Al 6.090733644521183 4.125934292697766 6.505865411617255
Al 6.33484558670918 2.3212177615472065 8.665199256577562
Al 4.562077696603867 1.810827686934439 6.682327259589035
Al 4.803352153367444 2.8525138382378916 4.223349021011624
Al 10.330237181863984 5.997894352625833 3.898053905701398
Al 10.760440995125714 4.49881190106152 6.3307849063658805
Al 7.4287592758354535 3.072037701382182 3.2304957152434093
Al 8.557421789618058 3.269220549894377 7.420614359261556
Al 9.499972072772998 2.4062644904771524 4.917344992067063
Al 6.995562927173966 1.587393298969885 5.648312009935692
