42
Energy = -132.07647516 eV
Al 9.920916191188766 4.9028718739193025 3.846242021558614
Al 10.182002636013333 3.7903921793207784 6.276361512109849
Al 10.156496681141537 7.425255386762995 3.2205837785393814
Al 11.43121978679671 6.253671890575318 5.923464634186513
Al 9.454478362804874 2.2339830891101986 3.874193034459646
Al 9.403458815403072 8.395224636978755 7.8466302898545415
Al 8.288442635153997 1.6542938393908226 6.1870727133703545
Al 7.700475193290524 3.6927115449731636 2.3360159015727335
Al 10.297137341505454 8.91928559810341 5.428371002452716
Al 7.5294495046775864 4.241245931939959 5.202734626172308
Al 8.030217327659573 3.523639303195834 7.979337837261959
Al 8.260421468064663 7.490859674734191 10.085062594720373
Al 7.6381562652854615 6.245765573084449 3.027567701492824
Al 9.63086064488948 5.752701025936225 8.151922140227276
Al 8.631518692086052 10.050185909964629 10.009557505820577
Al 6.505567313406517 1.9097187411036458 3.9950738215175656
Al 8.229887150312951 10.386868219331367 6.258858047651695
Al 7.819698472009653 8.788104142943663 4.071640438111509
Al 5.769015695485187 2.576306434434558 6.5993956022742575
Al 8.670814310134777 6.698282992251 5.646275621663761
Al 7.8121169827454615 4.918859508325238 10.225695442838013
Al 5.389212946506418 4.5979577309013075 3.4693110547111803
Al 6.942370223503225 6.120436554889196 7.590469354812921
Al 7.064729821196781 11.42631721446438 8.439473541533628
Al 5.677061462576501 6.7866571532956845 9.947468869069048
Al 5.596117797466834 9.767691093935404 5.592823762922646
Al 6.656771977380439 8.692413571208764 7.94761169676017
Al 5.986613803841482 9.470816654905004 10.472474680442462
Al 5.854125929986812 7.135818233518795 4.727005586952968
Al 5.525539090379726 4.175998305270952 8.986634208897188
Al 3.375948916059977 3.2980239033074756 7.659395414051511
Al 4.856500992020652 5.0359234111710665 6.206108405146471
Al 4.14677182410656 7.619773085973704 6.714627249463807
Al 4.627897922166848 10.569948405091422 8.095194364904545
Al 3.4442603072343703 5.856871094442295 8.735283165995469
Al 3.5994508290741223 8.48202318380776 9.407852770416387
Al 3.5761262600611885 8.863434405991368 4.1067677478144775
Al 3.356092013474875 6.176446085081517 4.141806964294374
Al 2.161417678908373 5.42847299845252 6.4623716020721975
Al 2.6253892970283084 9.800193982817547 6.532238427007361
Al 1.502664616984091 7.6708052730266765 7.96861015552035
Al 1.3061249829611568 7.807290325042105 5.237954872327785
