44
Energy = -139.47199908 eV
Al 10.057602554079859 6.114394147331826 8.337381373279902
Al 9.524802658271115 4.099096746006951 10.370437718406533
Al 8.805145091840924 8.502801726158433 8.499992730751956
Al 7.896193653838234 6.235101408723706 9.89885271132361
Al 7.350933734390874 10.832062250123458 8.699307557452682
Al 7.109618649843625 4.226892371607701 11.589887833888966
Al 6.458974977683111 8.451051456791886 9.756566545624052
Al 5.4439867863491385 6.330436785303062 11.291876628614565
Al 10.842019338292532 5.246221354420348 5.949964144140338
Al 9.15821159286591 7.549869476806742 6.011704139653923
Al 8.704019909663883 10.374862226335097 6.422594364910917
Al 6.220290686568573 11.278540917349186 6.208853324526421
Al 9.580254722034175 3.378471901307212 7.791831250446776
Al 11.25375815214202 7.200480350442097 4.150163255175696
Al 10.067048874885563 9.54457083737033 4.362089830400008
Al 7.796883375027832 5.317904502118682 6.799652741766346
Al 7.052129900727242 3.599308679018977 8.98800098927887
Al 6.563092316383527 8.431596594391406 6.947363760788725
Al 4.6878390112757 3.8393889352643407 10.150744715626644
Al 5.650546373680152 5.916163553877253 8.468347954422283
Al 3.8962436925839734 8.404573043996962 10.376934138495455
Al 4.734387932962119 10.219668694871828 8.422943579271415
Al 9.422747097709786 3.1183305011706524 5.164873013472221
Al 7.146632232270485 2.615330518542678 6.582146685937307
Al 6.987882180589782 9.405875791884853 4.332438394864945
Al 8.875387405943195 7.8068840680221285 2.788439750269083
Al 2.9787194871303244 5.91826761089493 9.740099443258414
Al 3.757233085219256 7.724298556306051 7.727918109570448
Al 4.3797534698950065 9.437707691538918 5.723590957745976
Al 7.007395438543398 6.653792812636413 4.550604550912145
Al 9.46703419972307 5.174611130839652 3.384354581712791
Al 3.717860929104455 3.915435975706274 7.70909420616275
Al 4.857774319695113 5.88465565905726 5.947623611198654
Al 7.093448580616124 3.961859018047279 4.266776580949247
Al 4.787297752592138 3.0717396192801845 5.477832980744551
Al 6.50924274030101 8.204773606226265 1.8672212419128758
Al 4.642441456411038 7.672084756587534 3.7588191986548916
Al 7.150070144728073 5.460921993433943 2.0227653891496775
Al 1.6721409032031826 5.785507489819142 7.384746626519071
Al 2.4743421842837647 7.393264814268966 5.39968046570811
Al 4.765869446130648 4.765648398122433 3.390540569979685
Al 2.523693929194459 4.5046845389547725 5.178602903533366
Al 4.565930991708119 6.400084101225979 1.2698385266258225
Al 2.4668923455942844 6.1345576937941635 2.940275228849693
