43
Energy = -136.03997818 eV
Al 11.0200391274384 6.270581632693383 7.151474443525743
Al 8.986143486011203 8.725333842377323 6.374153471778805
Al 9.158346453079236 9.339800394698921 3.3797323272261566
Al 9.738360485031032 5.542207987317825 9.36309336543114
Al 7.523695460721386 10.631073856974655 5.119341664377059
Al 8.251139051702618 7.778794997376877 8.823264409207123
Al 10.564813200771795 7.460517084779454 4.712736275763658
Al 6.879253922105221 9.847955958674085 7.665535256329351
Al 8.226221734641294 4.339980473398589 11.220824023403795
Al 9.726298581814623 3.7586966424364396 6.993599805933533
Al 7.176787861363267 6.74705924939249 11.139144028263447
Al 6.2966020963027685 9.92685822045798 2.803203662353972
Al 10.909181902016918 4.806088064865287 4.813385393218585
Al 7.7164440284205265 7.179662909015024 4.361849238311855
Al 8.33237875960099 6.064581373384282 6.650731569837129
Al 9.422090694493424 5.730913430813927 2.7063428975971653
Al 6.01251096033101 8.928955601680727 10.179445638638935
Al 5.056407851009769 11.256416279284418 5.917589249496717
Al 5.567534877675332 7.350297217912443 7.887910239509708
Al 4.5795215887644956 10.86643852364758 8.685185464117534
Al 7.583847134460288 7.6929538862663245 1.6732915066088785
Al 5.759956434118992 8.509043746049644 5.519198555437492
Al 8.265224736182072 4.143397914504451 4.590428485244371
Al 7.059075127969935 5.199014927006802 8.87179868778165
Al 5.550690471706892 4.069429978860425 10.910384161141748
Al 8.455023641850614 2.6955645827090375 9.12698704192489
Al 4.467995974985277 6.416672037152215 10.27028893660455
Al 3.293505325795393 8.662738557477402 9.477777082051675
Al 3.4331833659334756 9.175674060235055 6.78577384946725
Al 6.643747281371123 5.246766866231494 2.690767291133978
Al 5.6261935125399996 5.718540199150473 5.613636518511455
Al 6.995060675500458 3.4154705849113824 6.753327720252256
Al 3.7686524843269855 9.69647933196618 3.9913576099494024
Al 5.088148228120389 7.457279104699277 2.9697757971340186
Al 4.519578728424545 4.664885236220361 8.172457309110493
Al 5.7743656368198355 2.2794930993719436 8.900411220573057
Al 2.7800640281348628 6.6874225336386335 7.72098191041482
Al 5.762186607811533 3.2175407493086143 4.342179599896606
Al 3.1998100239059593 7.237749429064077 4.969439565346962
Al 3.9802071974957363 5.073553097845672 3.477621318266792
Al 4.447918856306631 2.44998877580485 6.5982397234101775
Al 2.9009518517766755 4.696648827964041 5.957407440804148
Al 3.0491221180196693 2.5897602992309556 4.216207811463446
