49
Energy = -155.97866409 eV
Al 1.4453231839754963 6.42128615464831 6.51239116866951
Al 2.0881629478427848 6.375800366811726 9.106024761874908
Al 1.9621995898099256 3.5946427872894726 8.25774095817191
Al 1.7052573462801395 3.9265608725934444 5.5374234929068225
Al 3.172861749103505 8.125579741443351 2.530295994041469
Al 3.3818156362661163 8.239882586773339 7.531500478379168
Al 3.9520105435984285 4.606165948491903 9.958318488703734
Al 3.357697907385877 1.9619236428980922 6.3758286020467745
Al 3.202376938305935 5.984414035423421 4.36729746699264
Al 2.200569377735381 8.5150052827506 5.081604490691566
Al 4.701379442473508 2.4760123537448835 8.613836820006007
Al 3.9327067416622454 4.918690662965146 6.967980120080923
Al 4.7060264655233155 7.210801532024959 9.717760282133462
Al 4.056752935750021 10.43475300720175 4.066749186754137
Al 5.229436525209547 6.26344695310378 2.4390525286868567
Al 5.697315003294145 9.073548151645259 2.347780534277603
Al 4.106524068121042 3.4901726220862006 4.275901915989969
Al 5.112925041880077 10.210679866891505 6.5128087555011245
Al 6.809847468606153 0.8238189019988325 7.9399356920192545
Al 4.998464807431891 7.970837398771831 4.819959868461565
Al 5.988588736880024 3.0108625299087497 6.244310877104664
Al 6.244476095808872 4.754239050868668 8.37624929078734
Al 5.214664697773054 0.9285621870406601 4.673103455102373
Al 5.691773219418223 7.0614956384244945 7.200396376412594
Al 5.995870827704266 5.415993551734457 4.93111602790987
Al 7.249530407593412 2.780675216791647 10.029357243443638
Al 7.014371625414947 10.085543488615127 4.5959758219274445
Al 6.372625254333907 5.250119192778446 11.035761956745098
Al 5.987287180522037 9.496709933934877 8.916998499449816
Al 7.850802024551323 1.1802598688689705 5.3730321991938
Al 7.254773920182187 7.3628808262181416 0.8923635751369492
Al 7.437574073593558 7.460311135145822 3.8305388144780816
Al 6.560054864013965 2.802004797484275 3.247345634730996
Al 8.413329184092492 3.0294559624218595 7.51873649108219
Al 7.7505501952981 8.606841841224021 6.775911733615168
Al 7.4871392230737275 7.220650898587624 9.450041377038952
Al 7.951927381904017 5.904741918064406 6.666663189167047
Al 7.755800413592379 5.105549540354717 2.4944408130248283
Al 8.391560139892194 9.64968747648848 2.1820449933073114
Al 7.602488770584031 11.231661123676773 7.261656462287078
Al 8.943239323828825 4.927084721034394 9.41863883646008
Al 8.432115253927869 3.781050767117844 4.937443577751156
Al 9.559741381988509 8.870319589188387 4.6922132984088165
Al 8.68866159551862 9.645547407870307 9.31228604397865
Al 9.676720370177806 7.213275666990634 2.1578392980399403
Al 10.3799244485994 4.7968473773750855 6.794960640390102
Al 9.891125790774288 7.3105792452074505 7.8969228245627425
Al 9.736479044179974 6.094751733894873 4.535580652230667
Al 10.173747451814767 9.918169771946339 7.106554626901242
