47
Energy = -149.37398307 eV
Al 9.496344272517726 8.223054895874668 10.486347861780041
Al 7.252945056729754 6.749098634553465 11.34290540015171
Al 9.1463827415765 10.318112105777635 8.83877430301988
Al 4.781959512649396 7.394433568130064 10.346522583369826
Al 9.12041478557414 5.65222861795427 9.641289135761223
Al 7.147021857136446 8.305803608002574 8.843198276901736
Al 7.499275703410065 3.9185574307232507 10.963870053117045
Al 4.649062996840432 9.58335872746611 9.007828409316872
Al 11.538914412449554 6.666120436784404 9.279439915048583
Al 6.765730239488247 11.0720506142873 8.261023888538846
Al 5.019305715523298 4.851487649910667 11.375703614841584
Al 2.5307319818728975 7.662119792206015 8.609984796128835
Al 7.573942311259309 6.194676974692408 6.700892327990872
Al 6.389722059608878 5.562629490623831 8.985081761735037
Al 9.775873992729473 8.003883700121344 7.727445102988002
Al 3.6828763821334003 5.3165621356691055 8.979650726310558
Al 10.327305615994858 5.422700381714637 7.14413995961312
Al 8.134297611717948 3.5388199608674737 8.312070428995613
Al 5.311138623106982 2.9811197990100675 9.137744328657144
Al 4.97551289576478 7.289410359837398 7.389087905099362
Al 8.225741694333655 9.725667197983242 6.173900963139577
Al 2.83311771453414 9.91806360551809 6.9816487106558975
Al 4.374805499156238 11.930710488087678 7.678982987375901
Al 5.45458785493005 9.829354700852203 6.2793766199517576
Al 3.517636917140267 3.3844274044618565 7.084346594296474
Al 0.9880048070004089 8.11707636721588 6.259975890064392
Al 9.463074448237075 7.496803529391288 5.185072607241404
Al 6.134844793700625 3.6302876216063877 6.5411826038697845
Al 8.71410065989305 3.5814904338235 5.785424305645985
Al 6.546750295831199 8.094639210723589 4.68592504760025
Al 3.562230604229224 8.192713497940382 5.0155179858331005
Al 2.6177497302491375 5.929870932569478 6.419167314354869
Al 10.546151954374897 5.130040386225052 4.4328277582527
Al 5.19618243234891 5.775340608322191 5.167470950866885
Al 7.785406333959467 5.5833997470717165 4.00443119962636
Al 8.585117302785966 9.440251658247128 3.4749284907372107
Al 1.6407983238230883 3.651175292418148 5.096876914522908
Al 4.260464747886664 3.2502762590863568 4.453134669944168
Al 9.638845829113793 7.087969651926014 2.5477859812513706
Al 6.772667362069482 2.8665424659924734 3.984929044939067
Al 9.162184874004192 3.143324067060902 3.147936655063646
Al 4.578750287803584 7.454648790451139 2.7869432629593858
Al 7.0653817556116065 7.604637009094759 1.9972719189806662
Al 2.920656016503814 5.525203126696714 3.6328725098374983
Al 10.642880456587934 4.752329574827603 1.676699505059276
Al 5.4441083649193285 4.834535445535887 2.4684577862058537
Al 7.9185390428846505 5.072530914660328 1.3734498143542466
