46
Energy = -145.84324353 eV
Al 10.308030853002526 3.3588204359472464 8.828674888481139
Al 7.986525031566104 2.4767891813273324 9.983636695963321
Al 9.037644246714116 1.3160025618548041 7.498820295312635
Al 10.042584568420455 3.3576343779991595 5.871700401716871
Al 8.363848718767688 5.245244296945389 9.845127594518035
Al 6.198895952420445 1.921245522119131 7.91641162125475
Al 9.975070341736199 5.640396341972816 7.533852043112332
Al 5.861143018685249 4.121821428676079 9.950988738267172
Al 7.828993536904208 3.997067261527645 7.487544864978267
Al 7.47480094018511 1.8915374251537045 5.40961030511315
Al 8.130657158215904 4.287014719411452 4.120517302019861
Al 7.811264329471092 6.568536019212817 5.633205401642254
Al 10.340179315511039 5.8233394697030025 4.728904721900026
Al 8.248945154983115 7.564471243654161 8.553017684657634
Al 4.125801786622155 3.6330354469275075 7.943761259693896
Al 4.5628484912957745 2.007101149673557 5.740186230690182
Al 6.012027030401048 7.003370083913825 10.244177660901748
Al 5.892102719828515 2.8667019201172774 3.4762223677486026
Al 3.6515720530088878 5.781747531862368 9.520485172665145
Al 8.448160284683123 6.4482839224365085 2.441009311051063
Al 5.848013893543711 4.387336372067822 5.78247942511456
Al 10.079374066604974 8.028348755575307 6.642294460027649
Al 6.112214587116924 9.163281911561736 8.517466802098099
Al 5.918569052646404 6.11906183112895 7.770044947797085
Al 3.5283161114169594 5.901506866815491 6.448449023633128
Al 1.5757312543272115 4.576962844284788 8.248192296053988
Al 8.805112903662302 10.221841241795106 8.192513205043932
Al 5.975732521973772 5.899098813389451 3.494752007298851
Al 3.693345030732999 8.178988614070267 8.153405657539198
Al 5.302918864100625 7.9493977927857795 5.65424652653125
Al 3.7311006296437643 4.363504192699967 3.983378474316306
Al 2.2245954431059536 3.3829008718824105 5.951394734518165
Al 1.2991040764917274 7.145843909131667 7.742016140747929
Al 10.279092176751806 10.410114706198355 5.603132150303026
Al 9.684167529727583 8.329822133306292 3.88645629276829
Al 7.690631766828646 9.267676388872301 5.910536596996783
Al 2.2391820799535793 8.441693637340368 5.660098177359163
Al 1.3665613900556617 5.72022105561438 4.769700174269818
Al 6.3463965204914805 11.472022177699218 7.288949223320517
Al 3.511890805447969 6.948193996231376 3.596414827603995
Al 8.210284437003244 12.054400057695224 5.6064722075413655
Al 6.803090546953265 8.435084418395046 3.367972813899756
Al 4.111728871240112 10.246988100992402 6.436128249539833
Al 8.462040410485155 10.657187726551596 3.3345316158849077
Al 3.873107924899289 9.48926296194008 3.684107880610862
Al 5.9504174108156915 10.826290564354839 4.483651079670018
