49
Energy = -156.24936324 eV
Al 12.260574026004427 8.95345887314829 7.562941960854817
Al 10.668348684830892 7.559646283228258 9.291397188039756
Al 11.301894591766494 6.547642336231908 6.727057726872245
Al 10.433003166594276 8.825408402001145 5.5310672710270925
Al 9.649139663299442 9.784391057458633 7.869486617619273
Al 9.996078616899991 4.958010949060048 8.539347737795827
Al 10.374101438398386 4.296132977994144 5.734927332510981
Al 8.638123058430228 6.263757540862907 10.49118477073528
Al 8.49985531235016 8.948804869404716 10.144445493512498
Al 9.419304287456029 2.57090853428613 7.526851012650073
Al 8.961200722014718 6.615436739790208 5.1171916108819335
Al 8.30221477255764 7.245719192797572 7.884957910135682
Al 7.656438998989026 3.6028127862771484 9.293679354221227
Al 7.748343550585231 9.15611111826917 5.985570055145182
Al 8.827941231448662 8.861666162122596 3.472157961032712
Al 6.055609018560854 7.700773453088655 10.5311827348856
Al 7.165131129833304 10.564579478084863 8.309085852918031
Al 8.197977245685891 4.220401538137658 4.055052796773323
Al 7.729922204261335 4.809277297450169 6.777228174524282
Al 6.666675268661275 4.870076874504092 11.420834969307409
Al 6.400420433650254 10.383144977005685 10.964923512841356
Al 7.293153634157556 2.1804159118556217 6.056605724956846
Al 5.967952085965524 5.671454746315505 8.788100670896164
Al 7.848628198020372 6.4949362377470825 2.59456275682181
Al 5.769502337546203 8.004372261672874 7.542235565575858
Al 7.181051878693138 8.831027286562735 1.327558377452712
Al 5.341611028248882 3.2218241076158263 7.713162869241019
Al 6.46800132096813 2.2529081845560164 3.4380514625113525
Al 6.280145261136429 6.429545024259102 0.35565519184801203
Al 5.564143519024721 4.195823391044443 5.19218816866563
Al 4.597094348409273 9.875696099927131 9.08918445702233
Al 4.18874805637242 6.1251796838594155 6.646823302459079
Al 6.198283284463995 9.659239321601596 3.7820453342080658
Al 4.218704719806277 5.670950139854015 11.235599802750784
Al 5.226213397277996 10.388083255090034 6.291678205828362
Al 5.7962652818761295 4.739697037057622 2.4886931798732683
Al 3.418703700305066 7.3888976868258895 9.487473365621367
Al 6.25568439836868 6.872931911646376 4.980018864772516
Al 4.689383924371681 1.5354291888909695 5.629796991762114
Al 5.019706144346192 7.4461813098706005 2.5025573323110804
Al 3.003117754707463 8.780179960835827 7.2355777634972185
Al 3.7666509016637573 2.8564513250013497 3.444768877475446
Al 3.3905296261218814 4.547186731631822 8.843132849970003
Al 2.9330874591728295 3.7311698197444496 6.188449930988646
Al 3.980287912844029 8.506274959791913 4.732036226480824
Al 1.6207959344035594 6.29282745979494 7.805718798608053
Al 3.5296064359006505 5.503082051796573 3.910294786542788
Al 1.8264705582638736 7.047474884543319 5.3186436746701675
Al 2.282178417048861 7.620597521167541 2.756812364667462
