44
Energy = -141.02314569
Al 8.281158640187162 3.6669944330765727 4.629318420994926
Al 5.912023216183895 7.756898663943405 3.076490391596371
Al 1.3760176227058263 6.736872461907252 4.7270375070324375
Al 8.127043435491837 10.791017695443506 6.018227290371854
Al 8.3144719971203 6.118845254339316 8.723269708858938
Al 3.818365185416684 3.556977723111444 4.734705866930364
Al 1.4639234141002226 4.286852477320927 6.114703541258949
Al 3.687620450266987 10.68186467293924 6.117758661989008
Al 6.037820005134607 2.801412220916241 3.2976261572721506
Al 5.892212413951635 9.991064769992953 4.597126796665414
Al 3.770598755932351 8.304756383390874 7.530679191067866
Al 8.208212877839312 3.756495176492967 1.8663639242702557
Al 6.138087915627939 5.271118615939246 10.17160261498445
Al 5.98408889036526 7.5930773420835616 6.036849756010709
Al 3.8795626451082095 3.534672203011151 7.370838114392684
Al 3.7286695889311785 6.058905304154704 3.321212817352626
Al 1.4502203320544753 9.049031247938576 6.153355387067238
Al 6.050236220100645 7.7026582746330625 8.999148989238433
Al 10.658482318092844 4.512548369548765 5.898147201949461
Al 8.159594525930325 8.441018159013518 4.557939215461589
Al 10.630008678272873 6.937478880760195 7.331384279118833
Al 6.073357509832833 5.221174272232741 7.376773801189389
Al 3.7447231444369926 5.9649591995615365 6.074856849850938
Al 8.299450167284375 6.076800355192504 5.969065884312209
Al 5.9596061099935795 9.96368485734044 7.523909914108153
Al 6.1047667551822435 2.604450024577152 5.991296848381705
Al 3.7042157508435345 8.330215681158467 4.659274155641279
Al 1.440886511207714 6.714010085023139 7.543695487655567
Al 8.402002383980545 3.68329722128551 10.02976551298789
Al 8.226380712191775 8.413117663581312 7.429139042194072
Al 6.009433349199349 5.244841777937987 4.652487423740758
Al 8.343716153852455 3.643099111916719 7.264873116516586
Al 10.44165855191171 9.270527814858491 5.950168032523854
Al 5.942546954038235 5.344600469632558 1.8592603889616321
Al 8.18408365697901 6.17008985092243 3.218481842652796
Al 3.856684324296589 6.011590900825522 8.827022199066814
Al 3.759938356601688 3.645642069649058 1.9705059719007327
Al 1.4978617595574477 4.369298244290622 3.397856434067698
Al 10.495441872146897 4.593994485909171 3.186987808472079
Al 10.563084352013208 6.965008020999216 4.515311074051882
Al 6.164171665390397 2.755361331260935 8.688367930344059
Al 10.625173314069775 4.541919983416206 8.614999945722833
Al 1.623103701778404 4.325484537261452 8.827786802910591
Al 3.949840515881739 3.576818412695319 10.134874400347577
