42
Energy = -132.25415758 eV
Al 6.038319753689045 8.485382687993456 8.869160838527606
Al 7.761260458953725 6.382497959280117 9.868213597841784
Al 6.685293560955037 11.127700659421391 7.389139346682202
Al 4.995989039198112 6.222299375278829 9.944120208967803
Al 3.278189188314309 8.1590401082172 8.905303173855785
Al 8.49106632566701 9.098440236713087 8.099934320419077
Al 9.900212090860714 6.780441156798656 8.283900247183375
Al 6.773674463217589 3.8583080605207463 10.149154552279917
Al 3.9213507629351922 3.7247089471094905 10.207455628162862
Al 4.302102279892725 10.03065245684194 7.331511969193841
Al 7.400897414305492 6.724857969734127 7.1314205805604365
Al 2.894034051068612 5.553016249873116 8.282058875008618
Al 8.565524276631566 4.477476682925547 7.98620132823783
Al 8.963606106578508 10.845454444094875 6.0607470958560725
Al 4.773180101327575 7.130472755269333 6.811662065839383
Al 6.825464027408738 11.255701678655297 4.37734866715506
Al 2.1993605112640635 7.060555163287284 5.763562136018213
Al 10.257582757505356 8.48171215816853 5.940054342857537
Al 5.5500871012707655 4.480125206596193 7.838449763595409
Al 5.337679944858145 1.8517935756087993 8.795847913528657
Al 9.901360320652053 5.682992196947579 5.82080372152273
Al 6.698953822401619 8.95395775130614 5.876576077727346
Al 10.600962965979253 7.431416715195218 3.5184137405570133
Al 4.121338026987465 9.128676786044336 4.858147779106612
Al 2.9620210767420647 2.858885254667646 7.795939877569711
Al 3.8520246886821923 4.794768508108244 5.889521621915248
Al 8.063255899833598 7.136254306043562 4.537215391893481
Al 8.884005509060994 9.582851051977245 3.6855975948132498
Al 1.1327132318318636 4.474625821559586 6.456350011543796
Al 7.394352238507704 2.2966651685719364 7.133188104079675
Al 7.001382844374388 4.793544388434309 5.375822769975364
Al 9.374506240288508 3.1074352101389215 5.432921457309221
Al 4.9947107730679265 2.2706609398578985 6.037455731693048
Al 4.377024892451026 6.648067769768019 3.9144030983061855
Al 2.2893872766658987 4.9826983890158125 3.6588621073185172
Al 9.250656485413318 4.870134501110053 3.2376923428862443
Al 6.248911591571274 8.703523727217611 3.1728970845941937
Al 8.416003193947045 7.6631980478468185 1.8017015708969715
Al 2.5693811890448073 2.604423308622041 5.012003944162845
Al 7.134525590416381 2.440677880961717 4.210555299187827
Al 4.919171908170874 3.887900504238002 3.58332947333718
Al 6.634913114198825 5.785500207216835 2.6861493717565645
