47
Energy = -149.55511111 eV
Al 2.168091164978371 8.190255044201518 5.907417182315589
Al 6.404360123670205 11.225126196067377 7.350512919768136
Al 2.9931118781307804 8.504673047377604 8.633766241504388
Al 7.508491044168161 8.820278803571586 10.250451512337147
Al 3.598342052405778 9.379535584028872 3.7707586349449134
Al 4.249669544314456 9.76431353288352 6.597692260508741
Al 5.1924073401011865 9.87365739228373 9.328258103115322
Al 5.575366369347304 11.245354046867899 4.712559106013692
Al 4.616977349200098 11.290773396593613 2.230635726958168
Al 8.72118018038685 10.308402205307592 8.263526304254407
Al 2.1386339038567037 5.5473592659002335 5.839720336072591
Al 7.778918681697161 6.366416365747128 11.214732249630835
Al 7.994771336384949 10.176059962296302 5.441375637528266
Al 2.4225414143696637 5.877628450971016 8.450018191528118
Al 5.700387903286106 4.739889424034691 10.86664340556647
Al 6.826445839181081 8.43247940245275 7.365171285373942
Al 3.64011950464424 6.700197837912908 3.8919546269950676
Al 9.928707106112725 7.941686048213321 9.299670715500513
Al 5.303585780265333 7.142541719040452 9.602364212068895
Al 3.483633305616336 3.7947776251512035 9.764042926391404
Al 4.454265254122841 6.984918897050253 6.769694432556399
Al 5.915928923532376 8.215639679933501 4.813444059497129
Al 6.71716836015047 9.685897792603697 2.7094631265890325
Al 3.5065365398655377 3.8301370142932076 4.362372456365312
Al 5.4087992455098615 4.8418385443292316 7.958657957346896
Al 7.785864783940924 6.279843086186334 8.506302826306015
Al 5.221315374157116 5.084539959751633 2.4419689913595657
Al 3.0969407938841256 3.2884335809607177 7.126481965549818
Al 7.094659536737884 7.0014173362994585 2.6283067837323313
Al 10.050791486528563 8.757063160431768 6.583317070200929
Al 9.147551440832281 8.60943048481879 3.636155781852093
Al 8.217150734978258 6.687874997655348 5.503884322555428
Al 5.771279814610966 5.277739059125387 5.1474442646277385
Al 7.721117144607599 4.307364649842388 6.687025380934569
Al 5.401806577628312 2.245754462660324 8.805057850228769
Al 10.445640515191744 6.041429276886656 7.408696801249003
Al 9.858683216740888 5.212001169104824 9.937936058214417
Al 7.68478271341371 3.6449466108777777 9.502539521843199
Al 5.390102303959489 2.39094894145622 6.06434042290243
Al 5.822064926155832 2.7382718818940703 3.5016216639310667
Al 9.990815967564675 3.3295028798919524 7.89576825291666
Al 7.82903133187383 4.425614776232371 3.2963699992250968
Al 9.704290478512743 6.112940337595959 2.8458319500636637
Al 11.025085292724851 6.924962613716351 4.990073368873956
Al 10.076472158715458 4.31813420978013 5.183746462085366
Al 8.164414871826882 2.258123157776011 4.916683715206468
Al 7.767640074498934 1.6997677723237277 7.511484619793053
