40
Energy = -125.68861652 eV
Al 8.740140018546557 5.586107022904017 2.4342847222248447
Al 6.550043696990938 4.703800817557588 0.8820206205406357
Al 7.664624152932233 7.247328086409961 0.5677326784279605
Al 7.010696616135694 3.385480596353434 3.074890072224959
Al 9.285446057048171 4.069291018157725 4.529073121423578
Al 8.048196871042366 8.610844282478988 3.0362157218039267
Al 5.033588615957327 2.6107696242417293 4.68145639092951
Al 4.810403576385081 6.722650889354573 0.46184299816567614
Al 5.820814928420647 2.3865759284403545 7.267573772203196
Al 8.331570162617325 6.688447534095724 5.017145351840858
Al 6.256369949022674 6.538710256876887 2.956727855620568
Al 9.423892095534681 4.873660595254894 7.0103996332884595
Al 4.397253560158951 4.583792309673019 2.6157769917406575
Al 8.43218445901305 2.587948204911908 8.002697153249736
Al 5.782070300155237 9.02841685826335 1.5554639286044107
Al 7.649998910315389 2.0646493264210464 5.331758241473359
Al 6.720903311599585 4.664719871648967 5.699224026480593
Al 2.7774240492371214 4.2018592530527705 4.658103094673855
Al 3.152491986389156 2.2256764873406603 6.5203676263883885
Al 7.005207009747048 4.950028591814523 8.314567314704961
Al 4.629112976210107 6.258331184571486 4.967034998269407
Al 3.5592831513104204 7.642825921802808 2.8676036091908563
Al 5.560394702505554 8.997379830055152 4.243133591202983
Al 8.007704504471885 9.279561659959336 5.639933834561539
Al 0.8878302799740057 3.8757897067157443 6.6201376225498265
Al 6.402935537194643 2.8016273376265515 9.984808959239249
Al 4.37115097074825 4.663081649528984 7.099006653195979
Al 6.131922519291123 7.582307354821239 6.729824977551047
Al 3.770451458418404 2.6065177177764434 9.091465022981033
Al 7.060111141558643 5.190147018166248 11.057018559344973
Al 5.716900445986799 10.670612131152957 6.350163069751289
Al 8.68471609578415 7.273695420212863 7.7505448636172565
Al 2.208471034058765 6.308010967828519 6.335453306928212
Al 3.633908162163967 8.633975834621843 6.056661306694823
Al 7.564399391487321 9.650899063263129 8.323189347165718
Al 2.217143110794989 4.908888327148532 8.806019275489916
Al 4.660764710363631 5.059109061520153 9.964203993272735
Al 3.7422469173321704 7.080136368058675 8.461827472323886
Al 6.387437089145263 7.309628838359637 9.4608038070302
Al 4.868781030537255 9.428443391291518 8.550594376882135
