44
Energy = -139.26447036 eV
Al 8.234570365116115 7.245452918136657 8.914231931458453
Al 6.333882647841742 8.359024524371925 10.451714471457956
Al 6.610951733699785 2.872387073411555 9.336649027504754
Al 9.350274198168218 4.256058214072013 9.295515516748859
Al 5.142123411370039 6.3892710945783575 11.779139406326028
Al 4.471914769187177 4.167655034945496 10.430535914081501
Al 8.466454257097075 2.412660341367299 7.495088499950106
Al 7.200591980471437 5.236104253711371 10.566607108471446
Al 10.479303627855654 8.75154129103265 8.35846007680797
Al 10.719997733712237 6.106825289117926 7.963315768844717
Al 6.028234376454474 1.6612341005128102 6.771452222789424
Al 8.542572286413698 9.819302204420598 9.93164588255806
Al 3.88214585253932 9.131870980793655 9.050235467027392
Al 4.504221309216687 3.5861261259512074 7.714292199893604
Al 6.121076599237532 8.292657456245538 6.771096595578961
Al 12.60026123735261 7.798165399713068 6.934964089508585
Al 7.313996965992198 4.977861147723805 7.6133103531966295
Al 3.059778011640098 6.931822904749652 10.197870935668078
Al 9.63202471230568 4.357304345498567 6.166125582529967
Al 7.130640318425529 3.7520371881815158 5.282171686843438
Al 2.3700265744392484 4.882784750122006 8.704628568415215
Al 10.652958612404314 9.185987099383105 5.612301376060236
Al 3.1912531381751914 7.19966664622564 7.2463495141567345
Al 11.001762478757842 6.473603092205893 5.145775851349875
Al 8.473415319010263 9.941194224947203 7.176413997913437
Al 8.603694598019128 7.278959261870592 6.210196141545434
Al 6.238685084432049 10.35762227522709 8.52348940688929
Al 5.319967138281802 6.347259530894387 8.746376710286562
Al 5.212899418974797 5.717101549416954 5.961700145482057
Al 4.477959157351938 3.19414745350795 4.966310577201054
Al 5.840294083916885 5.03971651132583 3.2831844168490085
Al 6.729652772953198 7.473870695807345 4.274794454667739
Al 4.014352113960129 10.090527150707027 6.559690781117378
Al 8.693831924412706 5.456480051397502 3.87568052604142
Al 2.507502808339105 4.669905607046137 6.087963161214793
Al 9.559919189055442 7.982177264839157 3.3441801195243093
Al 8.391267458994168 10.194347839903902 4.521482002020144
Al 6.488671667379976 11.366103648836846 6.085869885708026
Al 3.87030008025306 8.019867332542768 4.802567109926216
Al 7.506227365725368 6.598775043649276 1.690376090987373
Al 3.285737548618404 5.6092400077377045 3.72708903585305
Al 7.3721555453684005 9.246880262732486 2.1953308560126645
Al 5.546509496855404 9.94721791831508 4.021240224071115
Al 4.865800040701634 7.661062903301377 2.2524463199398643
