47
Energy = -149.13011649 eV
Al 5.099156016516915 6.697375750854913 1.549539899806262
Al 7.852829190308709 6.01836773611561 1.4013472433107148
Al 5.687164629340634 4.534069425350982 0.10213425714654313
Al 8.646863031746642 9.354212544958285 4.65516722409117
Al 3.3184942566235516 4.400922076724997 1.4418969437536295
Al 2.3920867334225817 6.878498060946289 1.9475552465272727
Al 9.1377632258408 4.2483913771412825 3.3733850380283115
Al 4.143015666250549 8.445147457215553 3.3518673979625655
Al 6.91889434063312 7.949992222690156 3.06972897880316
Al 5.993015744965933 9.372434107789402 5.157046073612483
Al 9.447330741627596 7.003297722644705 3.538304894251614
Al 3.968017231610545 5.6784783921205975 3.9614322315817914
Al 6.540106059066317 5.174259206067993 3.6641227639427596
Al 7.965419354130569 8.967928854496888 7.433237711232722
Al 4.908361398673476 2.9798751339817278 3.055390238285282
Al 10.161560341347846 7.8296873420293185 6.182656015836321
Al 7.350718953228121 3.2444928628644796 1.7402417022377503
Al 1.6260170949984105 4.423804235273365 3.573811096416891
Al 3.8703423264296073 7.836944984415457 6.007278855802582
Al 1.6721272794230415 7.175520364745521 4.4864764860101
Al 7.448107224152347 6.928802472725175 5.541131484984308
Al 7.822201829326914 4.2538975272440185 6.026225963886825
Al 10.375344129995185 5.2381925210969875 5.461642956036014
Al 9.865794418205972 2.4927566126257004 5.298162221562744
Al 4.987811991077574 0.9985297113007173 5.019950573056193
Al 11.41019257583972 6.109566078359823 7.836515847875556
Al 5.448843159150741 10.03011236494149 7.591117894760635
Al 9.862392726659863 7.9940963457117 9.100464356720893
Al 8.61523684551315 6.079234767797786 7.779206433986909
Al 3.3403470013247807 8.829635473034763 8.512230964078663
Al 3.4423114301050783 3.178868522377745 5.33172601855864
Al 1.2208734154579757 7.6919301837559395 7.1243637858855
Al 1.5327893475691636 4.924391665066889 6.169864981073547
Al 7.265236197961909 2.2651630822367452 4.29400071899371
Al 5.217222423526715 5.2382544425687785 6.201336017939308
Al 5.852764668536812 7.275034855794614 7.826779788439663
Al 5.744249428751037 2.7126344200002666 6.976024949964056
Al 10.147886551480717 3.680236009451227 7.721480956597607
Al 3.2246994972604903 6.103384340758495 7.957757976154177
Al 7.205237655243856 6.311762434176071 10.004699322425473
Al 1.6568879664791938 7.285015299619085 9.95828133470676
Al 7.7128391946614 3.6524759879369775 8.749305803240249
Al 4.502740326540015 6.937371436030055 10.243560011408194
Al 0.6048002158222628 5.174713246707664 8.648561627152253
Al 3.0546915030825312 3.4076027333017374 7.9741039131186895
Al 5.267121432123402 4.598911457682702 8.986925913069985
Al 2.8302272877233365 4.745081556468899 10.316565998613237
