45
Energy = -142.28249481 eV
Al 8.12288938160145 8.699826530211723 9.65635778282712
Al 9.034542511219401 6.17781690569566 8.957385633124446
Al 7.77271382590336 6.386987639739298 11.330992948810819
Al 9.741578310959307 7.0560862979440016 6.515320116568769
Al 6.115393256101079 8.40353792385245 11.541594212292587
Al 9.332698747514293 3.447505810389888 8.500483851245916
Al 9.52501556116418 9.674922902212302 7.091007435317685
Al 7.257250889224555 10.900797122172285 7.857844326644279
Al 10.047961174979235 4.507019961512202 6.007789060093485
Al 5.485212264121021 9.197536573364017 8.91933648764861
Al 7.307587632224216 8.141241695511166 6.997953993009699
Al 6.155613162841712 6.5633647262858466 8.96304927788197
Al 7.218980375484104 4.195289753071883 10.005735098061203
Al 8.598848645106754 2.1869464384329413 6.249253361782269
Al 5.062364719993022 5.63828859885046 11.238834716317765
Al 10.234386760594118 6.1607706790199 3.922553373210343
Al 9.401433342723598 8.773061176477706 4.481950026176782
Al 6.693544191410158 2.3741764151655596 8.054615085561066
Al 3.593132883286033 8.019395822707832 10.50596527554627
Al 7.521765932407839 4.921388737785607 7.00774873555896
Al 7.4470865953125065 10.675564232290133 5.228528268277171
Al 5.0981888196936636 9.883571484737464 6.334157776984908
Al 8.40397168746597 7.554897474079498 2.2468224433457227
Al 4.556184685459212 3.486857033590032 9.570531123273998
Al 2.9878555999496776 8.369691504764402 7.8853798834236635
Al 7.572068454175256 5.557641462281829 4.434119948730713
Al 4.2487203356132195 1.7142620489240947 7.21925028444269
Al 8.898975477241997 3.219353529211419 3.838346950143775
Al 7.839535301901887 10.180090513987977 2.6813557072085126
Al 4.890110697131015 4.5636106137333226 7.038983748555478
Al 6.199506314219791 3.049362075889318 5.210866615357519
Al 6.5708384904884 8.079601992189348 4.2938244050008985
Al 5.023961364735143 10.252564710935168 3.688920930986999
Al 3.343974435626419 5.898327514215965 8.956333255476348
Al 8.758876488036364 4.941417402327511 1.877285248374806
Al 4.593757547520823 5.183114215313229 4.168326791159625
Al 4.980606086848861 7.129945036169486 6.306990242728758
Al 6.040191547851758 6.144782783627672 2.058352406197229
Al 2.4137198564992843 3.665359528507515 7.835596646615277
Al 6.421598751641058 3.6267084304343973 2.586362194361992
Al 2.8255520208686082 8.716343813205405 5.330931753619055
Al 3.1834126693405693 3.199973186666907 5.1955167868221785
Al 5.809664564315598 8.724465416792713 1.5364718290624346
Al 2.565846890948813 5.985095059217674 6.228552692111025
Al 4.0020327790670365 7.639280797256194 3.267154331712681
