42
Energy = -133.2444974 eV
Al 5.775715436859234 7.874214917979844 1.970456965944221
Al 4.883030466757992 5.439978322753512 3.0394107755116266
Al 4.424748751301463 8.198815895289703 4.203197245478768
Al 7.159464143354879 5.550176064492785 1.53037216598494
Al 6.963529427564898 9.57416279192107 3.8477234448282815
Al 3.722151494893913 3.521627359673161 4.377591085959293
Al 3.4328139065717607 6.02902619633259 5.448906591349485
Al 2.9121136554764213 8.49095631340169 6.433884028414487
Al 8.437500170537545 7.930291026203602 2.0418186318614295
Al 8.264434591667866 4.660762006741758 3.7944726192713527
Al 7.592168894535497 11.343079265544086 5.850307337039949
Al 6.846137356513803 6.860595773109651 4.265952838402445
Al 1.6415156684568835 6.3678835559851406 7.594848989093589
Al 2.1535231314020398 3.836051434858911 6.709167430214674
Al 9.4907060091144 7.318433887404703 4.382476760662897
Al 2.9302083945476807 1.3946198568196584 5.754704726325769
Al 5.47040778607571 7.15957803829042 6.963780526936834
Al 7.708671069582792 8.56000071026736 6.321997150418075
Al 5.815192411915062 4.6999788447312465 5.651496498828241
Al 5.298626281844332 9.849297150055527 6.146663622437065
Al 5.673988505023586 1.9240501391764029 5.432725758893103
Al 3.5453482650262824 10.328390713423273 8.285810440876215
Al 3.449417661724786 7.697374260478243 9.125147927258379
Al 9.950087011574398 10.080380801092877 6.4434493989985695
Al 5.797713441671065 9.039502328895052 8.930774471426767
Al 4.025288712969011 5.191558026813258 8.196435024768128
Al 10.327058529086498 5.004199970094735 5.44271015517433
Al 8.043260963934515 10.38129848610756 8.541025036454892
Al 4.30698773760267 2.558884945690398 7.802505691628633
Al 10.239660680280995 7.349205295897482 6.980380001821282
Al 7.976621359176407 5.870029029357539 6.671356306193444
Al 5.859871018312942 11.815278988551343 8.01659089450369
Al 8.098267109608814 3.177498314669632 6.134201590187742
Al 10.315627796661852 9.162401122698407 9.041301636684372
Al 8.029257089232393 7.619385784599331 8.882648613768616
Al 5.757106977819665 6.437030857300091 9.818776527444166
Al 6.434650691290602 4.137091573392784 8.30356616145749
Al 10.21992636698893 4.65512994621783 8.02411575653741
Al 6.740656838525685 1.3540134063935105 7.86767097463474
Al 10.47111003761044 6.65764701091991 9.756176418485929
Al 8.184344123255201 5.209008651444785 10.044741228807222
Al 8.685366121177093 2.7453870224559696 8.98293663655878
