47
Energy = -149.29927234 eV
Al 11.148815579189026 5.737267896230495 7.141322886038038
Al 10.581617576487627 8.121768321589878 6.071382783462731
Al 10.819306156701389 6.042064407341129 4.323865098340778
Al 9.825621892621495 10.024314670984621 7.83300017293519
Al 9.680684293333298 9.204631977952662 10.384552176085823
Al 9.305130573756566 7.185230724856767 8.663957970671829
Al 10.012994424265578 3.790816187998499 5.521082150500809
Al 8.874796644047677 4.433171143726859 8.183485905693825
Al 7.3758061082151 5.412374261263736 10.276749362818821
Al 9.443734315952577 10.384962519459704 4.980904438083688
Al 8.544821587177365 6.260975213464551 6.136866592001465
Al 8.903406527443924 7.961371153125621 3.8832244513970364
Al 7.527246054164199 2.727956113005814 9.923116893513772
Al 7.685759441638851 11.504100285971544 6.789623178815864
Al 7.3960290507071775 10.039337431357026 9.146335448335481
Al 7.218882400918688 1.6965357785342892 7.430329677927619
Al 8.241111806300488 5.130317304421883 3.582363652080976
Al 8.535064611239147 1.632902978331639 5.11075166526687
Al 7.738074980135337 8.801841351908921 6.481241342253201
Al 7.345210735424147 7.956367730104482 10.896768778056684
Al 6.461020904599312 7.158989032603098 8.172559290615267
Al 7.354778470402235 3.951020476812365 5.954153456097093
Al 6.80941663653099 9.819278293156746 4.086194926781004
Al 4.885799420738954 1.7660597312079342 8.810015305563732
Al 6.044579740644412 4.212638405690974 8.238362274836293
Al 6.464347674574326 2.6257264467824863 3.7673588834841163
Al 6.475757346744737 7.186007582445369 2.944584633721509
Al 4.567617223854492 11.07362528346213 3.1759869656789546
Al 5.478935100291247 5.251251565316844 4.58280474575263
Al 6.049040409204704 4.573418106549686 1.9272289692605251
Al 5.357036327176924 11.763181941209375 5.5558664971553915
Al 4.9408704795557 8.778599782517595 9.935728182918812
Al 5.465202546516873 7.821674289952396 5.547142613864062
Al 5.041368124640717 3.642132243988555 10.716671323055188
Al 5.292245908952669 10.037046105411632 7.582216865938492
Al 4.453772023737261 5.8209088692829685 6.947662622538211
Al 4.7968191095619455 2.8163039418767757 6.114234539860555
Al 4.4314815156117255 6.092757447595868 9.766720335137814
Al 3.9200516739268028 3.3331193849236063 3.349327312373261
Al 4.160107248248523 8.495260120140273 3.190544135106891
Al 3.723461110442977 5.879029799053736 2.5742230165674163
Al 3.2182138328936847 3.803129259192149 8.313310517682856
Al 3.5060390042835876 9.754851503494859 5.503299473429534
Al 3.366562658395794 8.204629132836946 7.7545015920644165
Al 2.617513825001882 4.4416226347148475 5.44838975431781
Al 2.714502086508258 7.189964333364847 5.171418909188204
Al 1.743208050431154 6.0033300479775225 7.652431445921475
