45
Energy = -142.94742295 eV
Al 9.510367523631022 3.3094294592532045 3.5061071022045436
Al 7.549427308044107 4.8327329174290306 2.1549135501356687
Al 5.824837722310666 6.835190622875336 1.4787121656947235
Al 10.112402810745108 5.849232230348253 3.1302999758271732
Al 8.28632793191218 7.585329511171661 2.639747030870647
Al 6.490531459181221 9.484252606441343 2.0617476712387766
Al 6.739242038784714 3.0584220312022916 4.291016855229753
Al 5.230827002501595 5.177149412190852 3.6111795382006027
Al 8.854141949458292 3.1497279353520486 6.061828767386476
Al 10.716206159913085 5.091396325759366 5.744673888341137
Al 3.497284346268494 7.1955044604733445 2.7992473613889897
Al 7.804383241825822 5.534131949433821 4.787557264184496
Al 9.586521528923887 7.573801666373519 5.380899798861083
Al 5.811458085239153 7.783796554488528 4.18552162769503
Al 4.3046982371432545 3.4290304630720074 5.473716998030732
Al 8.326633502737879 2.0881206126620593 8.434931600827513
Al 7.858445431493828 9.596075599205262 4.379959404969723
Al 6.484642849455098 3.8705273139220595 7.073796836766405
Al 2.6598777991536022 5.5376774337029975 4.722703054161226
Al 8.519914198488019 5.734287331851257 7.344798437981415
Al 10.28981795848302 4.0402678543226465 8.57463542857154
Al 3.9223660703164356 9.767976236434178 3.4648225246924653
Al 7.021336408671263 7.907504894126138 6.536129840440796
Al 9.164333786372323 10.113715343087728 6.577633268496029
Al 5.93388709193271 11.509057478306882 3.907602037881496
Al 1.8779722823453644 3.8342801770172525 6.638027856142071
Al 4.956601544494164 6.005148773817957 6.2104641462353
Al 2.9976827968041775 8.189092032746139 5.47355989387935
Al 7.703985235352651 4.282655181380147 9.7547508044201
Al 5.822022630787414 2.3999103189336135 9.338100022492922
Al 9.237918089521406 8.245316969450233 8.25346729679596
Al 4.015854137544821 4.145974464137643 8.242026344723534
Al 9.462971408478841 6.245891683475127 9.951828980219195
Al 5.055314815469631 9.861778097478036 5.953031663941622
Al 2.4030883318392857 6.3932701899822355 7.357149954088567
Al 6.209363022270065 6.25363408424374 8.664369586006561
Al 6.9833026138491485 11.614428979198937 6.387338884201593
Al 4.442364854140598 8.195477493877357 7.881168349621429
Al 5.203086541036155 4.484571185711225 10.833247229425384
Al 3.5368510866194236 6.43833922314527 9.849149266476639
Al 7.117966862101654 6.397759645182077 11.403783026000287
Al 8.224077159244802 8.767876613424393 10.726605122935593
Al 6.765179738620346 9.834447775357575 8.487849668198432
Al 5.499756744318725 8.282864459330993 10.39510779868425
Al 4.511580907621449 6.599797654071953 12.401645320880336
