40
Energy = -126.38203945 eV
Al 10.057488135026768 5.551371627039022 1.8535378438553045
Al 10.37457383593257 6.6442819416764385 4.316402293014534
Al 10.665301871857853 7.573584205545151 6.82506694966164
Al 11.178055916273927 8.580644616012616 9.275891823490078
Al 8.265580832086012 7.422779284050473 2.6839917817155383
Al 9.709937252496468 3.9484588577946806 4.087777291162719
Al 8.603748862864993 8.51684211063579 5.218082408022735
Al 9.912482314429415 4.956243910980999 6.585090110978632
Al 6.440758513067646 9.061871948521988 3.6651574967645564
Al 9.06508220911993 9.6436966734882 7.799950426357914
Al 6.9644616818593255 10.323350413179769 6.3822748142893335
Al 7.500495536830742 4.727834028900784 2.412785583904296
Al 9.94554980686962 6.076164569073329 9.15606203082702
Al 7.719142335491916 5.859697793620842 4.974987969531863
Al 4.844156806705332 10.745114619573366 4.782460678950199
Al 8.71706004083683 8.31810672061427 10.235464040848672
Al 5.616632455764504 6.398823041138648 3.16530198834318
Al 7.696305544060209 2.2512342319833527 3.6283522612633807
Al 8.00282567253039 7.078805475840042 7.507684461297137
Al 6.552933439527161 9.035779328525235 8.919885271413921
Al 4.528882422247037 9.742023749489437 7.466323655287584
Al 6.097711111894641 1.4642763800940193 5.54786941103283
Al 3.8320868936573658 8.114908488412226 4.064678006618852
Al 8.175137327288791 4.174614122382639 8.671825215346123
Al 1.8507517407780296 9.60616661857581 8.08546964807275
Al 3.8732768993707816 5.549235306706134 5.191647196662489
Al 5.757912911227587 7.754074926032518 6.0128508381952175
Al 6.038143449780264 5.24451300522144 7.037207884808122
Al 6.979493684040067 6.361479227272651 9.974277838742678
Al 7.880278157867537 3.3012112553449393 6.211605811636753
Al 5.748594619477832 3.93476423244227 4.460995056648363
Al 2.486574193944273 10.03895772072264 5.589729353298903
Al 1.8380212964982099 7.113478842397641 9.025067394297604
Al 5.593493003298437 4.144631203507208 9.484748770519014
Al 2.994326786647175 5.014555228890653 7.6735430465070085
Al 4.69092170621724 7.076151777352647 8.727398313510617
Al 4.557677844790906 2.9619827410121506 6.990944205638314
Al 2.9445584326805188 7.558351800377213 6.5787019329294205
Al 3.2558526196369684 2.8563986625348963 9.35540971260928
Al 3.080776701107176 5.3105841791191235 10.410544048028028
