44
Energy = -137.84864607 eV
Al 10.109057822501553 3.294255556160707 5.881215216793033
Al 6.844136365934609 2.8365134865674997 6.833678614413841
Al 8.038218494434751 3.0301889316316974 4.3418159035081505
Al 5.59108226477123 2.964343841859684 3.400535826561239
Al 8.778752954243425 4.612150830158467 7.7554643986453184
Al 9.021600629715396 5.492644164281232 4.833798179977846
Al 6.0978222656127254 0.9853019634948038 8.682994279644316
Al 11.021068237036623 5.704307509047241 6.6065219124188115
Al 7.333455670792277 5.052010243830475 2.6929139717579287
Al 5.203163366678934 4.5226368434590505 1.1671821786799543
Al 4.5393771544907 3.14224231681121 8.696769306832177
Al 7.253245780842645 3.2203260286561557 9.630521350999983
Al 10.554130128808344 6.311992196650322 9.102377180603357
Al 4.263997854727276 3.340562961846187 5.732409488565169
Al 6.23394325932914 5.325751895467335 7.95925081946799
Al 7.605776796861305 7.496754496428059 4.020951076421062
Al 10.152771855862287 7.974560865592676 5.037351413291227
Al 4.049409505208466 5.218584129810887 3.4135180519253607
Al 7.9149447959101105 6.037404974935765 10.01954114856802
Al 5.690864794267218 7.065458517498459 1.97388216118036
Al 6.283562933081623 5.248767667918648 5.3074392289410905
Al 8.102048803668776 7.230724863106477 7.0216083663159905
Al 4.82347774369108 7.64697247540414 4.487008639081973
Al 3.378987443118947 5.892651034231936 5.862260320983952
Al 9.864042608502885 7.2815037335396715 11.444555842738414
Al 2.205012246336286 3.9550605290616807 7.419479977086434
Al 8.667684930134833 10.198675922557618 4.091004598492921
Al 5.245559560506891 7.645467706791632 7.18661611977786
Al 5.466372793884615 4.9673688346865426 10.649383597703324
Al 9.262581897414622 9.873717667673036 6.899406174478482
Al 6.1286274840015755 9.542976372421522 2.9655328168735986
Al 9.386991489963462 8.692100642435692 9.197365638662552
Al 3.725871446549294 5.775940194171261 8.774102916997746
Al 7.532173157157809 8.602325187146105 11.228825520156974
Al 2.8650748392765673 8.556651743835738 6.173008117289352
Al 1.4504359455515323 6.649629129008514 7.641791912596792
Al 6.478869067669218 11.849448540492372 4.347374848237223
Al 5.435781587464468 7.634851121487302 10.015744351576172
Al 6.9673316698030545 9.488286198259205 8.574470082322765
Al 6.7104814905978305 9.53369892568212 5.874639796057958
Al 4.623460822956276 10.31802294332321 7.652544625481652
Al 3.1334203859978844 8.46047036537287 8.918550703515612
Al 4.314185902597896 10.387340858692053 4.918973386342756
Al 11.141142611334514 10.429354447804032 5.055618797325737
