41
Energy = -129.56718225 eV
Al 5.935912901824235 11.014356049666047 7.015523062370046
Al 3.6753257657164853 9.036278856242031 7.3734844337949275
Al 7.964110355899367 10.73981640979999 8.798458286543022
Al 5.832523881719836 9.001340245588304 8.956893952556603
Al 8.15148153523193 8.438833958085615 10.344768436023784
Al 4.039817941749038 10.689741342530285 5.209355399970276
Al 2.913540504944255 6.547836152793685 6.644302646659291
Al 4.971783816362713 6.05130998567481 4.767498578601441
Al 5.342356050424133 6.606749483123761 7.884453199529402
Al 8.497675334538894 10.622539686525327 5.84903779755408
Al 6.021896388576786 6.896105222959983 10.721643186816149
Al 3.4212378330405504 4.608820737094971 8.461721894111733
Al 10.264109027613449 10.047743734453126 10.322580139856955
Al 3.4068923335605654 8.299468273117673 4.348611070121635
Al 5.821145197151673 8.499762800752544 5.818814867587423
Al 10.378415680847361 10.238492807714028 7.642181377451944
Al 8.102199535869033 8.346843753640277 7.3757736278816015
Al 2.2057588349734956 5.911407089398341 4.035241914539199
Al 5.883103538819895 4.505168963890941 9.62224583314742
Al 6.498635643803679 10.608741921114396 4.079515227387142
Al 2.828713793704427 3.9750636797579166 5.738286246741061
Al 5.784456503410165 8.170944560139427 3.007298852995909
Al 7.515942109679734 5.9690774964610105 6.071045874099846
Al 8.152500818349647 8.31219216910932 4.439491067140246
Al 3.576460087081625 2.114413965355674 7.409496071140936
Al 10.414392766016345 7.725283532756392 8.81409610456092
Al 10.46923683844406 8.30529355896254 5.9570369938553185
Al 5.518166879098237 4.0713377279515806 6.745030652183165
Al 8.004379218277412 6.152034626866572 8.9643403847012
Al 6.125283769060172 2.0101735926138975 8.710571748368354
Al 5.524639353376328 5.703982036074438 2.019246841337844
Al 3.9481589459460835 3.9870253925832237 3.16182908718382
Al 7.8816890183506505 5.987609507532064 3.113988300964919
Al 6.592502431625495 3.9136307194093227 4.158428386278398
Al 4.7561765433122005 2.0903988170588765 4.866562662466943
Al 9.98700831794702 6.171972939499541 4.606539185011747
Al 9.180409839981726 3.795130516701377 5.4078778404359396
Al 5.438629398184696 0.19918399276337803 6.829729742746363
Al 10.130098275135 5.509375428513981 7.335850157738203
Al 7.303967839663938 2.0081370754216317 6.018925026300691
Al 8.161220099145476 3.7383361387606704 7.974178789702726
