49
Energy = -156.25440623 eV
Al 9.922151928296437 5.954778976547345 10.752347510675438
Al 10.250896995401625 4.512819305462659 8.375470108850243
Al 10.76867840116654 7.821822687510698 6.090774863985667
Al 9.297932744082656 3.2755524992923544 10.859596365821321
Al 9.390750492602042 7.289262891371313 8.47829568148459
Al 7.49858118500914 4.988761985032676 12.067203265101105
Al 10.39487370811371 5.226227216477323 5.8189678226312616
Al 9.10330876704858 9.60972321563802 7.067013790066033
Al 7.462395293456425 7.316963089862208 10.777105632400804
Al 10.008340865386215 6.801671805209871 3.4519212739231593
Al 8.48794464474158 2.432518544558397 8.40178622128583
Al 7.775122852223103 5.071864666017513 9.303073252934828
Al 8.162456927320624 6.94829512037696 5.727919493346325
Al 7.5691452744109435 9.381985715190288 9.288074631904747
Al 7.973173054004063 11.487710012784122 4.945103701379842
Al 6.516682829600878 2.969121623922252 10.386627586639893
Al 9.291621501461751 2.6624111509234045 5.854860332412228
Al 7.238480805209856 11.472582212237462 7.783944437731492
Al 8.971605652917047 9.150311410846319 4.3124669221095555
Al 5.317437747355693 5.533336342389166 10.386258960708748
Al 8.423018427474787 4.668651706026097 4.039730196153357
Al 7.5354334403799506 4.589000991261475 6.713552822597844
Al 7.105867948122707 13.606425853113663 6.27214177696796
Al 6.5843936936297345 7.178214123441505 7.941037992735142
Al 6.533594475793573 9.095939091385857 5.851536524683819
Al 5.978061936539713 2.3686205210652678 7.526452109032356
Al 5.060591863102465 9.793862291055992 8.066761713637046
Al 5.317949098858969 11.684194400116976 5.78332209527112
Al 6.632575498713268 2.658371035997602 4.860281243721544
Al 4.924298523976692 5.022789442031748 7.469445119389449
Al 6.112565963409348 10.073161045409865 3.3404506150006608
Al 7.169638398806489 7.448718812330526 3.1365264258789995
Al 4.031016007628404 7.425205316878652 9.045065610583686
Al 5.792668088800984 5.52374662757987 4.6594243136523845
Al 6.73630792419856 3.5142365473913917 2.3586410312293746
Al 8.159911831451126 5.598811424897497 1.416569805935727
Al 4.115355818675773 3.2736050980449094 9.37286794560928
Al 4.436642370927071 7.378742658977793 6.230900928762234
Al 2.502190586454391 9.124651437145506 7.40756064703032
Al 3.9098245627868775 2.5974840938332666 5.764230809518278
Al 3.734700364244323 9.794784803928584 5.01858603697322
Al 2.398307496214825 3.887555752213168 7.538578975173827
Al 4.556481145018729 7.810284764930345 3.4543134854537385
Al 5.385538307937004 5.795216342309203 1.828590089567688
Al 4.25025205623111 3.5976478298843904 3.3241986301252684
Al 3.0629656723302174 5.160071960189938 5.261535357218504
Al 2.0289484971670486 6.517835239164928 7.37932646950041
Al 1.9945276317937064 7.710227582783851 4.751286559403248
Al 2.7899052313318453 5.85933726676823 2.723387345610717
