45
Energy = -142.37695447 eV
Al 8.696137093208458 2.624994495504888 4.808314813124638
Al 9.717193643101515 4.85642790008211 5.627247334697122
Al 9.080127625222316 7.08196520603402 4.184108884982743
Al 11.38237115450737 7.107470839208792 5.628931198704538
Al 8.149147452319085 4.797717359532361 3.237873248221072
Al 6.684161508517719 2.6558757174526537 2.7359991414393234
Al 7.78637742117981 1.4445153293645012 7.114516159800092
Al 9.865089501722572 6.27003671742849 7.916875911826991
Al 7.902375082332317 4.182753047526776 7.663332522695102
Al 6.228202559272101 1.2689813054055026 4.940928849277855
Al 10.644833818306031 9.28611930670437 4.106484042700325
Al 8.047433157781358 9.296514645806008 3.132166472543157
Al 7.460613437051048 6.5790617386977335 6.494645549236419
Al 6.432613484808244 4.263677826606033 5.311938641682742
Al 6.4322904647955585 6.812876764036006 3.9645682119121832
Al 9.458568810288616 8.735962136280774 6.546289559666168
Al 4.888607571306747 4.726724513387945 3.0282416276279176
Al 8.094739922569941 4.426051656181256 10.599080859168879
Al 9.71767454648731 6.496267142664621 10.529932619858121
Al 6.881403617521673 2.3518839633199824 9.48664984073272
Al 5.350218744174691 2.5806244218858816 7.142477366926892
Al 3.9774953495598973 2.7832941757564833 4.795108994101006
Al 7.197074753264147 6.543405106768955 9.255013630274807
Al 8.787314788957891 11.002753043012898 5.181777690210861
Al 5.479561457585486 9.180603538950677 2.953754375451235
Al 5.4709860897059315 5.0352320806263435 10.77916156032356
Al 3.796668476162005 7.25827641107254 3.4906008264454726
Al 4.244414307796076 2.9386008765197507 9.549331210475568
Al 2.8658110460572193 3.5831654608274293 7.369637852580161
Al 6.851805306826849 9.103720212153094 5.640419105043902
Al 5.185673333425646 5.157519923368774 7.889221176641701
Al 3.4985824812231727 5.321434980002433 5.4101090105486325
Al 8.880484715717126 8.62248488771242 9.248099722828194
Al 4.864382770697614 7.395243071012872 6.381442528098136
Al 8.050866897697288 10.72068939804368 7.8237944722961155
Al 6.065099408576072 11.370958579382503 4.436519174824596
Al 6.24861181572 8.812180570875496 8.374612361023912
Al 7.275411212331432 12.963133786877348 6.390266736707756
Al 3.978737974145407 9.796962924245724 5.164502085952107
Al 2.7765822155272546 5.150233753195927 10.10412408487761
Al 2.5916129492835687 6.474631357401477 7.793596420707104
Al 2.1729976367591206 7.895535398410213 5.584565512812399
Al 5.382027452770273 11.071316546892822 7.144851065642521
Al 4.494622200078817 7.293947465176507 9.619881890818121
Al 3.50602785767407 9.22120753261914 7.962038768505471
