45
Energy = -142.58763095 eV
Al 5.612391431825112 6.627800976433384 3.2277464178000037
Al 5.3233413553469715 5.415061019816637 5.831000599457192
Al 7.109872255927071 5.695632820348529 11.53258506454513
Al 3.355804850500829 5.272181172509521 3.777303105399072
Al 10.28872720820555 7.8614417669253145 4.030380537029679
Al 10.349843546826756 8.993295307095018 6.4862196876795615
Al 4.185153534928872 10.523412728771621 4.766576217566692
Al 5.953400077896142 6.335040743415953 8.68786761938778
Al 6.8891454773176894 2.7736757238581533 5.486773432987749
Al 10.111977134340828 5.291825104783018 3.3400987745743254
Al 5.554166381150103 8.231998377912882 5.9048096869679245
Al 3.510811370873954 8.158511416919461 3.740323047172607
Al 2.831884065028439 9.188498913154177 6.571874840535748
Al 7.83923797724488 5.960070920181247 4.647127150954884
Al 8.132770279193897 7.871552752838552 2.4100860993662945
Al 8.486319468609413 2.2741810303786485 7.583138827912738
Al 10.53518737293616 7.221138546082749 8.647818486783363
Al 6.650988662879188 11.433939367994125 4.953089928015692
Al 6.578203320381795 9.631995156893828 9.34449504350297
Al 7.740726837036615 3.8464810974528145 9.629215966997695
Al 8.265610586008698 3.220178246760916 3.2709910327228764
Al 10.296468501483895 4.364770935988619 8.167225019654541
Al 5.590999949110065 3.8699733435733137 3.35771540841975
Al 3.3298747142968135 4.17767697672776 8.444473319417098
Al 3.530224439103785 6.385059805931081 10.107084452703116
Al 2.2210203650133145 4.660526363114378 6.111918188951463
Al 9.661074417446699 5.519790226025762 10.548647852564425
Al 3.4230666212268126 6.729201296768279 7.408304370338162
Al 6.021385370465097 9.361516862694405 3.175350458394948
Al 1.6858666834538127 7.07113632449862 5.33044591144976
Al 5.115733945042156 10.631683793559153 7.325080278869945
Al 8.094210002814101 9.10648348731787 4.9441219930583395
Al 7.8369894832031335 10.725858425351316 7.202269977405556
Al 8.233521523758933 7.723514860401228 10.183601318677546
Al 3.857689281353728 8.909521674456496 9.070461279662982
Al 5.5428557609528895 7.884388453379824 11.122277193423283
Al 10.266270407938283 6.229218580634246 6.142105898604124
Al 7.869432321453531 7.876188900670587 7.361574881242272
Al 9.602641412693439 3.7105121061811515 5.535539200277015
Al 5.725271009389121 3.287982354436364 7.862713686629036
Al 4.163477748170296 2.886380033654419 5.564433082501914
Al 7.776254798793184 5.126470111514062 7.139104103736729
Al 7.554418271734052 5.321234955971205 1.9169916952750294
Al 5.1582327127030165 4.192213753616119 10.434285486561242
Al 9.434435576343631 9.717761695408669 8.97173188722211
