48
Energy = -152.5231003 eV
Al 10.665410739095476 4.262691483738943 8.11208581411729
Al 10.713201806408886 3.4438935275481146 4.219121392590269
Al 9.565845400007246 2.250101195902021 6.444965527706769
Al 9.028083419296259 5.833506875997885 9.726511581854938
Al 11.249675840001997 6.0403990384665525 4.882911633618577
Al 10.609521245133065 6.920340049172223 7.437721536595311
Al 8.164513321273677 3.354776797682492 8.640475770055616
Al 9.947888837512968 8.390046520396284 9.647127106228163
Al 9.067429937341052 4.835530088696011 6.043369941926795
Al 6.933610060102681 4.387057836593204 10.804891661111613
Al 11.380149639407174 8.762782219179769 5.1597730544873714
Al 8.03159327209837 3.2310528327964985 3.8748192978506215
Al 9.130315320056202 5.596666210219798 3.1160186159874796
Al 10.001480640637377 8.143051943515905 2.8520011513729626
Al 6.7539196166398785 3.0546308110621916 6.2863255141522
Al 8.958743141101596 7.398521769041331 5.338837837630912
Al 9.831894085869756 9.637543734441941 7.138236419330184
Al 6.831308096691196 5.521676036704272 7.6901632192786495
Al 5.383217310842006 3.426704352150637 8.633538515606437
Al 7.931804335720224 7.84497917793123 7.889340202263415
Al 6.523743779285057 7.0299651930816545 10.121445131428363
Al 6.834422830189267 5.593979954093965 4.8570766859849215
Al 6.653915582708221 5.142669711447901 2.0869017663847234
Al 8.575522120030913 9.924412996296033 4.422991637747295
Al 8.026669444121547 10.252412770395072 9.225791361068952
Al 7.257106040823001 7.7672426080159 3.122748125728786
Al 4.344648194579796 5.060302758092131 10.640660834875806
Al 4.065448799249902 2.4444385859084377 6.408814340112138
Al 7.157697094011708 10.579592902159376 6.6913626537421305
Al 4.4404487524204574 6.469017966598575 8.358665297508649
Al 5.957555758887854 10.347240290149559 4.078245114913123
Al 6.467361113463752 8.176782891357453 5.676304798908954
Al 4.714111157372543 6.571196021040928 3.3600030636146347
Al 4.42694016046533 5.130254654963652 5.999322656985622
Al 2.840430174340121 4.166682080624726 8.312930581385354
Al 5.299306459238007 3.389013624926571 3.971845750182288
Al 5.537708234310655 9.079082857384815 8.339841029494366
Al 4.137514242651516 8.116682558151352 10.642316599667103
Al 2.1343174699458696 6.433469161801609 9.862716739225142
Al 4.021457228248443 7.773169313780462 6.121776916436039
Al 1.9188281213609204 4.0410164010304275 5.6738978135052545
Al 4.179493658813206 10.55629020355795 6.292608095384715
Al 2.9290245033359277 4.339961929037638 3.1484004064693654
Al 3.5637691137007166 9.038133260893483 3.79852200205368
Al 2.8622571100323366 8.900895348619404 8.32072778427179
Al 1.846465879541302 6.464648923033781 7.114388433372992
Al 2.215415613982829 6.628166864149899 4.385820792118821
Al 1.6617369657366987 9.045561572494709 5.8135707197500235
