41
Energy = -129.92186904 eV
Al 5.245460821279125 9.003963127961361 3.179291790156364
Al 9.644340745091688 7.1811243152902575 3.198575425266989
Al 10.418547857052161 9.634066931485252 4.183446701953859
Al 12.279165879034705 7.750910322074465 3.9761587192740926
Al 7.091497030660794 6.787016476827842 2.853452555137192
Al 7.867211016004525 9.335048623106394 3.583126202740768
Al 4.330164034735417 6.471636531106341 2.647118423372129
Al 3.6904571622450995 9.577590027582925 5.290685675095225
Al 8.577291605129464 4.8128135971362465 4.338436694543502
Al 6.036560473222136 4.537009115411784 3.8517021674126446
Al 8.121203106531157 7.368521497750164 5.572338570543155
Al 11.134605922990577 5.587549829155486 4.854434510016375
Al 8.969327139156807 9.979738327738286 6.323385178272317
Al 3.4851591459525753 4.67892812587215 4.5308224626791525
Al 10.861277936349335 7.885597755801542 6.334688127319903
Al 5.2479200043299965 7.031887204271756 5.2229803581894
Al 6.330158823467023 9.57978448210483 5.787927701109124
Al 2.506634205628107 7.316524716905124 4.6296275090090475
Al 8.075752159080478 2.786829686273966 6.552906362069466
Al 4.674984455987936 10.07923872755615 7.840017501320743
Al 10.452526697883645 3.2353150780720505 5.658053692544148
Al 7.331401632385666 10.077982422777337 8.349467030147139
Al 6.814105175454818 5.1933853093440545 6.512213003025029
Al 3.4268452452693268 7.752408890710456 7.296530981559609
Al 6.184854564512492 7.569490681273653 7.80458699834931
Al 9.594511244526672 5.438460343717267 7.065013621992878
Al 5.31843448341692 2.9360842171870947 5.870135835022782
Al 9.133949012933812 7.962723249568669 8.274908636782735
Al 4.36615865368884 5.009857500980509 7.533310834839022
Al 1.861167308208653 5.698429168690091 6.656033190645384
Al 2.549722818083111 3.167131258627372 6.431290615242612
Al 6.449915439092034 1.0968920000643019 7.606689881709499
Al 5.901969116142022 10.426990856412603 10.563047492562484
Al 7.9673873048719495 5.693466569670075 9.069648402978714
Al 4.420059120357709 8.319935815359495 9.861360051290045
Al 7.268174162615966 8.052300898785843 10.37990845928839
Al 6.413795797911294 3.5552191735936933 8.791277328457483
Al 5.61811248721118 5.845719211740616 10.277032805954882
Al 2.889537808750761 6.224914081175133 9.465014520213506
Al 4.081867940523102 2.0602806628215835 8.243254906432552
Al 3.9496149108699754 3.8790636366553186 10.12192952411908
