41
Energy = -129.62149559 eV
Al 3.4873071387162713 3.186169196584123 6.608393280798112
Al 5.522634242968127 2.902281388535936 8.247377745970585
Al 5.762825611508078 2.8177833260715253 5.137674502862013
Al 2.567179070094935 5.5981903209241715 6.231518589428171
Al 4.353702708462087 4.914544450087489 4.342918357242471
Al 7.907826889145549 3.1850410412498826 9.56443197227932
Al 3.4481904076473313 5.525663561688227 8.871727808356134
Al 7.82075830900804 3.25786020659298 6.724406492682009
Al 8.338084382457415 2.925944566671629 4.006605349865915
Al 6.014430527089915 5.329775143779319 9.696321599277288
Al 6.340559350668663 4.200392246930735 2.6213006490621313
Al 4.33583777846088 6.136369591711284 1.8011253332634651
Al 2.57712541047563 6.862907932390478 3.706922036558834
Al 5.398719689681795 5.264520389817456 6.9824361886247335
Al 0.7801377289285142 7.590960877719304 5.676664173812536
Al 8.187057033008934 5.5405134337885915 11.192750709331554
Al 8.550185896711412 5.5063429411903115 8.28360684217986
Al 2.6220440420696414 8.046801515090179 7.68086367711245
Al 10.237417515241276 3.10032875456238 7.8374616937173425
Al 7.08657501132566 5.343873440749579 5.047443424992606
Al 10.41388531506204 4.427212523373376 10.227069228659296
Al 4.679613210703878 7.4044610469964205 5.544943931850264
Al 5.07165252733856 7.756749690236662 8.662448311867859
Al 2.7127585268625114 9.341519673720168 5.123045131746832
Al 8.937871318216771 5.455757863234347 2.9702505567540562
Al 11.390787736567042 5.549479040709851 7.849907264895198
Al 9.72554890031966 5.11172440306681 5.674670815213745
Al 6.6879738480814614 6.995448416611942 2.95318564674469
Al 7.128187703474436 7.523333536852959 6.907182816503167
Al 7.519622899612623 7.7028167041608615 9.77914690790718
Al 4.555050915306765 8.659946569675261 3.000149381585886
Al 4.653336787819975 9.799541853432746 6.949829033224619
Al 10.226350927535004 7.14363512512216 9.843192350697663
Al 9.948776873868896 7.617036704580704 7.061447268606231
Al 8.779632698147488 7.593969110811758 4.653957484622735
Al 6.613926406534439 9.200310117649023 4.686880913550555
Al 6.8240298491536215 9.925308690921073 8.467434128482813
Al 4.6408369769524995 11.057253907890155 4.409539351887543
Al 9.412060590274379 9.61335796721213 8.968891941863205
Al 8.653177758762654 9.837778552758238 6.33964689657159
Al 6.613008079573602 11.57378276868575 6.19191880318513
