44
Energy = -138.77352262 eV
Al 7.2176418748494235 7.927719871098436 1.8096926165615301
Al 8.255620345857373 5.374320201135964 2.3757953331906823
Al 9.195028539203301 7.4871880352782805 3.982384744237648
Al 7.383875671550693 11.377976707521016 6.003331722840951
Al 4.990484803436293 6.211582795311549 1.5538620767383018
Al 4.816640008344104 8.647117233768645 3.151523513197075
Al 8.984300232089568 4.929716770947964 5.07978514904747
Al 9.167415223222159 9.34415282448947 6.188582756910329
Al 7.345324796902932 9.456194218499958 4.052784323906096
Al 10.346336376435946 6.941642182851128 6.460523261770789
Al 6.312145762746828 3.8213454777076388 1.3502949345991977
Al 6.489747385905991 6.6215543868664675 3.9688557450489617
Al 4.970713892706718 10.272503953924717 5.317631673248514
Al 8.05905103362532 10.543356216383076 8.644410581209874
Al 7.9648425985309625 2.853252848325474 3.474788257922585
Al 7.614403313749421 7.062033332060205 6.265515973304751
Al 3.585426083147601 6.290587931887409 3.84074371426407
Al 4.921660986175747 7.586069701939113 5.831642759931528
Al 6.194185075118534 9.029683704224961 7.601582668894238
Al 3.325555959686911 3.9966848097899885 2.513855894050011
Al 5.145625255628768 1.8983180155072474 2.7128410301189336
Al 8.918394048414825 7.978786461498762 8.614596000047863
Al 5.3485061493929456 11.604045840131285 7.7828523024940495
Al 3.591224794061401 2.375644223558669 4.917423570066806
Al 6.612072516263387 8.627748883905166 10.281956579603625
Al 6.825726313922498 4.097888854055864 6.590009462709216
Al 6.234285969357901 1.6351516338830043 5.277387074776981
Al 8.882809274202149 5.361070398977728 8.011782582097007
Al 2.3575816708706463 6.848076145088171 6.308962396289432
Al 3.4051803518584483 9.342788703188207 7.297959872146752
Al 6.001983563554523 6.2147187909253265 8.176458453354568
Al 5.612251165338274 4.18554902930357 4.100803724751765
Al 8.78144131976934 2.282226216579116 6.006730755864877
Al 7.848682454244788 6.25054433379991 10.432347223003548
Al 4.313823093285287 4.897465210937143 6.30622562849809
Al 1.9106559090435797 4.468991689316781 4.917862133949921
Al 4.146358000822107 8.015660887426753 9.508242689868279
Al 7.342595101634822 3.819844274430743 9.556560963966593
Al 6.930988906266996 1.722995312499309 7.961793335887572
Al 2.360802733422263 3.4009616963553477 7.397261554577806
Al 3.087552699699471 5.669580251722205 8.75427392707223
Al 4.331032609489159 1.409056177561986 7.31270710274272
Al 5.178171427632148 5.638165426923459 10.62525965300425
Al 4.799105551041519 3.57549066465672 8.767979325686316
