49
Energy = -155.81510931 eV
Al 3.5595113866700623 7.503945189240123 2.9888186114931767
Al 4.471636535647249 10.0642256608373 3.0191385296656517
Al 2.7528340858193454 9.082058529507613 5.100141632942441
Al 1.596397573197294 6.596238452885186 4.843588885129076
Al 6.038645120049731 7.923047777762852 2.0542639731379606
Al 2.0248427392552615 5.606967207015649 1.8695616193086833
Al 4.911768944319417 5.40421655993672 1.6949323781067533
Al 1.1154000283003054 3.9458567954056307 3.8514625235357216
Al 5.4207048517685505 8.392712186163617 4.937828064876738
Al 3.941608650568522 8.977628745911844 7.481955539805777
Al 2.1829400830390764 4.302270933185087 6.288547952365534
Al 4.161117862406457 6.4708319775894845 6.142357338655097
Al 7.212881643980066 10.093923886952542 3.8351938188167445
Al 3.6772910706203135 4.9397827817994155 4.0411632273633655
Al 3.1963180615848654 3.1366668995601508 1.9951453799862908
Al 8.418406874029301 7.419029481530114 2.975495847742969
Al 6.2623061625115115 5.9892093717659 4.121072436349748
Al 10.02840613358269 9.216119628335248 4.032742297771552
Al 4.36871784790552 7.008646166984152 9.390845164337005
Al 3.543241536059026 2.2441595196184574 4.527555953908212
Al 8.849641505577909 10.899419317594283 5.919380224378499
Al 6.388204233363188 7.501854035615858 7.603641700052247
Al 2.0663223344741315 6.809857937494608 7.7638831426003625
Al 6.297057553156348 10.260449682811123 6.644155000492499
Al 8.01449448960517 8.18215878197768 5.6383471102099305
Al 8.372510183280186 9.575209164959364 8.17629535301982
Al 5.799736915060008 3.347963565897521 3.275238290457228
Al 3.8865477634336827 4.662615583473594 8.266569690158597
Al 5.57232005561994 4.183118000872449 6.134209044532806
Al 8.001517208016645 3.902269284479289 4.561586223738422
Al 5.831213029857541 9.48622985636802 9.380643272170046
Al 6.5683696078789575 5.054083108072893 8.916343860211148
Al 10.487353541467954 8.710988098069611 6.701640029889681
Al 3.5200586266883414 2.05775679117377 7.117845460433227
Al 6.468326500067947 7.012076784506976 10.988650173183185
Al 10.10219194565867 6.529301849535547 4.90342024581148
Al 8.637097157340838 6.919032215754631 9.087524368564114
Al 7.952222550936028 2.869348154507004 7.110572613702842
Al 8.125228576137163 5.683478421316216 6.662502875420666
Al 6.101802776896643 1.603160615821243 5.580135890111179
Al 5.625496127848841 2.5005243875137344 8.464293446340982
Al 10.738082371878008 8.658411707380067 9.497929270652667
Al 8.248674742465582 9.044924558123055 10.783426456506874
Al 7.7397228355438665 2.7480651901625084 9.933278121967673
Al 8.330535245668065 5.101337957543065 11.18308312202515
Al 10.285074717444402 4.081812979871488 6.008834376152508
Al 11.006920753166284 6.214390779493196 7.631027474519119
Al 10.838218957005914 6.030699611757805 10.396852783870234
Al 9.52137724374935 4.296742098134349 8.736913665004952
