41
Energy = -129.01689127 eV
Al 5.117212879417359 9.152098937120083 3.5589848029873563
Al 3.1671027520132244 8.341163837793266 5.287748004853168
Al 7.057205985639981 7.225096298872344 2.9778445575715597
Al 4.880127913119869 10.383367365539206 6.147279486257623
Al 7.648811161774764 9.786411383987287 2.7145988524174185
Al 6.6617937527807545 11.456275846652668 4.543427555389285
Al 6.602160393194101 4.6962827515085594 3.296622352328727
Al 5.157528910787225 6.491709326504189 4.8606164289985765
Al 2.4718132162997195 5.753535764417486 5.339327340837594
Al 2.1121157907805843 7.149956995477282 7.663627333018566
Al 2.9821875813176444 9.694398901131242 7.856334721274774
Al 9.582290247993708 8.144783341452316 3.6914662092739867
Al 4.799255887693164 7.688471581968572 7.357812553099751
Al 7.1315990415751305 8.785710373057347 5.31573618363452
Al 4.218158037442832 4.02343437790553 4.339147847466732
Al 8.098281433817439 6.308348539346034 5.4958728017832605
Al 9.336112013145891 10.820962549678656 4.8376181706813774
Al 6.070925882688454 2.084843661155429 3.8368675099737617
Al 7.744270217572853 10.671417160260615 7.183609450771744
Al 2.108968768522761 3.198130958244593 5.921632568527713
Al 5.667397222024938 9.912613018035279 8.80753510949704
Al 8.615154188711696 2.864701577425393 3.9120377368988466
Al 9.780628287392496 8.676297789592777 6.460333915480626
Al 9.408100701429705 5.385272076895176 3.2626509133594723
Al 1.5655387405276893 4.575966742193796 8.186143777663538
Al 6.7239652207785205 3.7522440993288586 5.881569140671352
Al 6.512456656599647 5.755094731408114 7.627877883650915
Al 10.962842639794683 6.442139535689872 5.382133107299606
Al 7.666838799071116 8.130775952494044 7.977258891856112
Al 3.804903251308978 5.86386391578681 9.445690524205858
Al 4.417922967013708 1.8687866398770256 5.970231630708589
Al 4.249901409259032 4.5035290805904635 7.1038825515290025
Al 5.869373928150453 7.467547493896998 9.92129876446979
Al 9.75849151661809 4.120543523225655 6.009325029972647
Al 8.49291814554185 1.6307268051332697 6.4707107441596525
Al 9.6347969959326 6.234883566564766 7.795417584832999
Al 3.535807471122965 3.095182540954052 9.445497809577864
Al 8.19839731202759 3.696424179488786 8.2061067350602
Al 8.037835945848013 5.860231988641729 9.88925225996595
Al 6.037844229389683 1.9842686859894252 8.10041277916298
Al 5.966567064283342 4.16180281736631 9.779218188925784
