40
Energy = -125.85452166 eV
Al 9.901108364379123 6.8179441017480595 5.348855015125123
Al 11.081381937517763 7.768881840309636 7.449734583625771
Al 9.055533499019507 5.789179097763967 3.0516539907674924
Al 9.286516188035177 4.181570219519261 5.30533544365914
Al 9.586829522160425 9.5366734107765 6.045063605026861
Al 9.633227782582194 5.4222792803222335 7.705423015278948
Al 8.970118740735614 8.547724937064322 3.4800284199209983
Al 9.512540719136311 7.533651704827264 9.520692634831438
Al 7.806785858172591 3.259019717497285 8.210748912890827
Al 7.6087692451750435 10.440268644686462 7.715300539928392
Al 7.069218228213931 6.780265294374184 4.689004243583111
Al 7.016870922769979 4.108512585628079 3.855721037756221
Al 7.748751046814722 2.109302500846627 5.642050971288728
Al 7.800632966016108 7.632276651649899 7.251013937112459
Al 6.912588149446056 5.638760837320451 1.5184085004840788
Al 6.728031208963228 5.043103449557723 6.549465249163145
Al 6.990544455762547 9.49810680699893 5.300184524360155
Al 7.509080589075184 5.878495575359908 9.35976766773055
Al 7.269074963475274 8.88183123692277 9.854241867111572
Al 6.447866914009658 8.41231533303985 2.6104018758548917
Al 5.433938790601152 2.52361005890094 7.010451869442486
Al 5.529906520614985 1.7973461021557142 4.195702993194448
Al 5.341755964474848 4.486541635167003 8.9202948880915
Al 5.166410333869356 7.331625571667901 9.563618854847086
Al 5.038692619555549 3.673933382662393 2.0867532239575426
Al 4.439228860937005 4.28418862229232 4.92975170788502
Al 4.782013071376206 6.305213664233626 2.9998677532435236
Al 3.164127066818348 1.8521776549008329 5.80230472734076
Al 4.703079892518495 8.369589782030749 4.713605933861254
Al 5.191802306147877 9.155314006449819 7.413008716939437
Al 4.3706909596805135 6.5708868604059685 7.034780001368968
Al 3.140497417580373 3.9670323423323035 7.44394875923853
Al 3.0492748248193937 2.0689909179227626 3.0925219535654245
Al 3.0349381396054076 5.746196317602962 9.438275623520685
Al 2.553903882525064 4.790305488195957 2.767500590327634
Al 2.761031430243393 8.449516080526864 8.932370511289514
Al 2.7445342420059364 6.536549528608424 4.736795529439631
Al 1.5430780439686045 4.084340264266863 5.227556862686654
Al 2.6085342567528653 8.747949822856791 6.307385341666941
Al 1.668400365742803 6.28730990170073 7.191034977640957
