48
Energy = -152.29563706 eV
Al 10.039734796733713 5.254240926425496 3.51913867595001
Al 10.65613459997452 4.955881269549907 6.1737783428665844
Al 8.254990098726836 3.5387699806535773 2.3641063237555486
Al 9.055622883931298 3.0644363306036744 4.909889158897413
Al 11.337318805034874 7.321409529941391 4.976291977773628
Al 9.833533008203554 9.757206362686636 5.646619365764725
Al 9.66874821399503 5.338960826409497 8.778748049582696
Al 8.899062543652612 7.689656443050749 3.817777854572169
Al 10.674079053270443 9.282940158090561 8.190587831599743
Al 6.507240277272577 2.475985543983377 4.192467917894536
Al 7.680992548514087 3.468955375201979 9.079371243548668
Al 7.952387023335622 4.86734064958963 6.6796854826960415
Al 9.80144128982015 2.7792168999402813 7.518562559674766
Al 5.332079741970862 7.0893663269926925 5.2111569215092635
Al 4.862590758931235 6.1623413273872005 2.5595648732397223
Al 9.053183043400855 7.901944421692548 9.813865122721941
Al 7.142972369325648 5.238133061055531 4.2534385130474925
Al 7.50831361928546 11.4770350641718 6.038357297512704
Al 7.2702014497153105 8.704888290330384 5.765846943023634
Al 7.280364669119047 1.9521082004192847 6.7729265445485485
Al 7.613150411431871 6.11794939508539 1.815725022436796
Al 11.67652114574577 6.902186420295957 7.826921022437622
Al 9.200024361928687 7.287168819937451 6.845877457274481
Al 8.041877407872931 10.341110384514652 3.5932042123172865
Al 8.099665161669218 9.880892046573672 8.21106301048076
Al 5.369200876345049 1.9115454807881165 8.783537878486392
Al 7.36331964026554 5.959618197968744 10.43695920429029
Al 4.606334631475753 4.309398457936763 4.5282141205847575
Al 4.522995584695129 2.105318741299794 6.2044545097325665
Al 5.529391094925417 4.413693658506625 7.562137493227678
Al 5.379929395319225 10.26142533564466 4.685139670371707
Al 5.541772785994443 3.9305702843924197 10.56833666244604
Al 6.384527425162675 8.386993564987476 2.857004955194985
Al 2.6984474527352607 4.121789259408147 6.445156786046698
Al 6.373059557749555 8.698050620759904 10.050430487379867
Al 6.589086272668506 7.022921933575942 7.825874912106905
Al 3.295076409959573 4.264009305769501 9.102090869885725
Al 3.6729313518871827 8.583306149375213 3.4250712349212127
Al 2.8123494249853502 6.29427810527225 4.63416787893211
Al 3.8813819861259127 6.537394702831871 7.35845857483732
Al 4.713120076220602 6.48216626376848 10.105327588814157
Al 5.571109461626918 10.105402830614576 7.497116902828903
Al 3.4679905197916745 9.004297690396603 6.218374204951764
Al 2.0946929295052734 6.746387712947955 9.3700496548779
Al 1.2342505727698716 6.326302734836791 6.7639808773617105
Al 3.774203283813174 8.86823626555211 8.988526647096325
Al 1.1821412711395256 8.517844495090408 4.958186606211435
Al 1.1785684891540524 8.9666371059642 7.743843253721896
