41
Energy = -129.46535886 eV
Al 9.269685311677103 3.7703523184413275 4.4225420186984685
Al 9.205523008304246 4.447013879121092 1.8359657647090386
Al 9.129386775806573 3.3815537912837477 6.992895963443699
Al 9.505063532169258 6.01638216117139 6.190389163275199
Al 9.686908258289392 6.496748912148549 3.6508509063621055
Al 6.928039047688018 3.3678093881497833 2.9454208126143424
Al 9.080049115234239 7.206012302581887 1.2071081999551907
Al 9.097620553720727 2.479245268006024 9.457415058386625
Al 6.756316409835362 3.0939355530908528 5.596250635797949
Al 9.70711329155667 5.339548772515078 8.751230096470305
Al 7.143171708242651 5.638865150455839 4.6081934632093935
Al 9.793983506871166 8.057500763372035 7.956156387025908
Al 9.887990300131442 8.704553408683845 5.459787932913244
Al 6.854196725376529 5.856877847783408 1.7274491919208386
Al 9.563426517169011 9.290167311057019 2.9178448957840284
Al 6.591864303724066 2.7045415864952793 8.361132667985686
Al 7.733914997784217 4.519700629359494 10.389650455942087
Al 7.122834120651927 5.308539539324015 7.496422073560411
Al 4.635928279765657 4.266645239426241 4.19835707021921
Al 7.382268700622555 7.881234790467257 6.3355857225952485
Al 7.218998382123305 8.060069971741033 3.334890339974926
Al 7.828941719975641 7.057340454654343 9.585570244373914
Al 4.522723080223035 3.7926685631093497 7.054976360748868
Al 4.9142930450606395 6.426592607833443 6.021546975729272
Al 5.221285273690301 4.929775028567935 9.487688081570242
Al 4.787797984817754 6.756220400837898 3.0365449078976403
Al 7.678296389482862 9.593171601277286 8.655981136335928
Al 7.596471079537906 10.238532314374629 4.969805246293143
Al 6.240725269715832 6.310889460354082 11.75426006923039
Al 5.498566746824609 7.661158908549168 8.35967826435866
Al 2.4952123104018984 4.973418882575559 5.79038694145059
Al 5.131191576606269 8.954403976906613 4.770750481858075
Al 3.210925901256069 6.0307123521653665 8.16482815229846
Al 6.137920329255079 8.855636690838448 10.79298865387801
Al 2.8091566736172573 7.45521410049842 4.579886890109272
Al 3.8785834247217004 7.11951745378896 10.615021337145016
Al 5.707245131341371 10.388700437287687 7.0591303545929165
Al 3.4717645075474795 8.754456413960408 6.8639977425965535
Al 1.177951324115896 7.201813464805299 6.800542898193067
Al 4.154135350025567 9.925312081861259 9.299225589695517
Al 1.908863847736926 8.3535000337772 9.167984663498624
