48
Energy = -153.74849396 eV
Al 9.566419058366325 4.664322639254423 5.918634557835322
Al 7.334990500092233 5.493274023824575 4.556736210338302
Al 7.283190560314844 4.7069291266512305 10.21621394971425
Al 1.1579517472545737 7.068564062041531 4.730144837177349
Al 8.69809861142239 6.811120705599493 9.456509254957677
Al 9.594394195559472 4.3119815499820415 8.632577867975627
Al 6.095897057731066 7.3657538659540425 6.215608332913482
Al 5.886372543394291 2.8362044873758303 8.482386761263664
Al 4.733576652602017 9.18211202288208 7.984989395819005
Al 10.921418957416659 6.7256910387153095 4.739850326690428
Al 2.2860487910831275 4.532480175529333 8.57382546393186
Al 3.476496623446055 2.5721886064216055 6.970089500179165
Al 3.387115488745726 7.514139692708843 6.2149487622822654
Al 5.994419132414162 7.602427692746002 3.2698285173102195
Al 10.10920113913334 9.270548399129668 4.506314357419271
Al 2.3239648391581684 5.171503360757276 3.2058438648811083
Al 5.9248542233890795 3.4958432358060545 2.9471547992848395
Al 3.2909553749504097 7.866168415892881 3.083764934823802
Al 7.314824476990531 5.153554047344903 7.4056479135063285
Al 8.744135204491005 7.582643151750546 2.970725349249022
Al 4.546113972165559 5.860716083490959 1.7375604746268138
Al 4.656478717306931 5.550105301118645 4.54462667340905
Al 3.247207114327533 7.1206841713728695 9.337825151472183
Al 1.1375588015919527 6.736195111405357 7.52102644014063
Al 8.28685343774754 2.7746040044999813 4.344673682355815
Al 8.823771754117557 7.491558609213385 6.25001923961684
Al 10.901731476589132 6.389633519347986 7.566993479478229
Al 7.435030010956852 8.891447700984246 8.157115043341205
Al 2.353820540146007 4.85840702124794 5.8910146517818545
Al 9.103008130102598 10.646628736010017 6.626944214934993
Al 2.105257580731233 9.211532028999127 7.983395468163596
Al 7.459589536453402 9.301602850346782 4.704864422409557
Al 10.081799602997082 8.810169264845626 8.379686646935795
Al 5.9531287392894106 6.90465690410521 9.132065912963714
Al 2.127099076237257 9.581542009135264 4.877870398675826
Al 7.34269894080988 5.7174527856139505 1.7197674881237295
Al 4.487192240458883 4.853549714969726 10.193213078043122
Al 6.380360332741447 10.921849460401747 6.640287904469454
Al 8.268605238709943 2.4599344723012666 6.987607183009384
Al 8.244011459718458 2.205975115311174 9.693498899034138
Al 3.495327343853542 2.8881409969131324 4.320953736069181
Al 9.632528999803094 4.958258537448966 3.1983131095179944
Al 4.755160647991782 9.548349850528387 4.902921223581738
Al 3.5161970409008005 2.341823530818891 9.66435702950408
Al 4.636442154776482 5.210078449292565 7.393912106831046
Al 5.907371891633825 3.2606859521086786 5.725952320289325
Al 8.299933180774477 3.1620836416311153 1.6549153676930852
Al 3.5727851193189384 3.2962721363773446 1.648211956181875
