43
Energy = -136.00819154 eV
Al 8.117064429472393 8.13206875657928 10.194914775853482
Al 10.793237648359472 8.127456920337613 5.3914347502935005
Al 10.449601939738042 5.792366183885709 6.53020044498605
Al 9.61581886267827 8.145436018149832 7.863244942530918
Al 9.202776518818467 5.806024187206605 8.956991070118232
Al 10.201998284248699 3.4017189669679118 7.772134323164031
Al 8.694369496942057 3.478257848318353 10.206447059060238
Al 6.154820735213536 7.7944174039006136 12.179017352452183
Al 7.306287626308683 5.637580016119415 11.065706007541445
Al 7.244600380040417 9.506316931365232 8.121330434972515
Al 8.558042412461873 9.51337263733453 5.800084549714359
Al 9.425937885391217 6.265177293832609 3.790198485134133
Al 9.43091958950879 9.063993410267043 3.2791392921640727
Al 5.293807222339017 8.68903143702948 9.812106326013678
Al 9.048422514479277 3.950161035524288 5.116673161283201
Al 7.852505712205215 6.712988034183558 5.963091902162132
Al 6.615406049373714 6.545233535793489 8.38378245955258
Al 7.589300702100255 4.073254601855221 7.569488092774494
Al 7.3555081468693935 1.56952885398719 8.990627133244473
Al 5.8851515229339775 3.75703472057554 9.785733190328136
Al 8.432012043822319 1.6727536758318646 6.493039818319715
Al 5.354793500686495 2.4424578363412697 7.510221826990181
Al 5.466148215869781 5.131940500557271 6.241268355750013
Al 4.650739435360934 6.122878602645067 10.287435006410469
Al 6.756051228736578 11.48291484056177 6.427873218046159
Al 7.064430269427628 7.83847251949774 3.1799091519689506
Al 7.133636717076001 10.680978152445052 3.802067900342926
Al 5.978080250960105 8.678006469522282 5.679944320873029
Al 4.514765040388992 9.982316850060007 7.628861965531099
Al 6.5023085131987 2.8129511908345775 5.044490372479601
Al 6.968277340713906 5.124523008725511 3.733285304429425
Al 4.08871299435568 7.219612806880852 7.756288970594086
Al 4.792709899343052 6.711196023816175 4.145461852821597
Al 4.8255296935224266 7.446993953621056 1.5039960104123158
Al 2.7499940137771577 5.809144098788421 5.706754827422788
Al 3.6666630462556067 4.621416629109121 8.264778650861969
Al 4.4250759202668 11.19840351731092 5.220526287167516
Al 4.783473515629442 9.49971773369057 3.1790346278766837
Al 3.2245491130177544 8.647297760059072 5.6292831777895005
Al 3.274362562848385 3.093431232679895 6.0369289828198385
Al 4.389322192312756 3.8904091156609457 3.7952520241583367
Al 3.131917196012642 5.554989736191587 2.2793679607613835
Al 2.5176888459572693 7.902594180979303 3.208402861853439
