48
Energy = -153.30077203 eV
Al 5.389895219934049 1.7345226199186154 6.548592442912508
Al 7.952292241564946 1.8896702319118914 7.260344820173542
Al 5.179610870964692 4.503511420052379 11.116667045968128
Al 5.806242276458275 3.3567024907583036 8.692689278744336
Al 10.402235547282274 3.0400153645292396 7.55956755786168
Al 3.5191401596857332 4.871274446338484 9.057454649347877
Al 7.776009765593678 4.389468114749639 10.606331697095188
Al 7.058669255579582 1.8051335741288586 4.453893453071712
Al 4.681373248820024 3.2111515084403064 4.212426120977942
Al 3.4899102918938127 3.4689661740019657 6.831575754970996
Al 6.65676987925538 6.6773997594996555 11.854071554909837
Al 8.840244973544973 3.5905383465634295 5.295042858971139
Al 6.2136209486793055 4.455104369209665 6.145876540222448
Al 4.2350376513183665 7.070593341466217 10.63864171042013
Al 10.329362578597431 4.829751285295594 9.633537442490965
Al 5.992360420169623 6.119843411775716 8.69245392179084
Al 1.9393810981465491 7.120340473520796 9.227201709625449
Al 8.22694799728734 4.715834600270155 7.887706549825115
Al 9.551339526559133 5.5537001892541324 3.440827209055391
Al 8.4502820282598 6.882188035488121 9.743635188941687
Al 7.078582039295708 4.378198427663201 3.4508428534023645
Al 11.023880926721137 5.076572606405528 5.791330305944869
Al 2.54712492193465 4.791259409869741 4.574085979684507
Al 1.4298640653483634 5.208539632916245 7.211662834754888
Al 3.928537599011371 6.19639806090491 6.570445916907951
Al 10.358835398701151 6.877669819556468 7.730370747562276
Al 8.268111687890785 6.338729281467071 5.7619179846750885
Al 0.3832030614664158 6.473311259845106 5.021251810350907
Al 4.951898726286793 5.9476279793769145 3.9808833597581
Al 10.747728104035952 7.535808852698496 4.935012611405466
Al 6.388950977259659 8.591048847577431 9.804730837518479
Al 7.231088217362425 7.062378776366766 3.229934426269425
Al 5.957311972012221 7.776842988068926 5.937462227618257
Al 4.152051820791317 8.371382665517487 8.22473449558625
Al 2.7314269486071177 7.531776388242544 4.217386235817161
Al 1.7710771721786032 8.141736638359028 6.7343187618371125
Al 8.036208686039837 8.409678193930581 7.6356595990120235
Al 9.55199498642465 8.224562556973579 2.4734396266159364
Al 8.287269204371178 8.996760812358527 4.884215633505007
Al 10.392036710947028 9.448636589798186 6.7933014059879975
Al 5.014746752603125 8.640000209816572 3.4165631388682094
Al 3.8556685069512584 9.62634906686417 5.8010450774404
Al 5.974081333488598 10.149067720020602 7.5739300827035905
Al 10.602225648271883 10.138457674289368 4.096066917177542
Al 7.319750952387981 9.715628166394568 2.356025445129803
Al 6.110524289200511 10.739724030430944 4.857482139538572
Al 8.306139745746071 11.119079809206243 6.624975391171689
Al 8.407201219953103 11.705311432791493 3.9106343012628866
