46
Energy = -146.22893869 eV
Al 8.79066213067271 4.677057206235703 2.231199474661303
Al 6.857579320509659 3.084487009346291 3.232297661650752
Al 9.025883357163044 3.9976763241657305 4.824510434424263
Al 7.2716095438332085 1.7982112196444187 5.522544850678316
Al 10.079951121676817 6.440479513859644 4.0294951670338515
Al 9.003750399156218 7.395353480508527 1.7808776301066398
Al 4.494415555957234 4.353908165562328 2.9222609697289754
Al 4.811106667824932 2.963092358389525 5.2018707106263715
Al 8.039975830617562 2.4121435723247204 8.034299788702723
Al 4.703508929101569 7.034208379850973 2.942028279828204
Al 9.70050649069804 4.360677940724467 7.397002089951487
Al 7.1242618124887285 6.011678700351057 3.794851224591027
Al 2.4259003989515238 4.237401957434168 4.683729462997518
Al 5.3164737671708115 1.6994806296934435 7.4992397053400195
Al 11.055494450756402 6.623602303586646 6.487212650707772
Al 4.765802516701026 5.749757035248256 5.394931481794855
Al 8.924791175078845 8.884845803722383 4.275581197240711
Al 6.748378433438527 8.581966285957934 2.3887069292180696
Al 6.909662450671844 4.372942362495189 6.3420703490233326
Al 8.385421154502506 6.775107724877161 6.162959837531554
Al 2.481065478609174 7.158207947697274 4.607111288858115
Al 6.159517769256776 2.8084867049374953 9.92625590095835
Al 2.7637726937781846 2.999694079159898 7.042850107566697
Al 4.848616683066935 4.4472229185099375 8.017073861129052
Al 9.465984418610056 6.817597306199856 8.662353303264222
Al 6.337397314494233 8.230201350379511 5.186850191390075
Al 6.599705904784379 10.746178426255602 3.8778084390852703
Al 4.037817622028573 9.492188238098507 4.246828898123684
Al 3.5561554968671483 2.326092548254814 9.568281440788667
Al 7.502188225405112 4.989032930658474 9.001236279211552
Al 3.947008088506674 8.191850798788346 6.656729673301494
Al 10.195617632447565 9.11564096206409 6.866687759784565
Al 6.099690293614336 6.900233234041336 7.580462511688678
Al 2.533443133030148 5.826239263424948 7.061072568189389
Al 2.5626467227862 4.8605329090841405 9.560176119950865
Al 5.43292927749044 10.577375646178115 6.3884755113961695
Al 5.275864891603263 5.282897371723651 10.739051134702947
Al 8.248605541584578 10.923666980830085 5.934880799106521
Al 7.642941323370112 9.116238670050818 7.825926001743303
Al 9.572443707556687 9.081062055591984 9.893540372838471
Al 6.842471129879165 7.559846935311777 10.103103605201625
Al 3.8685544331439785 7.17321752560054 9.197980818569208
Al 9.359796381164307 11.277068846326047 8.437362286256038
Al 5.164148086686654 9.43748861477348 8.898118121451597
Al 6.74779248618378 11.87431541385289 8.24095125856881
Al 7.34820391972003 10.362858510867833 10.360676013677235
