47
Energy = -149.25311612 eV
Al 10.560905295346988 6.81562420638309 5.967206034644227
Al 9.145193743081906 9.15424812927303 5.921481530142638
Al 11.673164965796893 4.317731562539871 5.396919168814179
Al 9.814636523648403 5.5864091639174465 3.6943105591367345
Al 8.23062583539119 7.390048081457039 2.6247612720483517
Al 8.565380670793097 10.100041991346693 8.389880869855094
Al 9.104913096726836 7.474719871421519 8.132652430672241
Al 4.724716308317544 8.795377627274563 2.6608234098860026
Al 10.480357874168698 5.106278250502377 8.13275641042976
Al 6.9676963271794055 10.903577798020823 6.318864838233089
Al 6.0501718061222345 6.773880175557983 1.2069426141539696
Al 9.351226090543932 2.9385404137954323 4.077065248304691
Al 6.970263235556265 9.070483027863347 4.298399659080412
Al 7.778657590470698 6.770545045140403 5.422110312451325
Al 7.0421370790546325 7.832989855508533 9.981956857468331
Al 8.82865053815953 4.546646295828066 6.1353649234099255
Al 10.247478861582865 2.3694819314854807 6.8226535380303925
Al 8.635693143152873 5.635343671231433 10.188370879824967
Al 6.528884158695323 8.311239041102633 7.270627300079508
Al 7.434611472703473 4.658176394402838 2.6657160312686563
Al 6.0647238297113875 10.344927075705446 9.217544055867519
Al 5.688840824615084 6.423362116326054 3.8329985084477807
Al 3.7491503346934274 5.761247816097393 2.013493126679301
Al 6.894569022421169 2.0636697872483336 3.403415191604773
Al 6.082901272094007 4.380753497350265 5.547793187867883
Al 4.311500999118102 8.351020792868713 9.428653741211312
Al 7.652437326792622 2.0118265880655106 6.170293559370874
Al 4.956780239471304 10.733096352035274 4.537013266008484
Al 8.40235268344519 3.2103494163974955 8.606689015578812
Al 6.879622948060792 5.627357240778006 7.973794921278144
Al 4.984073268049088 5.891063126829744 10.011586539199827
Al 4.444895374684566 7.936778349471987 5.544182893495487
Al 4.286183463573316 5.864515059615301 7.348041804474862
Al 2.340875806458311 7.569792356317978 3.33433244547046
Al 4.755388975237209 3.634518685399683 3.284371315677624
Al 4.316355533591167 10.169946771445076 7.1737022099441
Al 5.1576344228383695 1.5915075458483785 5.373754193157413
Al 3.2475043073203436 5.405373656388207 4.829920294187725
Al 6.479841808840218 3.760162540390969 10.311769792255273
Al 3.409496325364168 3.222461280687498 6.434346931658055
Al 5.677378617354238 2.916338115836418 7.884411336905421
Al 2.411240042864998 6.2982609546865085 9.419608982760709
Al 2.483016369662471 9.690724943297921 5.078336690699508
Al 3.3830160539465663 3.6745928347835184 9.13808249987126
Al 1.1254252520798975 7.017930056762759 5.55692589084439
Al 1.6225353878268085 4.97125932644255 7.199935306045699
Al 2.4167519828363635 8.261025380465849 7.489947073680232
