45
Energy = -142.90974065 eV
Al 8.326751420255771 7.538512198370196 2.488700220286894
Al 8.501108917578822 4.85154236274912 2.598937962473263
Al 5.694081434338454 7.710096643640769 1.88030566084584
Al 5.868877836148344 5.090019429342756 2.3872715257131247
Al 9.646887021472748 6.0599385479830685 4.7489573429396215
Al 9.501702870176164 3.2562043080481735 4.551615920197892
Al 6.855619505258272 3.734944410576748 4.584134007480654
Al 10.582616104874754 1.6365878660759432 6.391601791287675
Al 8.898036777304496 8.649505483077991 4.809146871259322
Al 10.848342703201032 4.451531365994072 6.603310758125137
Al 6.902543028387387 6.464775603492506 4.778230855779017
Al 9.26204728654797 7.2171195816084195 7.1192863681445395
Al 3.4806689558180786 9.035464312738782 2.8640814004509343
Al 7.849219238041926 1.8542895287296424 6.33085137311559
Al 5.195770332368448 4.907076866114183 6.632673618894244
Al 4.227139034290925 3.8309036242829477 4.178299370690385
Al 4.259187019272753 6.603048828364933 3.9279990613257243
Al 8.596639057194812 11.084605682720154 6.063036465189577
Al 6.036607896508847 8.96257188171592 4.224341543494337
Al 8.05908714412572 4.730020116324768 6.837542291773872
Al 5.181850009995885 2.073548901297848 6.109113213551033
Al 9.352754792116658 2.8975563760037684 8.465716645062352
Al 5.901787167298601 11.33204207652207 5.797166951869013
Al 2.6087518354700094 5.314398162706774 5.626218393565054
Al 4.621245777626575 7.565598221455393 6.414231995336763
Al 6.678540026312525 6.680957849413838 8.094784355162309
Al 1.9475052965294344 7.8745412785753715 4.812344052569619
Al 6.546819664261756 2.846874084691212 8.548372147880142
Al 9.092268189706468 9.717939765914702 8.500442742980788
Al 5.090032814812876 4.897432222844859 9.55962445719084
Al 11.169755832834378 8.086903228511332 8.979179530014957
Al 6.962779138988307 8.931750453042104 6.766371125082229
Al 3.6445470085584066 10.010222300912593 5.375575611796377
Al 0.5652126827362551 6.651481305136133 6.841345718683498
Al 10.50658631884524 5.4792409633831145 8.990783776896464
Al 3.7939205936206317 3.053833002752226 8.202697827287945
Al 6.908929172233604 11.392327184980301 8.319202175569814
Al 8.75270044563355 7.356383216109805 9.962029657220736
Al 7.930090192830655 4.7763829662627115 9.756213749355485
Al 2.7329546182897686 5.698339337646359 8.262046847408458
Al 6.323960520067612 6.784280642586632 10.910948956884312
Al 2.3235551229350393 8.643057712627723 7.4995176101217575
Al 4.274040114506235 7.631643180930873 9.229246863834565
Al 4.492810367517439 10.095153805876585 7.940235922544415
Al 6.535272596276543 9.070957001034913 9.567869145833406
