44
Energy = -139.63979039 eV
Al 1.87363901559408 7.0235352785316945 9.077476325598322
Al 2.3522776557863923 4.36016976090004 8.34235507549542
Al 1.6121125214804635 6.686848265261349 6.387439729113952
Al 3.8191524053149832 8.493411140515754 10.156527640918052
Al 1.7100269635172638 4.166537294202816 5.545298820964357
Al 3.7565417204143885 8.146357304147642 7.413142611143906
Al 4.837000196657906 3.3584296711596844 8.78824859945767
Al 4.2947463115464615 5.896334103271369 9.530458227213504
Al 6.3534910022954625 7.455284310139341 10.582740106946863
Al 3.103759574253131 8.254360612770009 4.8059528427673985
Al 6.817156235363028 5.010872428466387 9.7045411096644
Al 5.038718507858242 10.271319784939307 8.51225534390808
Al 3.706116696536676 2.7210090457942453 6.39939871272397
Al 4.322317491771491 5.438125988572585 6.695273636469924
Al 3.3275374480298887 5.652293230004382 4.026378804104801
Al 3.9377463003914954 10.518822325558128 6.058929977365247
Al 5.909230714987557 10.056278194644614 11.100956220023349
Al 5.5790396323511375 3.9325759335535446 4.65834974677258
Al 6.245535872774039 7.04922994132719 7.804156968545056
Al 6.245504196390743 2.043278516878828 6.575557818291664
Al 7.116259343410357 4.590110564517177 6.927325859366753
Al 5.628422669776327 7.106164064424213 5.028168735265147
Al 7.6544208474848885 9.427385288795984 9.01686501329271
Al 7.351686276695047 2.492640076560595 8.924185853489083
Al 9.746796779961592 4.461440431297081 6.00028528490431
Al 5.639680789181458 5.582634104530273 2.5161770690337977
Al 6.462788440692329 9.379334830503 6.462470224238001
Al 5.456427837485806 9.635027581625174 3.996401484405413
Al 8.6790286716097 6.904905886651569 9.08925538099707
Al 8.521639386001546 7.330601400405319 6.343217202227821
Al 9.310817078150837 4.285679758329823 8.610139084003418
Al 7.7541646628331495 5.597798021361057 4.337218480351523
Al 6.994593302482492 7.930353299378025 2.7432744680008074
Al 7.502560174916198 3.5835562232255205 2.290960727890075
Al 8.194277261346327 2.783206753327243 4.743224694584579
Al 10.496579264521271 8.875610398206426 8.524942059106705
Al 8.31584027795918 9.573256158179563 4.543094674602066
Al 9.024614455188146 10.4842083956225 6.918153410718107
Al 8.41686681373735 6.0341195035731205 1.5665573549460046
Al 10.923337667387624 6.307843780120016 7.662830234939203
Al 11.57199253271225 6.223185081928823 5.0689102813553015
Al 10.095326174832195 4.638129712847739 3.2748050386245895
Al 9.565773890723957 7.453480112997412 3.6036455708993387
Al 10.75172317362117 8.801523676979466 5.659721731295683
