49
Energy = -155.1068628 eV
Al 0.9694049905844975 4.302896447050934 6.021962469903738
Al 3.521358448267776 2.660716021012586 4.783231526789406
Al 2.217732274542414 4.726442065730297 3.6177153289792625
Al 3.0426765936304134 3.444619985446739 7.433949505403748
Al 4.924709654894035 3.486517827695579 9.256092728020604
Al 1.6590773579226916 6.853330606377184 5.360480897298743
Al 2.434666466179133 6.076138895800348 7.819553163880154
Al 5.553487369764984 3.2544899633355815 6.509858226322914
Al 2.7173795740260465 4.889206055772863 10.271729409194295
Al 7.337201457479213 2.617716692507515 8.537672403148784
Al 6.187137426310804 2.4845975743672586 3.9460357433977915
Al 4.1266166729491465 5.435315407096925 5.7489712617520725
Al 7.945049060107198 2.1520211063544568 5.9738441581714445
Al 4.778936554022939 4.598984636396353 3.0408987103431504
Al 5.149114548076577 6.114396670126035 10.128191575997247
Al 3.5546615799137524 6.999672750949416 3.4847816635861495
Al 7.083409858976848 4.241633398616457 10.805416752880262
Al 6.53612662992134 5.380474156290715 7.79329102087901
Al 4.828703775860231 7.47445745911108 7.715813986115354
Al 9.983122228189263 2.3438742245348756 7.74182543813793
Al 2.2889893948732634 8.762221790603085 7.194826640673358
Al 2.973262586677796 7.755403056381499 9.928575368065815
Al 7.221285005964552 4.569798698941568 2.0325363039787603
Al 4.422897138421963 9.899681018564245 5.887430180021018
Al 5.936747800897671 8.803356695208349 10.036602130207408
Al 6.025622759764887 7.7045227634775655 5.414723033826642
Al 4.797128810341942 9.30870288667784 3.2797280375080122
Al 7.732776422361287 6.762876066428054 10.143296598478555
Al 6.094400900952991 6.941260326710905 2.7086946238116396
Al 8.869690527355981 3.1454682844448616 3.6622253309568653
Al 6.526796447699968 9.83107750581863 7.464439459078996
Al 9.046795095632648 4.661835361412999 8.941005930218848
Al 7.00839756237881 5.174411951386798 4.836176517615713
Al 2.2538283521100624 9.27809537519704 4.384197388794276
Al 4.0769787286610875 10.065165362146356 8.671556530658446
Al 8.570643556828161 6.963452037205127 7.361656820556348
Al 7.000506557720053 10.493923173823166 4.748464626688806
Al 8.531524177868187 9.107127956865133 9.086124699931904
Al 8.289625063282092 8.035965684358219 4.19422164466979
Al 9.41859636194039 4.547862474585134 6.088529864025813
Al 10.380598301626526 6.908776370277966 10.03327392865065
Al 7.221017422698789 9.488631438257837 2.123315802685917
Al 8.472909472171581 7.193476218186581 1.5053438073857965
Al 8.926824300345345 9.536487958123905 6.3179225516078175
Al 11.263739212135077 5.718695345277574 7.737301307087665
Al 9.55643549778529 5.634089097739768 3.5070308992897834
Al 10.876002259453477 8.531669347906409 7.876608983946297
Al 10.697087764084696 8.0638196767586 2.9523080472806518
Al 10.579617824956221 7.185941961273295 5.501864800707413
