41
Energy = -130.28051226 eV
Al 1.9399450294607807 5.203491295751216 8.36316023424922
Al 2.472163658533917 7.8820814321241714 8.895339706403322
Al 2.2239362369222655 9.554807091528973 6.737447474410971
Al 1.851015928313393 6.954792542468826 6.117200100264236
Al 4.372044611133657 4.892323017674025 9.492738710698767
Al 5.005553709569879 7.635448493982647 10.007303528634399
Al 1.5056357932176259 4.27928272132838 5.746833922336032
Al 6.682999693612489 4.527378079729387 10.692693415793276
Al 4.210738403724934 10.987900742635095 5.6147106894809555
Al 4.680915214063158 9.358465948135608 7.910029867895122
Al 3.9490836874810316 3.8697177491179744 6.9641894755999445
Al 4.310060056839296 6.618084328029381 7.317476831866682
Al 7.5638180773530905 7.261497271644181 10.876600856711
Al 4.023985606208859 8.300369523111492 5.083392839671461
Al 6.699648029583346 10.74100753154016 6.771104530684092
Al 3.7287573677155725 5.655885532213803 4.660090384649509
Al 6.257225228320306 3.255977245758218 8.198359508829972
Al 6.738492408807343 6.194861334857247 8.429179012467428
Al 7.166251397124098 9.13925810078092 8.968356705339387
Al 3.4705666023811927 2.9543436896846944 4.346570417870379
Al 6.445285538851662 8.022162554243513 6.2865531169556705
Al 9.367686430366925 7.141216458946816 8.868482680139248
Al 6.028421759179095 9.757577577913839 3.990799004206799
Al 6.1187474866616745 5.195837485034436 5.85937529476386
Al 8.920306276058499 9.063162859563123 6.900843901834522
Al 8.656000508615845 4.316818378190006 8.975723888807671
Al 5.867537982540231 2.461012609315774 5.560312227502903
Al 5.835264611519803 7.01369149479705 3.501306939080473
Al 8.442596489878749 10.780818735225488 4.699450511193653
Al 8.21236217173557 3.5434714995424605 6.35525087690412
Al 5.611917410499997 4.26401439534761 3.2153292868037417
Al 8.568338036736073 6.312270429647295 6.3791450552217706
Al 11.190508068366587 7.4616956259598535 6.839256174029658
Al 8.224502507456437 8.109086193466338 4.214282846709479
Al 10.606772120648444 4.749210722768505 7.326084345564835
Al 8.013331167593488 5.414673135788683 3.8379052133992797
Al 7.844754978184626 2.6649249156144332 3.6576861282009494
Al 10.709905773991224 9.26860323598812 4.743918470885215
Al 10.20989046476867 3.883089366209358 4.495727437513453
Al 10.452536944550449 6.630967066055914 4.212357709000833
Al 12.422948554831017 5.281173611686936 5.489882700827849
