44
Energy = -138.61709609 eV
Al 10.313595829654176 2.6206943919684096 4.598120120774217
Al 8.603464463142338 2.6932969799221453 2.4074601943965903
Al 8.368326174276081 7.784663054724482 4.1406457351212715
Al 9.14919151723279 5.174954665587212 3.8588070181741645
Al 9.958211456348556 6.8074137131935775 6.127068896563757
Al 8.225483824868933 0.628814856505237 4.2542364665324
Al 9.313056180498336 9.512161166622578 6.020267058254161
Al 9.560284473275244 4.2241000256206425 6.703155727905073
Al 7.531176502424169 6.897735369951812 1.8007872413209614
Al 8.864036657143005 1.508210609510066 6.817038016630005
Al 6.1465129937834995 11.15738612215953 5.139068770776074
Al 7.747360310935771 3.2177833551589186 4.979947047058643
Al 6.571007764440542 4.421484794401414 2.4310130677256323
Al 6.343991942441785 8.505396030679254 5.758363419587959
Al 5.941695989579112 9.069770699131743 3.0231359591217086
Al 8.232264458056845 7.895382021870818 7.910215938316328
Al 7.332780198310105 5.79375762569286 6.272588749688539
Al 7.0402278900029795 10.36283126931223 7.619940345067066
Al 6.137991890365465 1.2662096662828952 6.031266218857286
Al 6.012295716233084 1.856730931140194 3.302408783446147
Al 5.8543524569575185 6.507355087465196 4.110591782546869
Al 7.155990080385248 3.311415832005411 7.839251001817289
Al 5.5956741415277875 7.931706277941092 8.349839134442924
Al 4.813566002970287 6.771940373408435 1.5906203820799294
Al 4.175852854606884 3.1139548901869727 1.818838259697725
Al 7.1585201889773895 5.835498578285493 9.198729819836958
Al 4.328174988637739 9.96051159060011 7.116562720378843
Al 5.378330166699303 4.124908307443654 5.257425740061677
Al 3.509869798219587 2.359359356600625 4.474028896294049
Al 5.010041852046188 5.2436871547824 7.655600297680134
Al 3.6787616925094473 10.327833006097691 4.538436580044164
Al 4.341258397136835 2.5306373054808775 7.460431229839801
Al 4.461776616958497 6.241039211873271 10.128011642875261
Al 3.9657808902648064 7.1321047336289825 6.1735969422274035
Al 5.476972939837032 3.7214890630228017 9.925632566883372
Al 3.455135234327427 5.05462624848497 3.510663389399251
Al 3.4249584723219706 7.868757442545725 3.6102428112126215
Al 2.9105891324383575 8.371149924532478 8.70107425876006
Al 2.83671492627122 4.2276375929670325 9.00062400143465
Al 2.7835307643065774 4.381491740692256 6.161634834977043
Al 1.706658215355444 6.4207297439515125 10.216960273812536
Al 1.9068365627729866 8.856783802052496 6.033525315022363
Al 1.4959304903957211 6.411819856401797 4.858623829302495
Al 1.611927928713154 6.372114423467392 7.532513394687137
