43
Energy = -136.29766887 eV
Al 6.909667687208438 7.94935988572726 1.4012094947100238
Al 6.749635435984958 5.301076684479257 0.8837550691731307
Al 4.404932369826017 7.5182030619727165 2.373389604087726
Al 6.245988372342543 8.943006949127184 3.910465635355031
Al 3.6066161616164756 8.650109842173789 4.73240678113521
Al 8.884528601790729 8.71936364681421 3.029500111178575
Al 4.504167938389003 4.749647389303851 2.359293123159427
Al 6.038759075381044 10.347528969348714 6.247517484332142
Al 3.6046820746424966 9.850058059855566 7.128622654019603
Al 6.662239905165575 6.219197887879629 3.576095179873823
Al 8.404059794515526 10.397308722133056 5.0229865839035925
Al 7.580509809545342 3.728836712351658 2.838815524176012
Al 4.231835347936679 6.011900037743508 4.759011421321694
Al 10.867668055233926 7.189424269902109 4.0688430609024255
Al 5.395952432629582 3.483895913793451 4.611046722611191
Al 2.6294555141161586 3.7626251686273884 4.193129150159198
Al 2.76058784037048 6.954403383554451 6.8006166731671565
Al 5.44994330042342 7.7165631751635715 6.5878431239978665
Al 8.107577560297504 7.644509006388171 5.466043398331289
Al 6.01076370833894 9.3229273775902 8.739140044278072
Al 9.08142279357871 6.071577749197164 2.1751045356412573
Al 9.112090153915386 5.146183399239274 4.702946805849796
Al 8.001163273591928 2.6507677797658697 5.194567536827182
Al 3.448285042137239 8.276906425176707 9.175339357280555
Al 6.660580272842971 5.3252742866565095 6.191130571161937
Al 3.6684401293064317 4.113293749065179 6.665536491527035
Al 2.2260492580550677 5.145322340445627 8.744312565224197
Al 8.508132297228867 9.449785262417926 7.564737310517069
Al 4.914846330876883 5.991799955915317 8.596176157694886
Al 6.182628294330876 2.7940205643782505 7.153817420414533
Al 8.088449654682003 8.821827216224168 10.407127423343344
Al 10.238294244891705 6.630643583988323 6.7088833811770625
Al 7.592943594054908 6.966154542720326 8.29191996773677
Al 8.991044911403431 4.1079941404204074 7.191101699775734
Al 5.564105983101808 7.691560632745911 10.841157530202134
Al 3.172666458136663 6.3884263791791325 10.933098216990809
Al 4.499467724906836 3.3367546539968425 9.155576611145362
Al 7.135004005492194 4.383162496442319 9.13401960315816
Al 10.39931597311949 8.112617627883116 8.894175500078624
Al 10.177911924292815 7.243769928161477 11.393129196063219
Al 9.70186821786449 5.41490253669588 9.351907573668829
Al 5.35517398911071 4.901373768873198 11.188349100880242
Al 7.756143887061222 6.101534236219301 11.141754003506202
