41
Energy = -128.67488499 eV
Al 9.273508629452177 3.3086115463391876 7.976604950691601
Al 10.23996774276645 3.1507647225379034 5.134905155879027
Al 7.954218873922282 1.890987449042879 5.530545791424699
Al 10.802320366197332 5.404583470764964 6.356302293003407
Al 9.042522711673035 6.0643775448772885 8.250720656543447
Al 6.863323654806483 4.647002471777072 9.075661125376227
Al 6.450745526340667 2.502703667911791 7.590637087463323
Al 10.818016950956885 7.970833779467388 7.232664412517095
Al 7.333671492290169 7.233685731139667 10.054882466716128
Al 7.435589406451252 3.8095062078108013 3.3142011331251093
Al 7.85488397829067 4.602556602616842 6.111216880905177
Al 9.56118082570983 5.3670312977184365 3.7447719452739543
Al 5.586489418228458 3.229187806465843 5.055077714313312
Al 8.407586815884128 8.768520428308154 8.008864305089467
Al 11.308257541013042 7.6297239940007495 4.631014864784107
Al 3.9352278518217925 2.132434638119697 6.909545210175175
Al 4.194650106805049 3.7120489675802153 9.351778342647336
Al 8.668560625804611 7.257574970857923 5.624615357383304
Al 4.80582805449361 6.431685570533887 9.496422587304293
Al 6.507173820948175 6.806980342624529 7.284519337719101
Al 4.502755402204891 4.987682476263652 6.908743871510534
Al 2.267249651484753 5.9932293501924425 8.903777247718129
Al 9.456669517569033 9.826405175721334 5.3500599789924275
Al 9.330311698040301 7.862673802030294 2.8879793888333087
Al 3.1394802863256848 8.667881580850818 9.410343753761921
Al 4.830008252677604 4.618429889011963 2.8329732180809044
Al 7.451379545424164 6.06955219460519 1.7221310337504367
Al 1.9083807834655888 3.6456927382134428 7.596082784994982
Al 5.719701740561207 9.009704590717423 8.697964195617057
Al 6.445802793058641 6.159588593982754 4.4859661594977105
Al 2.962094346492527 3.831315205117802 4.846356570181187
Al 6.747711966856582 10.019485799975033 6.2704330944831215
Al 3.873590686471111 7.584220163382313 6.988923222174876
Al 7.151203325985422 8.83846563826297 3.8734769787996437
Al 1.1503971985749282 8.205436860675139 7.691816172329462
Al 5.224073529165505 7.44245482940685 2.457969068242661
Al 3.596300700851195 6.474651679287929 4.43848206548328
Al 4.0209078242502185 10.345768119105426 6.98373028288598
Al 1.5805222035342876 5.960855463419513 6.112031681267218
Al 4.634671226645577 8.975638843417915 4.678527365037968
Al 2.019033460118706 8.612587065148993 5.1808460268360506
