44
Energy = -139.70450327 eV
Al 5.553494881254765 1.222869778187783 7.7365418532594035
Al 3.118538419742633 2.2539373421066236 8.12246933440847
Al 4.548756867045569 3.162728469844037 6.0464553456792505
Al 7.161606793181692 2.1587858043734167 5.7659186065146075
Al 1.9510833653704955 4.164155205668683 6.514440693791678
Al 7.799170168679042 2.5195934729132508 8.622873833125928
Al 2.5836438696168678 4.66691179768967 9.368967687382376
Al 5.258200419662386 3.6582262856888064 8.911655753470294
Al 3.442141148238226 5.091602925863885 4.503906144609051
Al 6.020753485302269 4.060258333347347 4.077584766976055
Al 0.6025706772499375 5.959481836371087 7.991412423040851
Al 9.45456370375466 3.518742650550831 6.84481634853899
Al 8.716981538684234 3.521857749669319 4.0706970391339015
Al 7.429953610707272 4.9358159676508135 9.743137294348422
Al 4.856679922084617 6.014224424710393 10.135354125991544
Al 6.849469846230323 4.678274537983365 6.842986497851396
Al 4.252134584096813 5.625938535409526 7.255510172550161
Al 4.87362568107054 5.979417328538159 2.4851992713988844
Al 2.0859751658468366 6.9812524121218145 5.979183495385572
Al 7.557725052400089 5.705338799833795 2.650276823810628
Al 2.7281898956325796 7.39695090380293 8.755553562152052
Al 11.202771300565962 5.177094567637035 5.639294388811402
Al 6.615501122232672 7.115115396413288 7.958811309351866
Al 8.58817062682758 6.026728871441461 5.251611462619678
Al 4.388242478323209 8.346654116087034 6.783874084524926
Al 7.125314929866394 7.330879164812205 10.764298055786016
Al 5.996788475675642 6.765545845951731 5.073635887371222
Al 9.223092775043028 5.983531625086204 8.016800779422745
Al 6.385768240379208 8.180118868729403 2.6271570851284416
Al 3.7549799862148774 8.062838147973784 4.061453658509125
Al 8.826442575068763 8.582089330935384 8.554388515857102
Al 4.931916343038328 8.70250355682611 9.531429871584267
Al 8.055486015043725 8.585338723429608 5.711373862007417
Al 9.18556503507703 7.837077192374315 3.0783812381902727
Al 7.160504855283028 9.96779101921078 10.230470597140409
Al 10.256254119760648 5.4299456461465 3.0531163536753465
Al 6.433304855764285 9.871040684445543 7.520929491549355
Al 10.601981262037226 7.741284782501517 6.281254383540615
Al 5.717873673961607 9.756780402083145 4.8277800880377715
Al 10.340630889258088 10.292898390075285 7.038964081344284
Al 7.862194550636313 10.271520463344626 3.1037592124850075
Al 8.429590577204944 11.471105238706203 8.4285375309854
Al 7.914857490739883 11.402976725823427 5.596731321567138
Al 10.176884469882454 9.84215242137728 4.460381410827908
