46
Energy = -146.27278721 eV
Al 7.2563938451483265 7.842520218388252 2.6613667076848366
Al 5.1831901083009475 6.8450815958089954 1.3099538432620252
Al 3.2101886958825157 8.406362730678476 2.333840394322926
Al 6.565018738577076 5.107728456388855 2.84473451802121
Al 3.738864334294917 4.864135558640631 2.677958764021463
Al 7.981353396148762 10.449459806504402 3.096275515374119
Al 8.526914133190537 6.146188032880386 4.455107174533588
Al 1.9513120439247105 6.529178312938129 3.826588936390531
Al 9.723594934555683 8.503317869473713 4.025591581687107
Al 5.257474335286688 9.710438188737166 3.694787191159252
Al 5.108767017020098 3.1154577704069313 4.174090176420317
Al 10.18919170778275 4.0397581584124485 5.620148849511736
Al 7.180392371890487 8.634584039557843 5.279817638176308
Al 11.045009613951107 6.563539536189641 5.568464400005787
Al 7.886651475075829 3.397278757600316 4.404268478732994
Al 6.664380155419145 11.455284227716442 5.300114317174153
Al 3.488325691547855 4.945613332124437 5.4225995947564325
Al 6.2677512103899 5.396398776118133 5.837916671430782
Al 2.936030423109276 8.858385098368716 5.0063488732659875
Al 4.910567967841984 7.016876631012181 4.052657043715146
Al 9.295719545841242 10.801539809342108 5.5010088680294285
Al 6.5219170949721885 1.3948149806479464 5.672784050935036
Al 9.464818757693129 8.406320968665733 6.790219178950403
Al 8.655275976550946 5.791329077905338 7.251096812632665
Al 1.6824502459173338 6.720156916870684 6.544863850190923
Al 4.4316158794179685 7.181941207080474 6.68526223075402
Al 2.6652270270111664 9.050033836009064 7.66216426227078
Al 4.945567868021318 9.920082434711077 6.586310534487574
Al 7.545082443260159 10.23302142164209 7.582805232587881
Al 10.300847009141371 3.8137972776800964 8.300236297763366
Al 4.911992565945481 3.267168997618953 6.91402540410111
Al 7.921772352373452 3.176795020307373 7.061782592600872
Al 6.758541337705655 7.614820283117346 7.8050770695215235
Al 11.069719245636868 6.499937504331441 8.405880383708231
Al 6.278769784035998 1.3768602618385943 8.352461356671961
Al 9.001215246459028 8.014392968447172 9.39637538459309
Al 3.2956451522258594 5.1380184208886845 8.159598117834602
Al 4.446874967115203 7.820576358846862 9.32074517767565
Al 8.933866026735375 5.369074052520581 10.083631715723605
Al 6.622279261957287 9.392892588044159 9.941520948162925
Al 6.332354750036369 4.928016137565804 8.666439338353731
Al 8.016078240047374 2.8476535607971054 9.724781960970848
Al 4.497937570030005 3.0836532086501935 9.597334646007523
Al 6.78651826004754 6.876263218837714 10.666223340481428
Al 6.605234988428389 4.301215529565956 11.428917482514189
Al 4.309695420947454 5.520426077013044 10.674212309721165
