43
Energy = -137.32591188
Al 8.255709723733386 6.241864996781891 8.96411202805705
Al 6.206227121144935 2.8401508582799093 5.945136747364731
Al 1.6765845148498495 4.560762314686664 5.880740191390339
Al 8.509998526696018 4.10660150692791 1.9886955311583394
Al 8.442985605797528 8.83174766629636 4.904303492790453
Al 3.835045392333614 6.090470455597387 8.819329897565618
Al 1.562362274932025 6.926537948535387 7.42722452200098
Al 4.085580630915182 3.9793246449206165 1.8372226837258194
Al 6.001969885962651 5.27043421065303 10.24659384163944
Al 6.277537555472923 3.0952499647501064 3.220946642337644
Al 4.021160666357446 6.3668092309624775 3.257640249333715
Al 8.237616616890298 3.6966770312039032 10.151659553546654
Al 6.151976724290421 10.222899889232465 4.799164415780151
Al 6.219181141527949 5.500958467509001 4.680520347471277
Al 3.8640555530622724 8.482378000304447 7.621306537125422
Al 3.933915741128793 3.656911496649757 7.243803366632533
Al 1.787117522816417 4.70633499343993 3.1703816758321075
Al 6.220552737888142 8.06346116356791 3.20176818887276
Al 10.6360905719911 6.967278508421565 7.725230691539811
Al 8.421776814131135 3.8397050642422563 4.7333379309319605
Al 10.731080980218891 7.11105639236261 4.885247440508385
Al 6.159561254343022 7.8538022832678624 6.195155818690481
Al 3.951307515831602 6.194840764500294 6.0377336827930375
Al 8.382595869628672 6.272852585538661 6.189847159198435
Al 6.280299589881265 5.6879064564572515 1.9033099988797906
Al 6.020145506616602 7.7637154945700795 9.190137614227393
Al 4.022731808613989 3.789095884708612 4.587440929621492
Al 1.658483493315278 7.067352092804385 4.569418629153397
Al 8.44067769958425 6.519709600819028 3.4244167180768734
Al 6.126215767825519 5.361239157459388 7.467214057293301
Al 8.348143031486634 8.690411747930423 7.726760238227537
Al 10.696775914988761 4.809026082237081 3.4725378071735205
Al 6.094833902629831 2.82223021508459 8.68044413475926
Al 8.333005985877264 3.7057445772556186 7.394119172652755
Al 3.9635197257012873 8.62783468578639 4.68647875253541
Al 3.8124330342485817 3.573247969913391 9.996924196267228
Al 1.6053501284158966 4.438705733189337 8.593116639005826
Al 10.515825799928807 4.53507660687424 8.89327143025142
Al 10.655258541017897 4.56379983532072 6.178942121993431
Al 6.049784774472786 10.072448569089953 7.816601863493047
Al 10.766208374777072 9.334974473084257 6.424344649602105
Al 1.624133492351382 9.345177425123886 6.1141623526059545
Al 3.9337598396546127 10.93277030699033 6.272833411225862
