40
Energy = -126.41808411 eV
Al 6.901678176087128 11.689686829248176 7.82729446008883
Al 8.74331140453865 6.241682021475463 11.742648362957379
Al 7.703088529128882 9.105872237991282 8.024170004486432
Al 5.7190663094202945 10.19954838561945 9.706323936798077
Al 9.500796839561126 7.644947265112312 9.48373804890946
Al 7.19476312578994 8.22257116907964 10.655934959101756
Al 3.300500852108637 9.21900558987638 9.323373641050521
Al 7.255121847150486 10.318851291903027 5.621905035333602
Al 9.241328361931396 4.951042831928914 9.344124616427308
Al 4.8288777611513645 10.110222547573137 7.086073514180479
Al 10.705997835846338 6.67733562528292 7.448874828878032
Al 8.93366358309865 8.15845854652219 5.693002058365605
Al 6.718490409578748 5.506191653475607 10.168118677126298
Al 6.033743508627406 7.8290693032441245 6.049161699180812
Al 4.392674198893967 4.656201401160629 9.301113596417151
Al 3.2950714464507875 7.973919225967716 6.9475686950927305
Al 7.889538545951541 6.416671041700638 7.517155073154514
Al 5.3720554880239435 7.415057699435537 8.693775934478582
Al 2.6937914345202727 6.700899122808047 9.306342966870096
Al 8.838574896905648 9.767683614080045 3.474033935165362
Al 4.785866929540463 5.558540307080356 6.702458339806483
Al 8.876635555454593 7.170724792379592 3.1885537528856966
Al 10.674712894087378 3.911856048498258 7.3424098765956485
Al 4.045297859183254 9.13733150923113 4.517388433041708
Al 3.6075462555971742 3.0786497658493377 7.3209475711568395
Al 8.561691213744004 3.1955991262314405 5.940393666173468
Al 6.873721428094895 4.0098495054274155 7.935536523348778
Al 2.4128268190332984 6.837550511236653 4.791771957451099
Al 7.051538596829048 5.402326626919383 5.0902562696395455
Al 9.764795933335924 5.57992227897848 5.304179591908576
Al 6.450101922933933 8.576843485375948 3.4270624214196106
Al 2.042108757430092 5.320765927821361 7.099621258780118
Al 4.823096270683665 6.471005846219851 3.920687858433977
Al 8.973823918393958 4.418218833407408 3.0680251785500494
Al 3.2810871419685146 4.249977338734499 4.8602618441417205
Al 5.723084492574247 2.9279027245106573 5.771857106628354
Al 6.7482643573158265 5.870320888629414 2.1917979586602097
Al 7.415399199701434 2.314456335553395 3.717712355642099
Al 5.32819502183949 3.8372873442651834 3.1986671040208665
Al 7.322179011782702 3.3500615344545954 1.2197850219412238
