46
Energy = -145.33939448 eV
Al 9.653409294771826 7.996003589899304 2.5015981585839433
Al 9.328752415662525 8.920093935725676 5.3343552436681145
Al 10.51274305750837 6.523826656314922 4.63990349933865
Al 7.418087912583788 9.361524501401439 3.2417626058706346
Al 9.052978096180889 5.186685368864923 2.3457434718656494
Al 10.884333705230548 3.890719477409048 3.8680813721063165
Al 7.659521399308436 10.897532278990582 6.027016512521046
Al 9.10090413446799 6.73822876806863 6.966685614089031
Al 7.241989802798338 7.126894193136186 1.4125634657391914
Al 10.857742834426794 4.53390512359578 6.535196688029332
Al 6.482946927311714 8.251522869370326 5.732162254921758
Al 7.743636556291387 8.960929425949914 7.965739693066647
Al 7.740863713254308 2.605091191254558 3.421139184261912
Al 7.812542716222384 6.815527237799239 4.134478406222983
Al 9.89726082846243 5.046136488278392 8.984171622561512
Al 6.31732590593319 4.943218051855855 2.8122372663358024
Al 5.39444964122785 10.463480176064602 4.520444981816197
Al 9.680000627644413 2.1263636664850667 5.398355180964863
Al 7.771597544953161 6.773510437806819 9.398374903913727
Al 5.342130237738724 10.092435101500815 7.325475055954423
Al 7.276109644984947 4.737136645973332 7.642066377139801
Al 5.24987247120325 7.560591374320634 3.30400394240015
Al 8.461632036299026 4.574929785861831 5.208042069886866
Al 5.4087303919652605 7.336490036806726 8.050022840961338
Al 3.0826950412654854 10.342893553733143 5.651557447637373
Al 9.232929958818241 2.501249837358724 8.105190674259031
Al 5.645387793671068 5.412861818127022 5.593350036337703
Al 7.727797216377697 4.308510930069377 10.415175558783995
Al 3.8127605502391764 7.565179372863634 5.71748644864809
Al 2.575381297642481 7.767081178043947 3.2027062998551123
Al 7.071679208879276 2.421011898028419 6.141234946684277
Al 3.039641517296416 8.92841844176409 8.011073355316116
Al 3.7342353028398767 5.225679491309037 3.4468228625633293
Al 5.142529614158433 2.9147575526965546 4.238423085549168
Al 5.189094332647121 4.981394377471829 9.491683617300765
Al 6.7088264993796365 2.309118639928671 8.890655955183794
Al 4.732049837592486 2.9940084820009676 7.3197074118143455
Al 1.2441298724504852 8.559521273953095 5.506671871630292
Al 3.2771621994965527 6.87638169641507 9.762928031889155
Al 3.3582606856533603 5.3188502236872335 7.305692823263191
Al 1.64996386239753 5.889655283708567 5.011039350887974
Al 2.795592489138844 3.4281290601684886 5.376395926023868
Al 1.1716954491835503 6.869326973376621 7.615527358385785
Al 2.1801056847282596 2.542860995629664 7.9943412984622695
Al 1.6047294315727354 4.840547289445808 9.400001139177064
Al 0.5744528035873255 4.275960431268622 6.770338713524687
