46
Energy = -146.11139102 eV
Al 10.747096004814244 11.183541705694875 5.737034316867875
Al 8.940879566067771 9.916260049253896 4.034618637432089
Al 9.64966947083646 7.392384459473521 3.2483900181742014
Al 7.0920427862169815 8.447509576289029 2.710855582542965
Al 10.857949019273128 8.557748465831242 5.431905398464017
Al 6.372654909679581 9.771399065074474 4.896884059630406
Al 8.241784100549749 10.62746817402325 6.5863704386421915
Al 7.815981104367989 5.905103278929242 1.8393832156727097
Al 5.197947920051073 6.897872046914425 1.7292611668663576
Al 11.021699660005705 6.004749383694897 5.28069129086719
Al 4.394551541750545 8.211255390579067 3.839249464890645
Al 10.301025929644698 9.57922201919908 7.8922499447548216
Al 8.108643693388423 7.5983853024086 5.665182322715999
Al 3.80079500779684 10.120826606334067 5.498260443730289
Al 5.743348182048965 10.702870603549927 7.4400385067520665
Al 8.804482688993692 5.07398146861349 4.31619413222399
Al 6.182192086341953 6.1385437650464745 4.26795592175764
Al 9.883533788973967 6.89218834436939 7.691246816768403
Al 7.20216016192184 3.4673926298047495 2.9677911983389147
Al 5.2792434340873635 8.062963713889165 6.759675874326872
Al 4.916631842190119 4.333580742077633 2.109530501565076
Al 7.7059801977242675 8.557063083514462 8.337598840475506
Al 3.380410297228363 5.683703224527078 4.19945774763061
Al 3.060400745700531 9.637976247376294 7.940097262320881
Al 4.3957132320087355 5.462058773322833 6.820712927689508
Al 9.67098378034402 4.159954304647755 6.855177153798072
Al 3.159907723701457 3.010442462654308 3.47352460978854
Al 2.642753703279286 7.529323004406174 6.064014365900893
Al 8.607611498420725 6.462736517063284 10.115375070698626
Al 8.0544981376049 2.6291600908875616 5.3183109236374
Al 10.587874116208106 4.822707108983081 9.26743265605992
Al 5.329447719794086 3.471492576327409 5.132330910130267
Al 6.870013445380941 7.9522940480871975 11.512352268849012
Al 7.097808576901643 5.145642531399749 6.580585086698961
Al 5.216285914196672 8.980900072805063 9.504045901573104
Al 2.514690967107604 3.600277698472375 5.865429224068376
Al 6.061969115150679 6.3594888262595335 8.780735376068813
Al 3.2018302910790815 7.182794965343103 8.824990946538456
Al 7.930256926985601 4.131624129481595 9.01924088102367
Al 6.382628705348865 5.044496129316886 11.122362011885155
Al 6.616996207700815 2.4441378177451822 7.446887762024867
Al 4.031023396601899 2.8318523300041214 7.897018590463729
Al 1.9370082860677742 4.861622948556516 8.088232991446677
Al 4.3820615258454145 6.930461750786508 11.209245063006467
Al 5.8091907090843975 2.6862529960214925 9.963652785063282
Al 3.921303599125548 4.659251288552455 9.841381107768003
