46
Energy = -146.75161057 eV
Al 9.875879919986607 9.034884062629832 7.6223765978359
Al 10.85364975504746 6.325553404871357 8.081133458898067
Al 7.68007472734008 9.54830219677878 9.219099287069996
Al 9.556250354718008 7.624128830437465 10.000875872033168
Al 10.554811283288835 6.776955696326482 5.579170354519219
Al 9.658477841036163 9.398242922137095 5.019364344420618
Al 10.207247225196152 7.593301672458289 3.099248574826527
Al 7.689754882415566 8.509341625282122 11.872787573239743
Al 7.333947356060128 10.084698996487512 3.893995005796206
Al 8.353009612397198 5.7940175509884915 11.811817370935952
Al 5.21697092703764 10.147317478334735 8.130861087436116
Al 7.287703590427586 9.220022331240743 6.475988093385975
Al 8.897723270287337 4.894593160540559 9.289241374213017
Al 8.215717043927654 6.875692253015604 7.301417678576737
Al 9.620185656613677 4.920380647479506 3.8159413772728126
Al 6.535918601972237 8.314206559645157 2.094330108178564
Al 5.163642947596662 10.695001505290081 5.488068311460711
Al 9.254018371222987 4.433343404593327 6.619128369158864
Al 5.3270738583290305 8.950264811217133 10.624104237663543
Al 7.882371551841209 7.130440600527737 4.522354253306973
Al 6.92825335595988 6.8926034556856655 9.715863777473205
Al 8.305404087377907 6.343463172440542 1.7659146473757168
Al 5.73476575737817 6.416597546642106 12.096189613876938
Al 6.553271048120723 4.7407196489375725 7.573665900947582
Al 5.452729069993572 7.394651934235541 7.478763989323096
Al 7.175204599880128 4.336051265801476 4.912280916954694
Al 7.6660916952688885 3.716770477735494 2.316230171115345
Al 6.467162497584005 4.244642664672403 10.379421862509929
Al 3.2597705098291687 8.36447244320112 9.044407541248354
Al 3.9188823689140277 7.666610318380464 2.344770616004495
Al 4.3054229332321565 6.012536781826542 9.818584774673946
Al 7.699553774478515 2.1352065134550755 6.577947083223455
Al 5.368341002905582 8.057978403892227 4.726641545830493
Al 3.0384056294569795 9.052484199628095 6.590913928624952
Al 4.929729736351549 5.524376223289016 5.524039046775493
Al 5.894712553043226 5.843151194750797 2.899584004120452
Al 5.915463251324311 2.262308528613039 8.590815999894815
Al 6.876990694106744 1.6753892277541733 4.0447366386809644
Al 3.1562148745881298 9.58514434682549 4.030726228934752
Al 2.899620889724376 6.243414069294817 7.3990029277315505
Al 3.884076062957892 3.8733165172348927 8.153050365178464
Al 3.1093488719397016 5.126061115207373 2.954265222963721
Al 5.048974540320298 2.712222739565052 5.936877322788454
Al 2.663570877381238 6.974959619312061 4.7966849341663025
Al 5.014122956696899 3.356904091331257 3.224253318724467
Al 2.589307153903061 4.197093359464867 5.562883860089337
