48
Energy = -152.52970775 eV
Al 10.515418313309095 10.002981268895832 9.507409905337738
Al 10.687996081524078 8.126013824973663 7.370460164890038
Al 8.853347273589016 10.2155163597927 7.310063611210794
Al 9.59869542781813 7.40148111553788 9.72046556214235
Al 7.791301513943025 9.466478415691656 9.765476362812093
Al 9.30119704958955 8.801656243804723 5.0749675578994555
Al 10.254443924672563 5.460323413049431 7.893311825229928
Al 10.788109244573661 6.352150585703124 5.340190370846121
Al 7.247432873809491 10.741484059034816 5.048444026186885
Al 6.261718721354414 9.462015468809419 7.463313776432634
Al 10.94283954367547 3.5992385039638144 5.9156616971106555
Al 8.042007746664263 7.211428042988982 7.118892946027577
Al 6.947480872259954 6.9343500919221 9.6930662646812
Al 8.807671281998273 4.872388792577029 10.303728218863895
Al 10.190732743799705 7.405803393630792 2.9344157750997315
Al 5.150451010655642 9.067595250026727 9.868869031179536
Al 7.642920311551264 9.124216496024303 2.8738624659911056
Al 4.609550029104261 10.42515302329986 5.512533986029269
Al 9.297122277686118 2.8815219219882593 7.993817321884522
Al 3.9927056473500016 10.882906461318859 8.232458261779536
Al 9.815508968147292 4.423927788707381 3.5926683041794694
Al 8.033048525902895 6.570818645558714 4.318741542202327
Al 6.105690729628263 4.562049297937216 10.701060592956717
Al 8.440642283628778 4.687754266244472 5.995787895615848
Al 7.616330996976162 2.330197763531403 10.054791139365607
Al 6.116760468682277 8.109847604813941 5.103657850104058
Al 4.305684577349332 6.380353142919373 9.774089566117405
Al 3.557398151567641 8.241969803295344 7.813557789449176
Al 8.339917961755607 5.737997629317722 1.7534912641419234
Al 2.0757306870867445 10.016864430916106 6.453970666173714
Al 7.102043009160846 4.643909356692102 8.192331794172704
Al 4.838877815592536 9.367128329105025 2.9917256857935812
Al 5.308279284210706 6.2883397004234665 7.043412103931267
Al 3.374954965990481 8.082644599586995 4.935655188682343
Al 8.386999670468018 2.124849176646941 5.237704995753345
Al 6.048456728519136 6.828632943571783 2.4076391935042234
Al 7.065253663811336 4.096898042403741 3.6195953161608685
Al 4.530855319892179 3.7635339206370246 8.530059803893835
Al 2.5617470386009664 5.726659402914671 8.000679651284253
Al 6.740496294653131 1.808118511623322 7.573426741491566
Al 1.224027948843062 7.49042212206924 6.402121474734981
Al 4.765746022345436 5.538708808266092 4.4153289599066605
Al 3.364627093457422 6.973656135377365 2.4910217467485882
Al 5.785326729686932 3.65765669690176 5.917579898901603
Al 2.046794109001388 5.789398625108474 4.407508220569033
Al 3.033406407065364 3.900147259033352 6.059079277289194
Al 4.165497312725371 1.63554898683328 6.903763364237699
Al 0.4425847142700929 4.903093644478256 6.4839702089506295
