43
Energy = -135.26591529 eV
Al 8.207503832910712 5.176237805245576 1.197392037770682
Al 8.153507854977466 2.7243788623135843 2.794910605831136
Al 6.220030969760309 3.368670860594702 1.0188936852770163
Al 9.414433232139732 4.929072016650883 3.6523506780665773
Al 8.475710566801226 7.346778980067386 2.7852356218038734
Al 6.193635196844497 7.151524685809756 1.2154516960142279
Al 9.162333083500112 9.572482707736635 4.106811576158947
Al 9.955715061317848 7.178778380282628 5.082858349889856
Al 6.601204108621374 5.038352778316737 3.572509511316122
Al 9.038179042299179 3.8246332767015288 7.800361785037872
Al 5.459886495393364 2.5075902767289575 3.528472264854455
Al 7.623038012099494 2.953227020464303 5.4235490609872095
Al 6.597959513753123 9.42272732859095 2.757379054680498
Al 4.430091685055946 5.213074200584803 1.7214006499440861
Al 8.803043915444078 9.081176432980778 6.934078242300255
Al 7.095494657572814 7.924866719703291 5.138741868547578
Al 8.117097374327214 5.476120575614914 5.961210939373401
Al 9.848272799222219 6.560358176594976 7.708712186963998
Al 4.8757705037430625 7.2582805833944075 3.5785626780079087
Al 6.972320641974898 10.803491921784396 5.1541753309383544
Al 6.898239557310306 2.0546829317211506 7.888064392321891
Al 3.742970191239835 4.6704963182390555 4.2393148697312215
Al 6.400027009979366 4.68097491020511 8.338631306762366
Al 7.024022564808042 7.186148312460932 7.92010738772379
Al 4.896797911869723 2.8852702205657317 6.115118595815325
Al 7.837711261799329 3.124271796972719 10.219957476789354
Al 8.707198943050926 5.678198376917323 9.917265359860007
Al 6.300789338522934 9.874994587421037 7.528142871617556
Al 2.9304618526389823 6.969376327160557 5.446581188323811
Al 8.478632671472177 8.464218710755608 9.753758000000808
Al 4.5924560069004 9.230515298113342 5.4264470971525816
Al 5.476969888867712 5.887577357216637 6.012615414382295
Al 4.396432333032304 2.9968968753428475 8.881052056085942
Al 3.224556246493401 4.672893057894229 7.1269919658806735
Al 4.3750647677676575 7.69418860600703 7.691864695737396
Al 5.411408135314449 3.9285440165874905 11.171538510417468
Al 6.394383973368988 6.385556880784038 10.96542646101845
Al 5.691391279989754 8.725334046555087 9.947772611831361
Al 3.884712524073634 10.350944014648919 8.511538427978907
Al 2.0805536138902565 9.108363017514222 6.883076888104241
Al 1.7992521697126964 6.680971779452203 8.054718105387488
Al 4.035542786503643 5.726464369915435 9.611593279302843
Al 2.9436845450554108 8.249375320222567 9.916660279464637
