41
Energy = -128.70392662 eV
Al 4.716827263308957 6.656154370451974 1.7812084806062698
Al 2.807414897583731 7.967233970397737 2.9178840444229652
Al 6.689980043889278 8.184143503281966 0.7598999033827885
Al 5.090960743641472 4.161512832009537 2.484314128806275
Al 7.286759515305668 5.6266524323855585 1.6305036838060556
Al 5.396093388036351 9.102074361349269 2.948138780352875
Al 3.5565860499504818 5.647898122440522 4.24372942672919
Al 2.6487402718669677 10.144496311274548 4.370921906391809
Al 5.10271647342317 10.920666283808506 5.071649889456012
Al 2.2796066307495373 5.689638121591834 7.015125761300305
Al 6.322358478009339 6.256820960331511 4.138180274269714
Al 1.8345703449514468 7.650015436910337 5.405078864825426
Al 8.14730884489497 7.934520847411227 2.9405477293122613
Al 5.2275279619145065 3.332187473354564 4.980256474276388
Al 3.3755483490245615 3.1589679491864326 6.936841873517603
Al 7.569724882716165 3.679137561618135 3.553869788309441
Al 4.899312882044217 5.569809700345679 6.606344841303689
Al 7.143450677330604 9.027965542530195 5.1509741408303515
Al 3.0335204774513573 9.72044900114265 7.011027370637961
Al 9.613459515514762 5.599293403316675 2.9486014486670116
Al 4.574917302457186 8.030621795713634 5.421585716953008
Al 8.901860750231762 7.013304772394703 5.324389847550516
Al 5.890200802746824 3.5481199557894922 7.8953607226163385
Al 4.136299110554044 7.585908777645592 8.345042226859233
Al 5.3064417817635166 1.1256074396291984 6.734747989578602
Al 7.486626021233226 4.768210486364657 6.230326242427231
Al 5.7936557650461245 9.82610344405445 7.3825313579338925
Al 4.4035364110527375 1.814658554449121 9.174626460824241
Al 8.662145398824899 9.105396066430858 7.482938314864232
Al 6.848022104612652 7.146691533807846 7.275835843712508
Al 7.633717280074355 2.0228637746250753 5.689733425681312
Al 3.649182226332007 4.803610495312074 9.13796076625073
Al 9.868413388126164 4.146006044807606 5.170418431088023
Al 5.920839591249424 6.097069095168384 9.71536462887503
Al 7.309612305745693 1.675755190809819 9.186963519565246
Al 5.9573380899056945 3.5684479817613344 10.723720567110096
Al 9.732052695760412 5.741680398164703 7.535609272779248
Al 6.4397411740007 8.765387246111882 9.654900939678383
Al 9.427199257588533 2.912286320756048 7.533306543414933
Al 8.559675170997354 7.158498958459362 9.517144084726297
Al 8.06869424222365 4.476287992996863 9.269125434136939
