47
Energy = -149.01958832 eV
Al 1.952549854306253 5.824052880988518 6.48493107840576
Al 4.444498509766864 8.102978729337973 9.322430859844015
Al 4.579182710413478 5.317336568039299 10.084589978448248
Al 2.368686674736953 6.4135228944199385 8.980771583567172
Al 0.8091946794773093 5.32626190158328 4.184137820161648
Al 5.9578100115344705 7.358149924899889 11.473603583461013
Al 2.307944761819259 3.3309742726818548 5.455434125288821
Al 2.1820220436403814 7.745224697238296 4.338823924749065
Al 6.236909611706354 3.7461029808996913 8.638146067059123
Al 2.9826827498714006 8.441521554826117 7.01013451845579
Al 3.560790660891893 3.9787531658513773 7.840205249672841
Al 5.501978358500651 9.707893884161907 7.306664301296491
Al 7.163125735674935 4.848446259431999 11.029000446170478
Al 6.646553155036312 6.513578754461974 8.857628955016327
Al 6.977098780922141 9.158864415864674 9.538099282294299
Al 3.6578592901942177 5.432645625815497 4.212650868294369
Al 4.106196570730423 1.597562521096397 6.47259393154792
Al 2.134264724623618 3.702338864571829 2.477721163238474
Al 4.733659439097052 6.363547820331607 7.026781377607386
Al 2.2547813595183235 6.3827998976713305 1.8764074218306217
Al 4.798481428145174 8.299598428041815 5.046557561408714
Al 8.576758740237874 7.27524961408526 10.743548173878349
Al 5.496611413146981 4.011408560352074 5.842678466776495
Al 9.002133361656078 4.851428936260858 8.978397725084191
Al 6.392744266019262 1.5721267839132815 4.986018127989224
Al 4.2837422810124055 2.644491910562977 3.7292779542412022
Al 7.391488111578755 8.098648070091588 5.808039667087966
Al 9.979403067528253 9.502179680375802 9.692756852227932
Al 11.160450204608974 6.06231232243187 7.663461204888774
Al 4.640131337085669 7.387535946460221 2.426044863895824
Al 8.354713769633126 10.228301360956067 7.440890527366862
Al 4.602074035852991 4.7469768605638025 1.6847492965685862
Al 6.305171331986202 6.1716411504542705 4.250901025584539
Al 7.914833354915309 2.815972890186435 6.92629195019601
Al 6.843161080997474 10.792113795870835 5.201532911704918
Al 8.887054767642162 7.5176709288827315 8.04121619274875
Al 8.927789861988149 2.376046653000136 4.390256734101406
Al 6.63784195944061 9.00755382304847 3.190497145028321
Al 6.7084127452732245 3.6368625908222123 3.1347571778335177
Al 10.90545364575886 8.918147770248085 7.167140000223592
Al 10.080955287462313 4.211788476413637 6.017655328526638
Al 7.662380586211806 5.507258726828566 6.512366679941258
Al 7.115040992723767 5.901325592511838 1.5888276997169046
Al 9.451133447407159 9.679817780930911 4.855013828321986
Al 8.820351910330347 5.082611248664317 3.7354517344567064
Al 8.871819413865355 7.69863941432174 3.132094641683944
Al 9.914752119443976 6.990417262844629 5.459194825902905
