48
Energy = -153.15036579 eV
Al 5.65869566981389 5.7283085642757 1.8315784504845376
Al 4.001432998000609 2.018387399582869 6.507241872333407
Al 3.42599250039293 6.769164786273955 2.925571914868887
Al 4.204235850881326 4.198388603739775 3.7338703112357057
Al 2.57307284386521 4.307053946304667 5.867338702929133
Al 1.7324524103440235 6.8141791050905836 5.1058180829378825
Al 7.752826972432529 4.605861900737711 0.5313982804786269
Al 6.346039826094482 3.0954307116336763 2.321515235518599
Al 5.916218093309456 2.0632034567320408 4.716704022428248
Al 3.6980830379067853 3.7131285581362 8.519365628555688
Al 6.010950191167115 7.774669145427354 3.4609369450326573
Al 2.7603496907020677 8.48806090044773 6.919238438524144
Al 3.802819525646982 9.005876747685521 4.350972536973519
Al 4.492665540176555 6.550029584812021 5.449800325496735
Al 5.350219070676892 4.350003466035891 6.476251820529219
Al 6.657972013464985 2.1525668361335097 7.4358773557975955
Al 3.7890487559331265 10.466548573875757 8.58007025464343
Al 6.846014433048363 4.9204888820966 4.304833486680725
Al 8.286771053051734 6.499143335018228 2.586580392206186
Al 2.313078715527998 6.039241170615264 7.993159864256281
Al 8.531904738308478 2.71794581349486 5.115669137191907
Al 9.041912341466018 3.801022138929944 2.7495015664694495
Al 6.346947405730943 10.434118982916244 4.549965642061177
Al 3.200697976614351 8.032737616618071 9.656204987249058
Al 4.077175850701291 11.123933170276036 5.88651278406636
Al 5.63706977977352 8.708975893760826 6.65995265897371
Al 7.709385904096299 7.135492882776244 5.528551449173911
Al 3.812303772172197 5.538353534803849 10.447093099624906
Al 7.863776348404181 4.928472008070114 7.100876632667614
Al 8.477148087793566 9.003025878459198 3.6605273143192627
Al 6.235379331152033 4.315269059877758 9.268165989634744
Al 5.0754724270119675 6.552339867176603 8.144256159403296
Al 8.648004683726803 2.911657429611247 9.087257916663834
Al 6.20659447348323 11.271711529913441 7.655134794780317
Al 10.226185287389875 3.5409961957294214 6.980542294744474
Al 9.783401184308909 5.310047914907628 4.82919636934647
Al 7.781078481720055 7.527424700577686 8.174660630565452
Al 8.307201260866687 9.686118235085114 6.317417865009107
Al 5.861805283456165 9.05151731558707 9.573204732235514
Al 6.196853874791631 6.6476688761579386 10.751348806717823
Al 10.33432723279003 8.01094916481381 5.240671394531823
Al 10.35155813777757 6.179234833178038 7.382659403358914
Al 8.600696863847139 5.470219820636644 9.877767544816868
Al 8.308194666871524 10.291691033079575 8.973337718222057
Al 8.241485076466661 8.300726998623583 10.809991802862418
Al 10.414572002272692 8.945960574120365 7.768995812038845
Al 10.573828704462805 7.216139784115065 9.854696378286752
Al 10.58522743111435 9.83564087305578 10.386842994080615
