48
Energy = -153.58805749 eV
Al 10.591539322507307 4.4658411119175625 6.549247165142479
Al 11.151736398234524 6.84272869884574 5.168940766804497
Al 10.600226744415496 6.95025949668514 7.90592285023928
Al 9.050171689378068 2.9367966237019747 4.9401238281566915
Al 8.355245668840112 2.7302730520558485 7.530710322463168
Al 9.280711165331207 4.797750562865942 9.039956838220075
Al 11.009680460942784 9.219064381268014 6.4230096951788465
Al 7.164290846038002 3.209715661087121 9.991582335790085
Al 9.703283318867038 5.212536645560139 3.6155019977970713
Al 7.990694832990695 5.138010613854054 6.1322270299461685
Al 8.739644287413373 7.870541077458033 5.9623533884488396
Al 5.875702915325224 1.728902304833074 8.019874309533403
Al 6.36137784346856 2.644507866144614 5.533739384831784
Al 9.172446791509568 9.292427119826867 8.531691259452108
Al 8.017589628267581 6.195417142499974 1.6049315151120662
Al 7.334269651763988 6.724350233255016 4.076144071348529
Al 7.221076424949965 4.00047562732411 3.1747513335312005
Al 9.573765031459251 8.137107435401234 3.192782385481702
Al 5.763952167654419 4.474131843549011 8.029763121940949
Al 8.761494186952339 10.789174291882473 6.229726429213231
Al 5.01686045693337 1.6199029577656556 10.66971107339728
Al 7.454568278488823 6.825213371812773 8.11575741899614
Al 6.953837612534226 5.87569932997806 10.63144396044746
Al 9.184793602806614 7.23722787617117 10.276346152544674
Al 4.735408244797002 4.418046179188434 10.65247677371951
Al 7.070806972960266 11.04435747495721 8.57097845343147
Al 5.398984791119492 5.338590422788123 5.319829188690081
Al 7.45993496706355 9.693685669114101 4.111535488146452
Al 3.514919909405482 2.794488302199036 8.798695416040877
Al 6.894483581667738 8.71875286622458 10.120280300309016
Al 4.566053397039512 3.396938606376344 3.6178849440293086
Al 6.292130727895652 8.37698065692372 2.08179795271234
Al 6.5369592095332845 9.05303295317479 6.931397380196851
Al 5.125034898644632 7.944954483418136 4.846401225443913
Al 4.5111996757619535 7.242673091966057 10.129187048742411
Al 5.32583926593546 5.764447816932672 2.2891506432896063
Al 4.786445952306055 7.0860615738762265 7.344935982749628
Al 3.6214979040467026 3.429997784571454 6.232101384547151
Al 6.119607229107853 11.509059637848743 5.881261497197065
Al 3.028512474560053 5.405169826142149 8.777384259755266
Al 3.0058301773908522 5.602014307521579 3.7849338105701844
Al 4.70296334821827 10.33699136456961 3.7110301169776276
Al 4.644473223507539 9.742371547187675 8.969798978830582
Al 3.614562729330806 7.979924816323595 2.6422819115370175
Al 3.784563906971641 10.052096858206681 6.46625257990817
Al 2.4437298906349647 8.090498970029351 8.163219286821331
Al 2.27151104087567 5.932693932190701 6.3068862175697085
Al 2.3800249403645393 8.2925533187369 5.068498310978684
