42
Energy = -133.20904987 eV
Al 8.118419258408338 0.8934112992502922 5.381853220654268
Al 7.592915833517704 2.7724464421111397 3.594187218375274
Al 6.95683311518265 4.311502172111647 1.5147541157077862
Al 5.792243105091782 2.519190428844338 5.64523475594881
Al 8.04316148414276 6.754995097364472 1.5138423209283127
Al 9.521457867443479 3.585840062067443 5.492673259580339
Al 5.4853501836763865 4.530078982914989 3.8426779588563313
Al 8.658621303320265 5.23933520690177 3.580908362902817
Al 7.886722691952185 2.5615925743006667 7.398235183174782
Al 3.7137022375233553 6.488194487478352 4.258209018649744
Al 5.116417247843852 6.346704579102823 1.7819291439088925
Al 3.7657779317824973 4.328003033868365 6.079570562239414
Al 7.0417322884772116 5.074553098051411 6.0406559182834085
Al 6.45719423525711 8.811103452177644 2.0448180344846625
Al 6.520148897394195 6.995645079553374 4.113663406716421
Al 5.540314714607068 3.8884395574335286 8.056121196811013
Al 9.416876293050302 4.912691028189826 7.883628717762193
Al 9.426375537018062 6.496039380623859 5.775404095974252
Al 9.069349217638386 8.025396464211823 3.5483996382845158
Al 1.7431814398802665 5.959243641938904 6.981307964692973
Al 7.799150258389296 3.744194901556054 9.692448090216683
Al 5.433459814626977 4.794601153408495 10.654165937737824
Al 6.814843265078825 6.240968423696793 8.666773950305076
Al 4.717229166853757 6.68222537673126 6.909805769791918
Al 7.752374319930646 4.553980273251211 12.190124399369923
Al 9.525822833541255 9.337349139376109 5.898356533190482
Al 7.201381528069976 9.883474252460983 4.334098338607683
Al 7.13998816330121 7.945184384410916 6.49720066893656
Al 9.035846786888294 6.190415252141251 10.353516746448683
Al 9.382282784578639 7.736899215409365 8.156484250267418
Al 4.801835816753881 8.794308236008352 5.142068721892402
Al 3.4217447602194153 5.282699521881338 8.948249750974377
Al 2.1588993311428464 8.185588736798227 5.676730684237059
Al 4.732713083005897 7.42969966923962 10.200397307056674
Al 6.743430350146517 6.986664836886144 11.836596846387826
Al 5.348446939022356 9.03448064597078 8.185870624682067
Al 8.330286926118516 11.868588816200791 5.8556684325549595
Al 7.466090912997934 8.629197005519538 9.983427047009096
Al 7.876351128724998 10.19118933711395 7.950425184157585
Al 5.762054917139074 11.033939760556143 6.360092487283883
Al 2.7846633646107164 8.030577232273222 8.455500461614918
Al 3.268159465513986 10.293218560475482 6.887774473202886
