45
Energy = -142.45330882 eV
Al 6.59088372631744 9.471753376534844 4.970289847149332
Al 9.1761107620432 10.381407818725854 5.109977686925379
Al 8.534603889193782 7.804787206810955 4.101158958059174
Al 4.737148231249711 11.247513282949331 6.308490383999715
Al 7.337352701615362 11.104949846201745 7.091089580135583
Al 4.090231048339333 9.778557150405373 4.031939859815306
Al 6.11644860833289 7.556829978370953 3.0782332720836063
Al 3.625483809060039 7.927296841839868 2.1954671758377255
Al 10.762712934725998 8.222984844089547 5.573873990640125
Al 9.950740720982187 5.633782052748973 5.126489739966734
Al 4.449011265321016 10.47024776935285 9.024684587444987
Al 6.881679906170894 6.742927184981256 6.001844436298072
Al 7.607054910683858 5.120555285825984 3.9560882792027328
Al 8.454869696925103 8.638685117730518 7.105663706455491
Al 5.563562894698923 8.662098665469548 7.373035350035042
Al 2.8929169943498314 9.282339874768612 6.491676448969707
Al 4.360645815083197 5.422392662341743 2.864355867147443
Al 4.3525129250495755 7.255682018245107 5.139620510156197
Al 1.8520104172600955 7.877646763382947 4.405872186181912
Al 7.205569344102083 9.658590348949003 9.388842978169196
Al 1.6712600653490441 6.085066369961744 2.3699275596206264
Al 12.351871620284443 6.119022165753601 6.182126391276842
Al 5.897468627489237 3.2840350233331512 3.049692933594172
Al 12.050005342863278 3.7138428060532713 5.108719534170059
Al 10.197241326310198 6.704597723354416 7.727588873371144
Al 9.299626240467754 8.009851546084182 9.90851255612718
Al 2.409534946182668 5.0557577115088 4.741166225504608
Al 9.487486255329767 3.0269115059164697 5.282051813636518
Al 2.148209424450342 6.655319503866979 6.898940775642276
Al 5.180435063578854 4.622140243817131 5.360731457746397
Al 4.836935731854759 6.02824380680337 7.674171320271857
Al 7.278904388780636 6.586630405221344 8.772842487623226
Al 8.112049208991525 4.605543358116161 7.144316296616381
Al 3.0503623192953273 8.153716657032408 8.91368217367594
Al 6.899790246144375 2.490055134704966 5.310353188762737
Al 5.37947415493195 7.924708778373261 10.218622546283738
Al 10.778980141441227 4.082607133065184 7.556935237219599
Al 9.429831785327808 5.251083184060393 9.76574860251154
Al 8.009856118707148 1.9034455809820043 7.6421231951634585
Al 7.232487412077382 3.6770238426949327 9.690489898398505
Al 2.7933093525909736 5.476573088996396 9.333295171411663
Al 3.0667687827016437 3.9339338904116152 7.085211870194674
Al 5.2704639476172375 5.280782422734086 10.307611054567639
Al 5.555617700241045 3.1226502235021263 7.6597442865931145
Al 9.699719097210808 2.574669705652473 9.585939607066608
