43
Energy = -136.07516828 eV
Al 7.952214823153977 2.802561439105364 3.156412365851562
Al 6.052461795415037 1.7451999933212032 4.815208493789259
Al 9.873543560056238 4.416036419825479 4.172609288444875
Al 5.916604902715024 4.375405854044389 4.07211290955604
Al 3.984027624947048 0.9515294412772964 6.4151417702472715
Al 8.009676237916228 3.2379526031986465 5.880190465006602
Al 3.676236784928909 3.2088103355055435 5.022433828824692
Al 5.8226184595297505 2.6176166931919003 7.440423897458714
Al 9.638977174446358 4.8847865940482444 7.117239290253778
Al 11.348776973314338 6.2139661905920756 5.578244722171493
Al 7.82822944731799 5.678684832503646 2.6438928184432027
Al 7.714534851721684 3.8270478170854045 8.749165377910119
Al 5.310668969204103 6.16316246824676 2.0144522037534567
Al 3.3542597417680238 5.298201436570992 3.573381953003923
Al 6.551468568186488 5.376113242887083 6.701852098160359
Al 5.913116639406314 7.047177456404169 4.5833077563383045
Al 3.1680620815167253 3.209954989907436 7.6788469347359785
Al 10.99463590289112 6.995362392631148 8.261787888929051
Al 8.504358579952804 6.451299670940945 5.16149960632414
Al 9.34999197699717 5.66721468475312 9.822942648733884
Al 8.118069698189508 8.467085522731859 3.3918874434677195
Al 4.971159349671906 4.834387625860207 8.808773447110354
Al 8.296247973518671 7.297653747894816 7.743467705166456
Al 3.8337798089567223 5.731923520252819 6.373328238094444
Al 12.448026744330681 8.596482243254663 6.656018843108245
Al 5.79432949650746 9.788823313443402 4.062998134222221
Al 10.152941271301563 8.610112414956255 5.160136310275526
Al 2.249687262417885 5.340717751393292 8.852588131363296
Al 6.751643925594567 6.482421269166767 9.86241876505586
Al 3.864621451636516 8.123874003490323 3.1222146960992543
Al 1.883637975665757 7.16251934530015 4.806668634423384
Al 8.817354198093996 8.369078442686309 10.18315429855774
Al 5.665649049741697 7.741520451647786 7.6423659563735225
Al 10.036451640899989 9.586866811899261 7.752562280592027
Al 7.700708794829222 9.21023567456931 5.981250933568707
Al 3.913533112458691 8.63037579581639 5.775730360396638
Al 3.9726063629484423 7.135185678412323 9.895953398330702
Al 2.0445457032236813 7.582114967827656 7.42121541636194
Al 5.930986667257624 8.98624899099257 10.220704321817037
Al 7.626063744989902 10.293872921233936 8.483624111673596
Al 5.540390830515339 10.508381884245368 6.760254297683959
Al 3.718981001388732 9.48754218048937 8.481118882521045
Al 5.337188999849444 11.497561045767815 9.33348923517194
