45
Energy = -142.63132305 eV
Al 4.897446538535373 10.4528179035413 10.868518210060072
Al 2.138519017829813 6.867600257733698 5.508439962166911
Al 4.532995091214404 10.550674206273227 8.218887470171682
Al 1.6549836003953238 4.432992284723191 6.542888956874148
Al 4.201477538255389 11.121048519439865 5.664162968269174
Al 3.0817079460239785 8.813348160946214 6.908522587232702
Al 2.4588070973528997 6.516697170469839 8.264017150690163
Al 3.247808679765607 8.548608170954276 9.69391997681334
Al 6.879278029264532 9.395107075485951 8.976877402621941
Al 3.7259387081751374 8.9276025548874 4.3132089989839795
Al 1.107010938751553 4.984827728545061 3.8713012358739953
Al 2.6962286309200203 3.8735943565263184 8.941396285278016
Al 5.637394716492168 7.877841782785294 10.956839620704539
Al 8.326567281576564 10.332539192651753 6.899295659281417
Al 3.291367612517035 6.610867302801641 3.021624794395466
Al 3.616561503062337 4.4131271916080035 4.569107709876762
Al 6.317900814949653 8.336895669202578 3.467735311392184
Al 4.768772938841149 5.545329927472855 9.922672425264373
Al 6.809667668128912 10.884890069038768 4.599091790574582
Al 5.9772101485093705 9.028453513996492 6.264437625728938
Al 5.033978684009561 6.6827816554274175 5.418869514149861
Al 5.269038504596063 7.3313238958044575 8.050521352561535
Al 7.573163859073252 6.735129937851608 9.686483517943051
Al 8.621118438755822 8.81064685827983 4.695308089340596
Al 4.484170670744025 4.683553598934305 7.124645683764057
Al 7.80085101094704 6.072102239051517 4.875758162396715
Al 7.154104650117437 5.317466244453052 7.340392578360112
Al 5.866127951159663 5.770453150031373 2.7848924602312337
Al 8.739826670330846 7.537564740203049 7.326713334109413
Al 5.137839077572604 2.9736475998151755 9.162870521077386
Al 7.646431749029605 3.866378072720718 9.642076008410609
Al 6.116328750575954 3.9223476239740642 4.952270917473263
Al 8.66260168768701 6.888158921491751 2.5305132363243104
Al 10.60964452887132 7.0815349973672985 4.736801781594632
Al 10.726217737461615 9.198443016871522 6.462492806068668
Al 9.804544658753414 4.984801626783394 6.370026339311742
Al 9.801464506446665 5.49192257782076 9.001283861001971
Al 6.888769668862693 2.589521393210635 7.2027337803648015
Al 7.895815553510116 4.093040524924756 2.6349763248885574
Al 9.48830326860459 2.8664025054084465 7.909651480222222
Al 11.51327944405989 6.833173105275095 7.395429279432489
Al 8.592810031679084 2.841629740009745 4.999905496343532
Al 10.271746143383012 4.658041492901892 3.642241135441416
Al 12.350586795854701 5.076950327480091 5.430310184476944
Al 11.1114140404505 2.7059436979210107 5.677708595553683
