41
Energy = -129.02443476 eV
Al 4.743326518647825 7.520421061685015 3.7445444135020773
Al 6.5196303019995225 10.678869191848904 5.4002182663384595
Al 5.331859168892999 8.255448173448588 6.3518229507550545
Al 7.1433548627328065 10.15885816672968 8.023997151288427
Al 4.550406469588623 10.692194558893503 7.361050693460894
Al 8.336344481651901 8.110098477545826 6.4904916926635705
Al 9.834980976387687 9.333549087230525 8.384974911206461
Al 4.067075318665182 9.968908437327611 4.605073471505746
Al 6.877494190288798 6.376611148670504 5.110220504406472
Al 7.635691281432043 8.69672994193189 3.872523833838729
Al 9.060230387025822 10.964509904011521 6.190192524983143
Al 7.8126389675874455 8.012499899724178 9.64793482423381
Al 8.789545528219524 5.061229048859867 6.3593433720648616
Al 10.211285931735931 9.143364077875155 4.597504634535924
Al 9.53744341699809 6.611715921173577 4.079080747836343
Al 11.058449791661898 7.610096298786512 6.597777356855509
Al 11.47779718905297 4.96452598344445 6.956700038046228
Al 9.666005530948686 6.4393196141566325 8.518714230642807
Al 10.760495470701718 4.150430002883194 4.492040864127592
Al 7.114059204964173 6.422021245999846 2.4065115321896915
Al 9.11154439335787 2.3743419880203946 5.852093548247747
Al 7.8109041596798265 4.974493345693269 9.886722123833694
Al 9.760263029763038 3.564604781228778 8.43287248516122
Al 5.770726240875485 6.48953270110438 10.70593462535459
Al 5.19939651118106 8.550510306801913 9.03031400694281
Al 6.580933622860702 6.323690751227252 7.857473789814828
Al 2.5435539030349577 7.985420767312603 5.700581981732839
Al 2.584529098051526 8.844369581611781 8.425614846849616
Al 3.2287473597901997 7.020524310183499 10.251827731193243
Al 2.6833426392488975 3.846353426585958 7.469058879352888
Al 3.5890893175147265 6.413075531593655 7.6570425311231824
Al 4.724668817997495 1.9843440748002374 7.406517936006682
Al 5.306565298842205 4.747843408008212 3.616158245215274
Al 3.8351422161666866 2.845573352162586 4.864652076262892
Al 2.0082451050163854 10.549941783636681 6.381266783682817
Al 2.9803460117870015 5.459605779980335 5.054770292300744
Al 5.2269205723328005 4.621476035328089 6.390669857029605
Al 4.893742705819038 4.428640180958666 9.101348714243985
Al 7.150718712266215 3.178053807269345 7.824440997777931
Al 8.146210816197177 4.229645207083249 3.8386357874863553
Al 6.51007725628288 2.4789850126440487 5.235067497421538
