49
Energy = -156.70209538 eV
Al 10.039026450939764 9.321186819318065 5.608438116417304
Al 10.995989246759766 6.769946575764405 6.024127479385463
Al 10.86753993623843 5.365787484842211 3.6507303265792364
Al 9.178231824551382 12.004183235665701 5.22970180078896
Al 10.508452211315431 5.369215219659728 8.25691808337184
Al 9.02420317299219 7.325849245730517 4.083656802691691
Al 10.337213236364379 3.941087763769967 5.8185613219906935
Al 9.463180933736195 7.969921975870393 7.878816475976398
Al 8.212436310920276 9.937516267290787 3.670327188437743
Al 8.603364268134051 10.530374727669681 7.53520061444995
Al 9.22000051039617 6.769853306841024 10.345254269342782
Al 9.551632389262577 2.651432298169392 7.950750754102711
Al 9.142939447572388 5.907030299736872 1.7322378334892847
Al 8.269515771883421 4.537062096017635 3.892257898623033
Al 8.09768255615038 9.272898074798492 9.850709248116157
Al 8.284813718443697 5.724576014248854 6.466521536504436
Al 7.344914130155259 7.93489730252285 2.041785036309315
Al 6.251784667658327 6.3966446744234124 4.436042814876013
Al 7.2487935164082815 8.35197145815643 6.066126250210226
Al 6.622940028961417 11.043852125198493 5.655089770294237
Al 8.20986151862594 4.393849700500235 9.325768721187654
Al 7.359470543951654 8.13296251765505 12.135995211048343
Al 7.6747015944779395 2.9227462590709905 5.889278026338311
Al 6.992602666934841 6.93592840482536 8.561487791371453
Al 5.624116778745855 9.241987650049314 3.8354504649392913
Al 6.4154453420566915 5.177415257941943 1.8918295427958085
Al 4.745983969333067 7.395889609400002 2.104343642586558
Al 6.721945673283481 5.750171438555204 11.16686098788976
Al 5.846727346404829 3.4286501515425414 3.8555492585614433
Al 4.29155247821914 4.963000430725581 5.63801286751909
Al 6.110849990085684 4.54957927125072 7.486878323610281
Al 6.900207857598285 1.8786431722395869 8.268336197043322
Al 3.486129035803787 5.245518200298902 2.999640957134631
Al 5.235312650261271 8.340206479841482 10.311321748568282
Al 6.042199265685039 9.84088929528851 8.142334518321954
Al 4.696696507959541 7.491631653567796 7.445067283779663
Al 4.231804642617903 9.913317786884301 6.115192606633933
Al 3.7447061474517214 7.562809055689063 4.697664230741427
Al 5.794962178857259 3.4063261982851754 10.101291743497814
Al 5.030768398447816 2.1920658795641432 6.193424729701763
Al 3.2831715081492363 2.7341937813707933 3.9760136902825556
Al 4.498239831490807 5.751366371509682 9.569363951198858
Al 1.7101274796999553 5.861513671870141 5.059391622646301
Al 2.557276045452003 7.602090657167208 9.652526144783494
Al 3.782802093784861 3.336345576515477 8.362868507130434
Al 2.1518909668661523 8.290403575184618 6.815379424995907
Al 3.473906200338709 9.913675246475059 8.725539290413142
Al 2.5283017611811713 5.71221466309179 7.7126465788046525
Al 2.113259930379843 3.4289958109323306 6.286963047504668
