45
Energy = -142.23388367 eV
Al 6.03881493498151 11.369438136700705 4.352359984918294
Al 8.135487950609013 10.795037022159757 5.903666850582808
Al 7.728118197029051 9.397482401053932 3.5081543039574434
Al 4.680141200316862 11.382950400584786 6.748778063461376
Al 10.19165788183902 9.963290293018499 7.377814101380458
Al 6.659093369342762 10.495943272915897 8.28932126126109
Al 4.982458522531875 9.158856167660012 3.2374139280686776
Al 3.036721921942465 9.51384683047902 5.700063621087739
Al 9.629450528847437 8.150860573677717 5.070225104246738
Al 5.864732104473662 9.11495767320773 5.817382888668612
Al 7.948998130908161 8.270703174572095 7.307108468777943
Al 8.735020531182242 9.437301308380844 9.689812896496056
Al 6.723635466233914 7.576292967356727 1.8126695693223396
Al 4.421175263530033 8.865195492656362 8.038406418229322
Al 8.94423079599229 6.478360911505212 2.969311681138178
Al 10.720674764812724 7.4117669979541265 7.389755332074833
Al 2.2929865151143725 8.338020432518695 3.433260410268991
Al 6.291905935808421 8.123202627922785 9.899064493751977
Al 10.613872600550511 5.429432103323801 5.208809737370915
Al 4.080486710521685 6.957743166020077 2.0064746637949757
Al 7.060500887408465 7.029122145756372 4.823489435777757
Al 4.306970857861799 7.009289562962946 4.963155464251358
Al 5.875004959286888 5.293388044413901 3.049674562591155
Al 10.894593457112833 4.990259530286707 8.270478174709735
Al 8.460036957485867 5.679361496356492 6.944748653543793
Al 5.898792170205064 4.821923003591387 5.73886300371029
Al 1.7036892680601834 6.2220228447097385 5.080411803365839
Al 5.9288571184093986 6.438263825137852 7.797910465324959
Al 2.257748403142791 7.5000630928214145 7.369222660999294
Al 8.71480826867922 6.772479015458496 9.570105665688297
Al 3.7881539438036476 6.562613125856527 9.522992510776996
Al 8.234801093119831 4.275752352096674 4.505462450759568
Al 6.410673917969897 5.45734822448178 10.387981663297847
Al 5.754888947524408 2.783150007480328 3.9733755147634753
Al 8.895952116559776 4.092610165800254 9.798398287114155
Al 3.5363949256079508 5.2229894377830295 7.076902957971751
Al 3.418857281796343 4.182881478019301 4.436978871840116
Al 9.621036534138714 3.224389118137536 6.7129634014861175
Al 6.761937661296597 3.855837500904446 8.151889571055888
Al 4.493363232015265 2.7541198537123925 6.6324514943049655
Al 4.340141328576961 3.8312895248966714 9.47746043023579
Al 7.230577338278246 2.068297958534158 6.09681751406925
Al 6.67810997876156 2.7061360597850914 10.769793004577528
Al 8.410209085289932 1.6789514075344618 8.63816740746509
Al 5.6691100633021305 1.3856454941167615 8.518956428408522
