42
Energy = -133.9117898 eV
Al 3.2368582849368703 8.205492400883436 10.3402617209217
Al 4.927420158974864 6.368309068767996 11.411295607055322
Al 4.1041536889333345 10.01664309365427 8.416770985040829
Al 2.178656746335931 7.908343090440425 7.887636165799642
Al 5.8434311039840665 8.21860373345758 9.480060262304056
Al 7.538388055439011 6.426414811323254 10.624896366438868
Al 3.9428784680858207 5.972313213346318 8.849367896272694
Al 5.641867478512188 4.171534600100077 9.952155834654532
Al 3.109518047990673 9.82777881207212 5.852416515672278
Al 1.3191413096761988 7.829517966130132 5.344695389955773
Al 8.480869734521367 8.270492153390997 8.745579835204529
Al 6.637279859843899 10.042837387173213 7.538995993884107
Al 4.874971166377954 7.846016892395624 6.886100257160466
Al 8.279856254888733 3.8024202629363475 10.522313310284977
Al 2.9830853347031177 5.7653048011370815 6.379429693346531
Al 6.538276726846813 6.032398719260463 7.977832704836954
Al 4.605793244278404 3.7306862376728214 7.390410324489253
Al 5.634192945008213 9.73689160016933 4.8546884037827
Al 7.639269809420166 11.518602632187541 5.476755130291072
Al 3.911719164750103 7.698163760984421 4.265403929961893
Al 9.167817741255549 5.609322624338778 8.611903145609325
Al 9.907135222515304 2.9360076868857727 8.52747609255822
Al 5.534621637736128 5.69570771049898 5.306598590888417
Al 7.268363314699018 3.392203782955538 7.912791864569612
Al 10.025334430862936 7.215816820272824 6.671496821791284
Al 8.126008016337261 5.204682582321031 5.96484526048379
Al 9.32743356361204 9.787991070029108 6.6432188786193525
Al 3.6435446412355517 3.690715310197824 4.841345053807212
Al 2.0095039567971638 5.706918959742183 3.8248739033320716
Al 7.427746445255295 7.859811416108779 5.949285159813939
Al 4.573140161073467 5.596223744565656 2.7385416099233737
Al 6.378685847742498 3.010456016427013 5.297585676676314
Al 8.27200701458584 9.446312971506055 3.8762743349573294
Al 6.418051574457656 7.570390191233034 3.163635189606401
Al 10.858528934643061 4.60234016765519 6.63391387500266
Al 11.603711955237838 6.152627581628487 4.563656770267572
Al 8.940757010327651 2.5585559003425424 5.9437012928881865
Al 7.246617747856628 4.838411470620979 3.242670077359521
Al 5.251872271550712 2.990186196269059 2.813064302821377
Al 9.808197057044987 4.205204032018999 3.9037404236115676
Al 10.883492838271945 8.755874890476338 4.576898933122614
Al 8.972138264794598 6.857810867823868 3.867753646333358
