46
Energy = -145.4626781 eV
Al 5.205152608262399 2.627139502808658 9.392109659170188
Al 4.867967541522681 0.9699841885281684 7.17224254044815
Al 7.230796936144038 2.324663040468955 7.502320918258163
Al 2.7419089928490537 2.0949043164347825 8.258441643809961
Al 7.1316504261972105 4.504276132711759 9.108041933499758
Al 5.293614460179648 1.6070306438648025 4.6801282130773965
Al 4.4293113982691015 5.248495873751511 9.348434378836656
Al 2.8789031019223277 2.252630445345411 5.58701896352181
Al 9.52138334466643 4.019145469805381 7.684087986704171
Al 4.815231986545223 3.8039868724413837 6.9574480228908095
Al 6.6086442653704385 6.630536514439609 10.709281308828695
Al 8.962323868032247 6.542712155142694 9.144010964193006
Al 7.771881285876632 2.71703765232496 4.938088616259492
Al 3.6334597852992627 3.3975810988686614 3.0520030256110293
Al 2.2099257546139244 4.580175135405463 7.7822445990629925
Al 7.4232058872825695 5.11565448667859 6.326399166718502
Al 1.9907421943271217 6.894226900573922 9.19484941868754
Al 9.86626973101478 4.668109963238593 4.977646499378746
Al 5.674191427777278 4.459758484499238 4.496135321549655
Al 4.392184001245353 7.969614638151912 9.524691507284553
Al 6.2228701801830075 2.6092590987626343 2.4973936047435696
Al 6.373932054226278 6.959558653090963 7.914379820884974
Al 9.907061296820082 6.695685222150799 6.706205531870708
Al 9.723500731358694 8.98165338519454 8.178740895781923
Al 8.047862773870635 4.459053338362132 2.8700732128391544
Al 1.1591209286237807 6.812650681203809 6.522808386179538
Al 7.287814014826763 8.939258511158366 9.59996630985299
Al 2.823854512645525 4.95580283278693 5.1450673296347755
Al 3.885064788846709 6.676693326799622 7.072775677846262
Al 8.348250967458172 6.9378501173037455 4.493131183154922
Al 4.246764994505 6.058315132314921 2.908491975115593
Al 11.17625923139441 6.966200870113856 4.031983963293012
Al 2.578711514673887 9.105913734524522 7.371566118983569
Al 10.24334583427294 9.026587770868106 5.450984278229205
Al 5.347190764346467 9.727444582149362 7.837085688937334
Al 9.478312846089867 6.365362979919668 1.956484726781337
Al 7.6174811107760405 8.869890363959307 6.386979325343275
Al 7.801384426975275 11.111466643682407 8.15527332889816
Al 2.9035895380014467 7.627604011673755 4.669150641623697
Al 5.7152673737376976 7.109504504356166 5.204841116029799
Al 6.756699514015572 6.953864970798725 2.332042192973972
Al 4.357940423381388 9.709081382165325 5.3203189868057725
Al 9.187043036322756 8.870827521235114 2.766193729960441
Al 8.655718052747224 10.935914215217148 4.601742713215067
Al 6.3657950841663915 11.333799578041093 5.852562908237295
Al 6.582062533254018 9.262854725850485 3.7678158330896196
