47
Energy = -149.84499959 eV
Al 3.3084956965860965 2.8062745906419266 8.497076916722522
Al 5.359330125328186 1.809046412128495 6.405369173068331
Al 5.739152759910755 2.002577340075612 9.101353392933003
Al 3.348996769856344 3.7351867948529938 5.946672502838154
Al 4.784870984557553 4.51222157669459 10.062203936113097
Al 1.8761627540615389 5.934159560881883 5.607557037331123
Al 2.7975154489962706 5.420614572536882 8.199303516490811
Al 7.921918193437135 2.3822355393986965 7.6045726635773825
Al 7.663765092044284 2.130806469293456 4.97122623162034
Al 5.7340018624313585 4.367627332970448 7.494448081740001
Al 5.648474030181359 4.064595436167761 4.681319996761601
Al 7.526146668321338 3.79786375363244 9.951062465601815
Al 3.832753222745359 6.140222029826705 3.5303012484542027
Al 6.615049383207099 6.20534189044679 11.023039921281189
Al 8.115435321079337 4.961056624229519 6.093760436001996
Al 2.605721095115353 8.357923852811158 5.021357084672906
Al 9.769941462409781 4.133797251537291 8.40076089542943
Al 4.644422788350944 6.489340084797321 6.135978758715256
Al 2.650872327305368 8.041716527021093 7.77397557045032
Al 5.055727626396341 6.959949950168203 8.742574953985667
Al 10.025279877999099 2.950683936712222 5.969000673696001
Al 8.184456412977623 4.204218078369127 3.424092272160067
Al 5.803123049792317 4.793357174765382 2.0283573652712272
Al 9.332704722099933 5.684450222333281 10.55151173865692
Al 6.766309332650806 6.436165272849412 4.250306577571759
Al 5.243387046060092 8.565535407258645 4.407439288324337
Al 10.984634401185629 5.407177423373118 6.0532242214785965
Al 8.448724369171945 7.916090704752634 11.91139192379078
Al 4.4987105555625675 9.59322415052371 9.11722644786736
Al 6.743144590060223 8.295166361297102 6.807493116591941
Al 3.3139832950671875 8.738507855096287 2.407891962227053
Al 5.646323433189008 7.482470140139048 1.921917372597383
Al 7.613279269066539 6.143484726388169 8.424117200944266
Al 8.191603015178295 6.391443184998879 1.861985441801553
Al 11.34945093057376 6.287918880930698 8.598337596587367
Al 3.7193281709102735 10.88231201266427 4.09759660713769
Al 7.046452287120776 8.692244079165437 9.59665978767806
Al 9.828829536561464 8.223616520132426 9.602473736491671
Al 4.300012681055735 9.98421175330082 6.5266971538309315
Al 9.522651008246275 6.9022023785526825 4.2839666194765265
Al 9.005754181224079 9.565726748798403 5.337829460421737
Al 6.60404825985597 10.794376374121507 5.063867211797414
Al 5.7356559131396745 10.293645076857773 2.378601287573465
Al 8.992249055187438 10.044302870864426 7.921344221413103
Al 6.518587518038376 10.888289098237914 7.848529723178772
Al 7.838525166730471 8.810521466310115 3.0823267808603974
Al 9.418329523986248 7.450391726108651 6.956190641798379
