45
Energy = -141.74358017 eV
Al 7.854160680830881 9.160989146903765 5.921648954072581
Al 9.871312194535406 7.49325307486263 6.979736722697834
Al 8.913370416785 9.554236656405884 8.641081927929077
Al 5.661023741633987 7.577391143375501 0.9638414442280214
Al 8.646921252302421 6.969483241153869 4.432762511374412
Al 9.832285609019873 3.784706762523095 7.651609742706201
Al 6.284687645610593 10.197454652434494 7.837032970071889
Al 7.7915169709881065 6.238072882782286 1.9802902342158932
Al 6.672029067962978 8.512972878657141 3.4381657671536274
Al 10.576186788433864 5.396029674435598 5.510128926725071
Al 5.146334043601549 9.563629773065879 5.401122156884275
Al 7.369365682387841 7.385956943689309 8.12848077250189
Al 6.780685353400317 9.040400466807565 10.30104523231556
Al 5.708238192924391 4.64321877289857 1.1020997813038518
Al 8.847774435465974 7.313067958123852 10.4728260856983
Al 6.0770415777278854 7.043834471359292 5.79540459245194
Al 9.546469656796383 4.481111577843755 3.167877517343103
Al 7.932335242086863 5.311712994198013 6.424924489667897
Al 3.44288644457995 6.049952323734151 1.2268884157300979
Al 5.0718349404163945 6.34280854034803 3.3550410563803106
Al 4.535963198088926 10.593470208963337 9.900873124421453
Al 7.9964943474041315 3.2685741368403547 1.0283286267708551
Al 3.4209205206237234 7.430775633451941 5.646002385591298
Al 8.037664675871792 4.972817464887649 9.250482058621097
Al 3.3750934463553044 9.99674567907941 7.365500762766868
Al 4.758390744611416 7.948745522032506 8.456667346935909
Al 6.885968622302926 4.262708255342668 3.6779418447632897
Al 8.245224000004624 1.8182477766495633 3.191479462427086
Al 2.389253880881597 5.927993195882796 3.717972858580371
Al 6.140267895417652 6.369890341845058 10.558657977933947
Al 5.538307150824873 5.237350996133431 8.052627727254372
Al 8.865817614926224 2.9120395591897505 5.425904552730072
Al 5.692557644971197 2.056889737615555 2.3736110047741743
Al 4.862592264345247 4.620398487698857 5.398709871995759
Al 4.508545355075878 8.393138419734063 11.629458511938994
Al 2.0777830945132103 7.428223785984698 7.878367136393849
Al 2.4809946991788148 8.775089577928018 9.994114192872635
Al 3.8105387622274574 3.868156285904519 2.831846101319592
Al 2.8887820203162686 4.924815808301032 7.443271699922061
Al 7.087042077680391 2.9432163645854446 7.589742216987165
Al 6.276029741327547 2.037774767103793 5.130809731641714
Al 3.493884730466586 6.0547271625525285 9.91282150174578
Al 2.2416951059595336 3.6477226789813755 5.17973300580537
Al 4.3385946071180275 2.5627717611080167 7.135370806577592
Al 3.796308981812018 1.6315726761667007 4.36283389990968
