48
Energy = -153.65520211 eV
Al 7.233992186891954 4.594139768589576 11.06357745923951
Al 8.677164827925667 3.0487916686051038 9.336408510007901
Al 4.427273050012742 4.897222162480079 10.586464903410809
Al 1.6823958223867175 5.293674879752425 8.632242581499941
Al 3.261417892672194 3.1687485712087065 8.880449604280743
Al 6.0265379981824925 3.4247311651371097 8.97730346633102
Al 7.53493946434546 2.2483316147853394 7.027066395165284
Al 4.790334561490762 2.422081301765924 6.860330326169973
Al 8.963112171689716 6.40164864209969 9.823703169405237
Al 6.233354618531924 6.600628663221202 9.442798002372832
Al 3.502949138809234 7.155466013374586 9.308735742504012
Al 9.947484345953084 3.67173009666284 6.86544248977614
Al 2.5984534859428488 6.911439236390433 6.540775100249884
Al 2.559394297292147 4.100734847248057 6.324834741951467
Al 8.884070929063983 9.127485741594482 10.058506673257648
Al 6.247463774191371 9.353299826486536 9.615665263137924
Al 3.9164035871828897 2.7620577682251204 4.336859190710963
Al 4.769024189707541 5.284841094225488 7.448825493479929
Al 8.79937810760554 2.734853839734611 4.559724055584994
Al 6.2504161765824975 1.3279293657440467 4.867834107687417
Al 6.4201106864826025 4.0460296519610255 5.020347119630502
Al 10.889039121450887 4.534258612631483 9.26132992371541
Al 3.6282382080102225 9.773915174978466 9.149974189422187
Al 7.645617721454208 5.1100880199818155 7.50612618845041
Al 7.159438681100578 2.0592570708218494 2.444842838686271
Al 4.146472683680757 5.488284359533542 4.656024496740979
Al 5.145110736552854 8.050898925962258 7.262107589208883
Al 10.375097435457036 9.03215380523517 7.756542553723663
Al 10.332828092750278 6.400071310693597 7.338470110412432
Al 2.8875201442634073 9.601861665835992 6.5202472783408645
Al 5.198739265084004 3.943489953505511 2.3913322047266856
Al 7.868466659489569 7.8437593865995385 7.665062523015935
Al 9.00990596593681 5.4546914526553225 5.047781125014323
Al 6.625829073291581 6.686747538813104 5.278076175308402
Al 4.288634924014763 8.10964244639994 4.608394001900411
Al 7.860468437090912 4.679993157408594 2.7232390326446567
Al 5.371603568140331 10.78639886338721 7.388887692378107
Al 8.019972874571168 10.599183210303808 7.964267786370664
Al 9.459093513829801 8.049506631923368 5.309779869634593
Al 6.9805223402931365 9.410392193717508 5.340327509985669
Al 8.231780409350261 7.274633625720226 3.0395755098358217
Al 4.64084714166805 10.754932220567417 4.695932755633017
Al 5.613199780735488 6.5584093408013535 2.6085466439643508
Al 5.970946710730749 9.162340203244225 2.768688429619025
Al 7.0682878948555325 12.04954120729912 5.815047702688611
Al 8.790120114092847 9.83617642208531 3.2166282438929894
Al 6.75309322419493 11.668102868901975 3.1684119174336605
Al 9.477445251347191 10.669395698080749 5.660452597775639
