52
Energy = -166.45004587 eV
Al 11.53091984046139 7.737866706327679 5.596969075450457
Al 10.732976460849533 5.095895955944545 6.360230243289831
Al 10.035012740777502 7.114011083283186 7.9166745119346995
Al 10.743256449413877 5.85203948050983 3.7440140767108403
Al 10.29401997572712 4.4319199943771785 8.982068179078096
Al 9.649841084184109 9.640087900549462 6.993381578348573
Al 10.625298398140895 10.099341221326393 4.518477441790021
Al 8.711139850210577 8.997954412731232 9.429810578558786
Al 10.664249252276868 3.087190717117137 4.447433489371385
Al 9.440970316328098 2.695969901613924 6.957697513144541
Al 8.981231801386404 7.816155241249703 4.866392374514153
Al 8.469664098999422 6.252437947486885 10.024360705553583
Al 7.911576563741516 6.793390971901888 2.5697254253116473
Al 7.219480496338013 8.706762254217278 11.648897013552002
Al 7.933749383040764 3.23158158873003 9.421742821300525
Al 8.815399094441851 9.415183846143641 2.6517403494038363
Al 7.501402669226487 7.870970674644972 7.028393605087723
Al 6.8475603301703085 10.471199705091331 7.800565192240395
Al 8.150130712576068 5.148986852853859 7.434633416945585
Al 7.914771653444238 2.415795494256592 4.411187408356399
Al 5.670992858229007 10.45910709359007 10.305499618054258
Al 7.750064960330626 10.411996928977349 5.183006694838472
Al 8.365609080127479 5.103960232578016 4.930370445988437
Al 6.827787652055671 2.546698638311759 7.037034700749742
Al 6.195882578769767 6.25042236036077 11.435020858888413
Al 8.912192887500169 4.148479223115241 2.4445895472973547
Al 6.00431245351768 5.298603588962684 8.846372247223663
Al 6.196671671170059 7.962799891877075 9.229999079009461
Al 6.37181281683019 4.525624166871183 3.233793759409739
Al 5.092123657152975 2.8705419050859997 9.719112576379917
Al 6.283251613744084 7.060786031527113 4.817458951065451
Al 4.109258590829657 8.1751547166138 10.886834106450067
Al 5.244875792856586 9.529021917422329 5.7787996875484575
Al 6.210006389019244 9.201807180758527 3.1668725597175493
Al 4.194524091544512 2.1596849073079305 7.234092625912122
Al 4.058604515998303 9.535582437967568 8.336178719809038
Al 5.116603778352472 6.736834153558651 2.3254998430490668
Al 5.218890837412827 2.4158407650628453 4.622897683534047
Al 4.770964775602232 7.040764212141311 7.108809243822113
Al 3.8552484998366046 5.197784786662852 10.659216213849328
Al 5.6383474132411076 4.750354866274527 6.023474464286267
Al 3.529474075477581 4.703914619651457 8.007780465249363
Al 3.5862217767215987 6.278057645219487 4.726762887332509
Al 2.611151591025219 7.1482960558841375 8.801401405244894
Al 3.7383793407863575 4.171268819130948 2.938055865955014
Al 3.627959137978235 8.74495414221045 3.6191854443725258
Al 2.6848476338096696 8.608644584520597 6.273156154559289
Al 2.446101031028995 6.632861030189711 2.155588796214434
Al 2.9054057906469746 3.7622486866445004 5.557579903980466
Al 1.54837795274752 6.07293159709685 6.577745411479484
Al 1.1626968858548148 4.987822822435358 3.9497900029297153
Al 1.0747196031378374 7.712320234683004 4.313128700121172
