51
Energy = -162.36478981 eV
Al 10.347869680200727 6.014596809237946 3.9068763918482596
Al 9.527371741597795 8.554078418213725 4.62990465968206
Al 7.147974654399716 9.789637916462638 4.150540717160894
Al 7.698637715191718 6.81791896809562 3.584971223546285
Al 5.086557620440366 10.768923177462469 2.852154954370188
Al 5.469112714594253 8.089984100547653 2.7289166497361337
Al 11.200667290442464 9.918289120201884 6.310412682866174
Al 5.958912099562661 5.446572011441258 2.1153741411593376
Al 11.525966254158238 7.149209325715453 6.008128975809607
Al 9.286602916343508 3.7019334483312387 4.282842533199386
Al 11.917037718345535 8.393883440110738 8.469278285852676
Al 6.606715223185827 3.9028108151821574 4.210187708717079
Al 8.006530690953458 1.4737363154271501 4.7304660578113324
Al 3.1199842032561933 9.30128830983306 1.8835520956114897
Al 8.309893382969195 10.340213449196558 6.530255909049729
Al 10.873719567802723 4.496521187490552 6.322741485408588
Al 8.354811179448024 5.700010811855084 5.943979841429446
Al 9.912795857878985 2.036200303554758 6.594173374770935
Al 6.895833881469705 7.942784318785006 6.166766420837727
Al 3.736830477337356 6.686757077955766 1.1490631084459415
Al 4.384340464631258 9.261608766164159 5.047192435360131
Al 9.336375134306419 7.9510492587005235 7.340183689258704
Al 5.211540035976785 6.198367979666537 4.7861087412736545
Al 9.98728272983015 10.370252588344682 8.74294571954802
Al 10.711044670796916 5.929791214964307 8.554429103796052
Al 2.787072617995396 7.432149552291438 3.6912131110472832
Al 8.772215208300251 4.10332409720097 8.050686086862068
Al 3.381018761303899 4.84723684390454 3.0892321587455553
Al 5.5378250706588865 1.367574823768736 5.454256147341371
Al 9.662565640330028 7.899092491879306 10.061290370219373
Al 4.6177461308714465 6.9734334852638264 7.290797549609161
Al 7.14041280575709 6.302126130789016 8.605168356375987
Al 7.438552172335396 9.029648695425715 8.969319367570053
Al 5.281265565126513 9.637005366439027 7.656089703191071
Al 2.855386296630384 10.524490080240717 7.05996347022
Al 6.0060449688894195 4.4896277649682865 6.860335125810955
Al 8.693364117831733 5.1482041342529685 10.486459324299341
Al 2.0497597013604545 8.169462193298372 6.1390684261192225
Al 7.331967813569272 1.9822570147833651 7.40983153299444
Al 2.635825124984954 5.626755846692657 5.628033359838341
Al 3.90700714672745 3.3396032430492886 5.180103457520838
Al 6.736979494635561 3.3757496622457364 9.641198511391746
Al 4.684968935264092 2.250848462273396 7.9147525526092
Al 5.15190807265076 7.578665766317323 10.05494051746391
Al 7.443979172144311 7.436428973343432 11.37546166681793
Al 3.0848525614425353 8.707593284470562 9.12065793844472
Al 4.531663355430363 5.029783956316789 9.194063979886863
Al 0.6284293768729381 8.803134288680623 8.29922717743752
Al 2.0399200306109733 6.308556216673758 8.189722161717896
Al 2.596142131654478 3.782914576290871 7.603062786749297
Al 5.971981585490197 5.201175680186235 11.516880017152495
