51
Energy = -162.24689522 eV
Al 10.661485683394897 6.772395943110844 2.1000997143748963
Al 11.68729666096222 9.030652667220826 6.1722149534097595
Al 9.617871941677048 10.4426813185653 4.924009083827429
Al 10.897054836780573 4.134455118642971 6.641663018694519
Al 10.582713253575479 5.246081448223783 4.314413887321756
Al 8.865542961804394 3.192442630095724 4.524142226950307
Al 9.860256470163835 9.379052523034844 2.476201888399776
Al 9.458145275121305 9.407921781616208 7.525902911624728
Al 8.672295728172704 4.861017263512628 2.311485309401072
Al 9.739077010025776 7.7200970387453705 4.638297711499003
Al 10.531287812445015 6.744860080716682 7.104152564315009
Al 9.197887458589708 2.176441522084217 7.022720444036327
Al 9.691409281513401 4.684280719606007 9.057125593404999
Al 7.2155850590379975 10.594618171385099 6.115737791959434
Al 6.407971337878156 3.4808597570154367 3.4962188296736207
Al 7.422330059238183 9.089066473656201 3.9023083256664624
Al 7.037974707101289 5.22156671290422 9.778933628546184
Al 8.223512954782748 4.963851423416742 6.758984071399455
Al 7.376066991158 6.1725926830521844 4.283072239312462
Al 8.560206739309095 7.272045870672466 9.001424536449566
Al 8.000345359867413 7.51248472348032 1.7996775882650686
Al 6.703395672761945 2.6613644377057297 6.087630210136565
Al 7.540403561772755 7.742802928629239 6.451091836667549
Al 6.125649836806272 5.518311806918182 1.6738528777522452
Al 7.399485859633555 2.800076878052479 8.801409030531682
Al 5.602741097209979 5.3627079041315255 6.591346709457605
Al 7.110283592329372 9.558949230941472 8.692908356970749
Al 4.723520990855123 5.727425561629951 4.110383878232052
Al 5.36754694863038 8.058677797421746 2.39419226708437
Al 6.2077937609495555 7.693993611571284 10.510675168277253
Al 4.800308441474168 2.97259389631278 7.944668040487055
Al 5.40336758890145 3.238439843571296 10.610066059349256
Al 4.681927941902693 10.334230786404234 6.941631034890295
Al 3.8720829301688022 3.5591649814591495 2.653083332830697
Al 4.227316599263699 3.0991508698375823 5.263690684152547
Al 5.158436765122271 8.327948482837183 5.141406338307225
Al 5.158999121519184 5.62766818999042 11.846973141295807
Al 5.17884138930007 7.689313324008731 7.907417146782938
Al 4.3562152123888165 5.416094319837518 9.12578454281868
Al 3.542960626656098 6.091025677363626 1.596031476503111
Al 2.9372236725481073 6.6427791644669165 6.258296109544243
Al 4.593317336095117 9.838093786908749 9.550248918466215
Al 2.466438468709982 4.112680086569799 7.097508218427533
Al 2.817599577539844 7.624426011035742 3.6471231275231055
Al 2.6506847367461526 3.274515955599163 9.646435102619918
Al 2.109640452636698 4.784052098244751 4.33048334779852
Al 2.5801906340738783 9.410046283456849 5.495637788336425
Al 2.492865053823871 5.376291510597244 11.33833032273249
Al 3.384097554911413 7.666177931035759 10.486126708568577
Al 2.524091607450527 8.620567053492717 8.036199044532863
Al 1.671636532395539 6.096201304197827 8.815344750834035
