52
Energy = -166.12465788 eV
Al 8.681941948915217 10.618248322028842 9.764897118655117
Al 6.300333857111775 8.960051036437736 10.477503330035923
Al 6.170819720197551 11.457994859942676 9.24504974423664
Al 8.18228158578173 11.743377426933593 7.186630162912112
Al 4.047112104494154 10.448231991936263 10.509383726529204
Al 9.969890427617196 9.525147106533414 7.662275082255856
Al 8.67893054058458 7.8759737789248545 9.7146363558583
Al 3.7859774645796573 7.839649379924621 9.746841180048664
Al 6.608330683541261 6.307819825653951 10.979737039090503
Al 5.915961968628118 10.63394975122292 5.747002868453427
Al 7.139867737514974 9.327230320832228 7.872197545131971
Al 5.973885864747271 6.8235522704543285 8.40440526254102
Al 4.467740703359516 9.775098565581404 7.825076488826778
Al 8.454495265596226 9.469295206331005 5.437342326100005
Al 10.610277811439987 5.572116654679104 7.3388526085117185
Al 10.489498689261424 5.189634727579539 4.570515488066942
Al 8.379365237022666 7.158819860652922 7.012962557165085
Al 3.2738389721756125 7.546903181478904 7.0408432072994245
Al 4.493855353548715 4.9720529344125985 10.007259268584066
Al 6.830152929643716 3.351255853770361 10.39401122699376
Al 8.366569006390858 5.313970253437375 9.093687502789756
Al 10.679930729875592 7.856455401834944 5.693429993398294
Al 3.9266869142672323 8.972965124069649 4.516850613432002
Al 5.901771034739263 7.786466952609475 5.963788484703571
Al 8.789807352986863 2.7304750753656957 8.256492654106408
Al 10.100963916904712 2.7439450682317954 5.857371932360572
Al 4.290688872266213 2.4277145514697227 9.091538980648577
Al 8.252646067330913 4.63156926191324 6.280264500310304
Al 2.147462828157731 5.833666487657239 8.989456935794987
Al 7.817812305704722 6.456669972560073 4.398212801125639
Al 9.377076092113777 5.517544044116633 2.1936542931279357
Al 9.53507349966401 8.26258108614567 3.2286791291026975
Al 3.0861671598525136 6.205319967252392 4.741255582383082
Al 6.2762902282005975 3.9453698744500367 7.801985603153972
Al 5.402319381675006 6.794453623211115 3.3759425555403855
Al 6.732240466641598 9.235592935409096 3.487303297782
Al 3.9846379255343547 4.889441854406391 7.148072649956143
Al 5.129039259672412 8.788716367689172 1.4101783435651924
Al 6.501416945438786 1.1906721606205506 8.30032306321635
Al 7.387632023776522 1.9132023336191568 5.840274908696979
Al 2.205188352745073 2.6417111991743836 7.337314349267507
Al 7.476325353402969 7.276691259153878 1.5634054123660417
Al 1.3706722949802972 5.142116003399978 6.538968609070753
Al 8.339064081712959 3.45688371662388 3.8199803993181494
Al 5.755430102719861 4.632303529944673 5.092425388647021
Al 3.0164047387694377 7.252363487231372 2.309879968028774
Al 4.731060804990578 2.051795344481377 6.272391379489519
Al 5.027860235941544 6.06340485035824 0.646739118781886
Al 2.9506835290751687 3.476068352550097 4.892933321543628
Al 6.736623161233141 4.5696820151964825 2.0758644214004685
Al 5.7132274662196565 2.3922488165974163 3.6513150753382617
Al 4.063771625579878 4.463730657277026 2.7275579698613956
