54
Energy = -172.30020425 eV
Al 10.983787753694717 5.440371975841052 7.666294627188516
Al 9.41109655234012 7.19766804503459 9.646957695875642
Al 9.677513930088278 8.095869924385461 7.080428591085462
Al 9.651695715653355 4.647766408307415 10.27876301451202
Al 8.292205852518372 7.1754875817319475 2.8134241427776834
Al 9.881267083288856 6.41536164285264 5.024854241033343
Al 7.871176831142763 9.898606299800495 1.9702642768387215
Al 8.653523794665348 9.76421471431051 8.95786123848184
Al 9.828506939389644 3.7342128681718423 5.662177512773925
Al 9.11079948272434 9.06529197899966 4.400122298838147
Al 9.164884148204917 4.624084968156135 3.002208863586394
Al 8.316470412254752 5.552728128679803 7.275250240789807
Al 7.044963804078192 8.391553978512203 10.787910007480745
Al 7.147479272147321 5.646282329559818 9.79540239538904
Al 8.984329846471521 3.090211665327321 8.216635608974224
Al 7.407502926334594 11.530055025243165 4.209641432250484
Al 9.19286050014905 1.9418645306507178 3.7375164644785883
Al 7.13364769462137 6.89441450927289 5.3386597659670985
Al 6.012734221279067 7.932705645557423 1.547520363918072
Al 6.377656726490077 5.294235423005595 2.4311192949571274
Al 7.57713164250875 3.0369220362492872 10.620279200746944
Al 7.676873619767747 9.88417595859956 6.405754602942248
Al 6.042306600502769 10.452688369906795 8.363132516957712
Al 6.247741731029898 9.062676216398387 4.094966956657006
Al 7.242131213107014 3.8313529691969905 4.700256619028577
Al 4.99719772659114 11.155078580946322 2.9510994216902633
Al 7.3611267694619995 2.7778359075491275 1.8996437713568846
Al 7.8535788658704115 1.6722360155996505 6.222603771163563
Al 7.026027874619914 7.715048678216236 8.08129655973477
Al 5.025528458539472 8.21656477680789 6.593188137785416
Al 4.651817518807603 6.9535796362168885 3.8435876541771714
Al 5.1936471023571675 11.039162082863513 5.812766212177076
Al 6.637914290203109 0.9747350268707485 3.864185080075421
Al 6.271498586034866 3.982577953513433 7.759470497993815
Al 5.00994927478265 3.1154224155257486 3.2640663533667333
Al 3.8708915816617377 6.184648058661236 1.2955920432433974
Al 4.596287642246122 8.529466422569438 9.341401918611098
Al 5.086615195700018 5.103760975287073 5.662418063087233
Al 4.965344208243996 6.698019007871859 11.282386298543877
Al 6.587643954613913 1.4452637428063357 8.608409755773307
Al 5.05639133559238 4.035461068710414 10.287488313749185
Al 3.609099064436887 8.992072114722637 2.130513656445843
Al 5.131487828172993 2.2573982009695155 5.836593847183048
Al 3.259992230883049 9.274694158727813 4.964052477611143
Al 4.347953695731172 5.975589093352704 8.19527612989439
Al 2.94132337716366 4.551729336035384 3.9535315026583824
Al 1.966576237310945 7.093204781362214 3.121452411312987
Al 2.484801864210028 8.435870955761391 7.708253117847899
Al 4.0873425723316315 2.270646647978321 8.274357732047886
Al 2.5108085659518626 6.946384134194724 10.157645820498278
Al 2.500140590198409 4.1272915428720545 9.383921844754767
Al 2.7484753225902048 3.95088841062336 6.594624804756301
Al 2.6008576293952683 6.627920282837299 5.704942040109924
Al 1.2963155121864915 5.958547419828966 7.910814661965552
