50
Energy = -160.02465106 eV
Al 10.754774665769885 5.991845653216102 3.3517246627444184
Al 11.215220084873557 6.516353617984671 7.964975791643594
Al 10.427853315563393 7.509902337410186 5.7164390332174015
Al 11.743305856925273 5.015179687024951 10.14592408255927
Al 9.458793277571779 8.57992294226151 3.476729653509201
Al 9.98226042509269 4.6689789222183435 5.560808175711049
Al 9.268694695323504 8.413927548196783 8.174864632028015
Al 10.899414604577952 3.7749391769853453 7.906042443305327
Al 8.458248074905594 6.392016170762515 2.0073933191504167
Al 8.415329889405385 9.366372155087765 5.942984254104842
Al 8.579549845883284 4.079094706140075 3.3824640897018323
Al 9.750947240598672 6.903004498034223 10.306664805623697
Al 7.729284011673547 1.7886732376299925 5.164920994734485
Al 7.596696411121128 10.67864543118908 3.7811163424684806
Al 7.926396963765026 6.690856177743526 4.802890218734678
Al 8.512730854083058 5.8187649072580125 7.44656132603939
Al 7.972779224748014 8.872984749495762 10.628000267418393
Al 9.060498338318606 4.323304115539637 9.842692870116263
Al 7.161140645559917 6.342245163140244 9.712992922491686
Al 6.807648332434834 8.276194017051546 2.549887980918843
Al 7.17367391289439 10.21519076216372 8.505706660022101
Al 6.619203625925913 7.677001158187808 7.369012396919311
Al 6.769833170483005 4.333727769344375 5.568102466142373
Al 5.487634364935311 12.566930156792628 4.036765831806978
Al 8.427011690198169 2.954403429729485 7.502589694133235
Al 6.547469166667306 3.5972301452593096 9.885229854649348
Al 5.122143932495191 10.300729293393207 2.668194240549065
Al 5.863075607849156 8.892814130834314 5.1144772583086775
Al 6.163858476851307 2.9774438294636907 3.11293784826241
Al 6.386964699421755 11.358109739856838 6.2581654523552945
Al 5.98962806649674 5.690780111146296 2.985769393617575
Al 5.3844977150474485 8.456647526669435 9.88262989694986
Al 4.901529541584729 6.410749645197042 5.506234649705755
Al 4.738710640651879 5.604047863353333 10.43599160676686
Al 5.895838193451811 2.2556562804891755 7.465817173727731
Al 5.360241269832418 4.917574337115985 7.746997466871013
Al 4.530450374935145 9.76926189623343 7.586917006013383
Al 4.940271068159205 1.6071342450036434 5.023218413016289
Al 3.9128672079175564 7.191993359778189 7.971703300306964
Al 4.140323376230887 7.9511354720780165 3.2370215736288053
Al 3.78674351972243 10.614288338450416 5.120899374853773
Al 3.9888860773398966 4.077252127000543 4.430309468200599
Al 4.004635507374905 2.9581934061365605 9.353646625567036
Al 2.4369141151996816 6.130622788461447 3.8883579379602735
Al 2.8421183438749735 7.553619788768613 10.405521476333636
Al 3.3130916174902807 2.938755609146486 6.789923996384929
Al 2.6724524916647585 8.244688593218088 5.813125239641777
Al 2.4457254559147583 5.090103108486907 9.061891018705603
Al 2.327317155121213 5.40640154855925 6.386602613732314
Al 1.1628299486231892 7.3118154178606325 8.077669291195555
