53
Energy = -169.7129725 eV
Al 10.011491751161376 6.1810101788887115 3.518659963898785
Al 10.074470924876449 4.630032721834284 5.877672518205698
Al 11.00830689618542 4.43011359142037 8.665710181243787
Al 11.060454270183644 7.399118280238076 5.607727209218432
Al 9.83069318363743 6.770601254550794 7.852462646281091
Al 9.150062323153003 3.0255728741266794 10.075643519081082
Al 8.011988158373267 4.368990834393171 3.916137418547769
Al 9.874796167235749 2.1938731704647942 7.540840023583074
Al 10.603073649938272 9.425173927735528 7.610222389574337
Al 8.205322906925831 8.285500728518038 2.818556548736286
Al 8.070816285811366 5.854264691183661 1.5918980080087841
Al 8.107008079172976 6.787751703469388 5.496979536666731
Al 8.383947801041051 11.413308165526724 6.067972879702588
Al 7.749964243869032 2.4513099718112112 5.8944260880629145
Al 9.019195723007057 5.803014946677444 10.24173054871384
Al 8.155784581885987 4.4362110437591475 7.790166570058144
Al 9.416006549280514 9.363721286447733 4.824194349853274
Al 7.9415850084222654 8.901665302033791 7.1397188794261135
Al 8.869504646263785 8.481800659821205 9.818764309358444
Al 5.955993149371522 4.2966379284797656 2.101056062059712
Al 7.093063075692501 2.0328747423468214 8.64049853680744
Al 5.8749093296708885 5.646689669947551 10.89143655227728
Al 6.05178664809926 4.92767675364384 5.701884366361632
Al 6.335356702494611 8.033101699327787 0.9547447988713755
Al 6.043121910764851 6.744090622303364 3.605018527053645
Al 8.448563542199183 10.941157335728805 8.903595244245155
Al 5.688788773553634 2.6836111006578562 4.159317918047575
Al 6.76973822403324 4.326040501651815 10.23371810734366
Al 7.194192533313213 13.002089421877418 7.798237267917753
Al 4.776132709845837 9.103185472464265 2.8134514492408575
Al 6.651857400571726 9.334375640440141 4.767594333498303
Al 5.351415549225805 11.752824577013085 9.354841279157831
Al 6.574262894169619 7.043417525209406 10.891436552277282
Al 5.179738985970929 2.435267876494535 6.792890623988528
Al 4.05364792967937 6.6291870492572835 1.6961341467775994
Al 6.284145939785772 9.297916395121383 9.416699217261744
Al 6.994662409685519 6.71698845888656 8.212666322962948
Al 5.874212079675891 10.7747992016336 6.863103186249955
Al 5.1806591858192395 7.5341878599444145 6.263675072491647
Al 5.050216179359667 4.855890378859876 8.10157954804397
Al 4.644831340732019 2.613512170551484 9.643549897152406
Al 3.892071101231244 4.875363117702725 3.6818496244981618
Al 2.9412144295995235 7.461377665273511 4.188172758644481
Al 3.0151054871963536 2.7609416287578536 5.034733061778788
Al 3.650695967354317 9.990062454768195 8.11344009192574
Al 4.293659934814923 5.334169467365336 10.68372059199533
Al 3.8936604907241206 9.845676523928079 5.250754863984586
Al 2.670425724600068 3.181781481945557 7.6595708966518
Al 4.4151990439645425 7.45149475105932 8.938830677890907
Al 3.2511302914450075 5.438773520339372 6.120715390126767
Al 2.435745445168289 7.981230016061034 6.829986138946334
Al 2.344209841103625 5.769302734772105 8.644443940708124
Al 2.133338834791877 3.5334951594184227 10.305990740788308
