51
Energy = -161.62097046 eV
Al 5.439887700511602 5.593307992803753 0.4205557023129934
Al 7.409553639881327 4.113917581963495 1.804352291187507
Al 7.462290479328873 6.9808921241233985 1.6882081454239115
Al 2.1048226443980513 3.073755585047118 1.7909516443424087
Al 9.865823075402535 4.988083303294687 2.2315140810189087
Al 2.91597315919793 5.603852665669608 1.8366733116574023
Al 1.7060466619337422 7.838780202588112 2.5447138109074015
Al 4.821054033429634 3.0161918881920693 1.8642685561334846
Al 5.4426663840402725 5.607343465758007 3.0548002486537853
Al 4.534823151902928 7.879312937538541 1.8512714762167437
Al 7.039060515099118 1.5463252779740357 2.8697971237366664
Al 5.78162121175742 10.178573943402576 2.524597365752845
Al 9.090431701443677 3.0170196563786935 4.072641495500892
Al 3.3291788230400248 3.962312169052713 4.157140079325861
Al 3.5825389214497085 6.908737252908148 4.343444055082406
Al 8.36989003501575 9.616807652353687 2.922182186842201
Al 9.801692802097724 7.414681066382814 3.3352216369093086
Al 6.3118910987153205 3.597990670088509 4.359660896876469
Al 0.40380701469863395 3.27468403899912 3.889442119087232
Al 1.0765110196012861 5.792131709133212 4.2514545458361725
Al 6.3563792432394735 7.915477460863133 4.066646162103449
Al 2.1902402198078867 1.3207398207295646 3.902905144430563
Al 8.034123082669756 5.648526349738619 4.206754059197228
Al 4.314424743112615 9.555966563457034 4.865285998389561
Al 4.7138922017394 1.4246232052866503 4.597122528438093
Al 7.016362774487774 10.313758554021884 5.1635885393145635
Al 2.5158942364582972 10.313758554021884 6.150145207835465
Al 6.064125055424771 8.43757592195674 6.852893245325113
Al 2.778554889501966 2.5818214751430157 6.404997783613936
Al 5.697296203686536 5.874047475725979 5.815254212178144
Al 2.89664633188587 5.254989259885987 6.480051002259545
Al 0.2987324736374863 1.4712837917945052 5.9913043564897555
Al 10.710371678997467 3.4782999942465134 6.3067182500088235
Al 1.6230199841022306 8.612347557449038 5.0569618246740085
Al 0.32789006118628755 4.240504197489769 6.537048974565531
Al 4.864064017749128 0.7436486776180358 7.269350213451303
Al 8.027597176302452 3.9615382689949965 6.469165061637334
Al 10.03176547550896 6.051464075078691 6.147298896680502
Al 8.530431095772691 8.126604661376094 5.675427475353935
Al 3.464439364612066 7.875326613122505 7.006195802236709
Al 7.1753953882628485 1.444569967050914 5.772025834723113
Al 7.593776370122354 6.43600864298513 7.813103106372512
Al 0.5848791376934109 6.9377857762618165 6.8371364902634415
Al 1.7370850530202318 1.0236970933508318 8.486047666360726
Al 5.337597123651117 3.4168693884796797 6.750917932065356
Al 1.9050916593910638 3.7637053616418705 8.794553147499498
Al 9.591561173753012 4.6195813681339315 8.535342740839313
Al 6.89054425001388 4.038837369080674 9.001402925531192
Al 2.2115831614066543 6.400234842514666 8.911583225425076
Al 4.828770490347218 5.707744035560134 8.447924391051128
Al 4.410987607836183 2.6758981622611544 9.085042827207532
