53
Energy = -168.38872025 eV
Al 7.206938611654975 7.900232147736019 9.135666301906165
Al 2.679061375389441 4.793918697181873 9.819557114259192
Al 1.6924285887596646 7.1753955153051665 9.226793955340879
Al 9.361720194702706 6.490326154692252 7.7405178555900696
Al 4.56704568657964 9.140782125827464 9.112014392396048
Al 7.414856699901282 5.3743667954754475 9.710689783025963
Al 4.874576761966158 6.430053920122927 9.198567539781527
Al 1.9241924801537318 9.594412991261986 8.105675081969265
Al 6.70320084860034 10.485803668431384 8.155808538513993
Al 8.784498934870145 9.031669954515554 7.142766306321602
Al 5.454582795173458 3.751743101815685 9.042370206312926
Al 9.015113180324748 3.7845398699282424 8.280653998335799
Al 0.9152476221259034 5.098798601239898 7.672374947889153
Al 0.3836757100446044 7.61827794839077 6.794959997368207
Al 10.825532694883812 6.873464476542965 5.189653962692971
Al 2.0907550560208703 2.73572976660929 8.266966910764166
Al 4.284712184590447 10.45413909203332 6.648916461866909
Al 11.436384550812003 4.6803619428990455 7.410390598188577
Al 6.06537624172665 8.156713087154737 6.677074599037571
Al 9.065360187597541 4.612898720387611 5.655654780978848
Al 3.6853631408263228 4.840061986957268 7.281404666597473
Al 3.487193925395954 7.555104208004823 7.1049696002667
Al 6.8864781238071675 10.382181355026482 5.3562843781661496
Al 6.639730927063919 5.5281603257157705 7.063640913057013
Al 2.117368656710318 9.109140884814462 5.299656126489543
Al 9.356225760150346 9.41456673226785 4.615160442660818
Al 7.0400394921211635 2.8669836223354626 6.687608446256265
Al 10.420456167014509 2.361338943055943 6.270822344165189
Al 7.026225559221249 8.591812960455135 3.1634541777071172
Al 4.682663624533961 3.7858019167606543 5.01767058434817
Al 8.155624397401821 6.953851255016455 4.937284762315343
Al 11.781371749102853 4.302246649709979 4.736952042408255
Al 4.401437953178617 2.049801337279228 7.165358043106865
Al 9.599525021222906 7.889149558486086 2.513391999904574
Al 2.3457195476617287 6.05070031722614 5.354996325985618
Al 4.70998916890198 9.02371692175191 4.392022991942009
Al 5.537315177305476 6.390915074917127 4.631242121884049
Al 0.509824415149334 7.536872495223527 3.9239950855645547
Al 3.246083488631241 7.2514322912164815 3.1392167168099
Al 8.37042844743969 1.247636663960584 4.99770479460911
Al 7.1971867850268625 3.7930064154125946 3.8950327124071884
Al 1.619095556974241 3.434964691413156 5.616121014361188
Al 9.926327150152249 5.3989796756814 2.98881462018854
Al 11.781371749102853 5.386498479732558 5.311264883652218
Al 9.930629964643495 2.7922645990584307 3.44004050730459
Al 5.719496405375272 1.2436232468026067 4.92169326431231
Al 7.220436769166652 6.0784472664806755 2.3543895459375848
Al 4.617828876027545 4.950570625846339 2.516608178631721
Al 1.4449256796829175 5.13314134395153 3.0247664629684503
Al 2.7704004284533217 2.8264988504578206 3.1980893481044546
Al 5.15906410713881 2.2648845958406376 2.445094707109937
Al 7.702486297653682 1.5381674440984958 2.3937008295894753
Al 8.407455472511595 3.899373077491408 1.347576394695444
