50
Energy = -159.55148574 eV
Al 10.632508025037481 6.623654144934471 8.196912810985687
Al 9.456456295732334 6.664101961061628 10.694069948135043
Al 7.896077273355618 6.567808031430135 8.392002514024291
Al 7.734885399472792 8.59328713039566 6.561852763709985
Al 8.951808677628975 11.061490272568323 7.428531577405186
Al 9.152253089415684 8.892973264775764 9.146346973335124
Al 10.472284102415115 8.911588263571371 6.719810543933923
Al 8.804438550314094 10.397309993614801 4.765705579299913
Al 5.256260507982536 8.728693644657733 5.4382640903744255
Al 3.8123560463538477 9.571054349500756 3.1808972246389455
Al 6.443899457721469 10.22520417863618 3.369943678934005
Al 3.9087800636335714 11.185489114404072 5.394279192477117
Al 6.420547358006704 11.041872568280182 6.375053611066829
Al 6.872987425625139 10.508848771944693 9.12348940924738
Al 5.748807766553168 8.116692512519922 8.304019386383416
Al 4.192658188209589 10.427093308422577 7.989595996673596
Al 2.614593265023093 8.924661352100113 6.251586775231026
Al 4.729149132538238 9.471255936021974 10.519680896804443
Al 4.552752672396675 6.763083653140229 10.923285504779775
Al 7.129350844293858 5.322190863712574 10.993838644572236
Al 7.105905153161072 8.079082852638741 10.803447878090838
Al 2.780574443887343 5.294074677917098 9.082497299293262
Al 3.0388906663086126 7.979156234866615 8.824670035496883
Al 1.5104467260502052 6.484899410564426 6.81476809117374
Al 4.159224452699203 6.6385803062194375 6.682805154482238
Al 7.880965042630205 4.395766083243099 6.770515124381149
Al 6.634201061706263 6.3086696720253705 5.218202398992041
Al 9.246896669928436 3.993820871024053 4.3325866557743655
Al 6.74943294314007 3.273944349023875 4.279480325480202
Al 2.6992444526568886 4.613842102435168 5.2728487075355615
Al 4.808296991215771 4.954730645168823 3.4820067526008907
Al 10.698973442430411 8.485875667630003 4.0114043335344505
Al 7.367515092897003 5.500781802618196 2.6488585143986834
Al 9.32794065060911 6.4736416735969655 5.562712096157801
Al 5.565286998611282 7.528047145966599 2.759400823734197
Al 8.075480677968008 8.002005956513475 3.5815979421239383
Al 4.22821550705856 2.3244553993502093 4.797570828191439
Al 4.225552909600356 2.931139473738808 8.396639441181089
Al 6.334887390325643 1.9623934820578435 6.786779538546484
Al 3.1412919276475826 7.104869701984719 4.147500132375242
Al 10.624202692758681 4.232755913393799 6.66374294688599
Al 11.866689132853862 4.683544472305262 4.1274148287192265
Al 10.026665720390797 6.1957203772719565 2.8012683411603603
Al 11.993401545647322 6.774615934930654 5.89777608222112
Al 5.5457533008530095 5.462625643573422 8.694784555043585
Al 4.66761379457405 4.028808403018052 10.931455232718692
Al 5.218979785863277 4.341665243360977 6.260144817947646
Al 6.933607799118122 3.087114237263765 9.327664926825598
Al 8.981886252018569 2.1171458772473524 7.672988850355384
Al 9.375802169486258 4.344552531961781 9.193979706903619
