54
Energy = -172.26880362 eV
Al 11.752352967641414 9.123179895000183 5.404104501835405
Al 11.068517293811523 6.977707392987685 6.87123168517423
Al 10.037542761976306 9.427292197533522 7.7854208248655805
Al 10.059719072377897 7.4300327846760466 9.604036927786863
Al 9.88149455745266 5.007281497466761 8.30776929812637
Al 10.15260436472038 11.247629252229808 5.78469884389693
Al 10.616643765212473 6.988078039696989 3.9846159900479687
Al 9.881603051245873 4.8913229988504385 5.533155979326713
Al 8.952030216766293 2.7640710009273186 6.7930254860286645
Al 8.86249431572988 10.768517260622158 3.4290736555424797
Al 9.075541329314582 8.758769210009756 5.239389276024707
Al 7.76415896691905 2.6869202288545297 2.296496482185513
Al 8.352301671755853 7.21778646385948 7.439830264904546
Al 8.288391220321179 3.308221879689678 9.496234329694607
Al 8.342451642400325 11.67705512733438 8.016895166756003
Al 7.956526773811394 9.459676901936637 9.581206675876919
Al 7.741360926813397 5.910625949310832 10.000272183906274
Al 6.970862532868692 1.3346309240464673 5.503500780860735
Al 8.299424628451726 8.05555688143501 2.6657231133818984
Al 8.851909754652013 5.222745388443525 2.8381561777351774
Al 7.196132259614906 4.8793979402388485 7.2797939692853735
Al 7.248161998148263 11.885329647175688 5.5514421200245225
Al 7.518077379502394 6.607115305956298 4.915629145852657
Al 6.774819365838288 1.5853231154430087 8.216201876651477
Al 7.521403008108635 3.839361228043379 4.756133984574965
Al 6.620195292993018 7.970860764698393 11.365169737974167
Al 7.069149986707471 9.495762399038894 6.8912182080215825
Al 6.520714534417481 9.659800302250108 4.10407664099482
Al 5.05360332916199 7.892728429129338 5.711908511336767
Al 5.136672257609492 5.327047256569808 4.862034772529618
Al 6.050225930751392 4.8265578740177375 2.3241359660221383
Al 4.170865670073842 1.4621538988230576 8.452025543966297
Al 5.537476764122387 3.7994819194162823 9.260182558260427
Al 4.962839739381136 5.99007410964731 10.549155981089704
Al 5.991047970488037 7.690818945485168 8.619653668548919
Al 5.315861060127133 2.591376028871296 3.6619987430339713
Al 5.018305683614472 3.235692277876899 6.538825556999503
Al 5.418268491826494 10.492340385930564 8.904933581741043
Al 3.977508885663365 9.42591978463112 3.3932002967903623
Al 4.361956811947608 0.6873458866885497 5.5620838980450715
Al 2.800660685029469 4.070856397211366 8.48633132260027
Al 5.604538824843661 7.397529375524654 2.8278532383168953
Al 4.707719739073407 10.745409486780858 5.999010591691425
Al 4.039970774593511 8.608819387276105 10.49591196966452
Al 4.477417756371234 5.873127996540964 7.46317062873593
Al 3.290451665245959 4.572653552624421 2.9151249068735816
Al 2.5007203619693845 6.60142927179845 9.351508490429147
Al 2.2141707419946304 2.064602418578266 6.769049900965557
Al 2.668332876379829 2.268580050088895 4.108220312625131
Al 3.506538191992441 8.749399472849749 7.878696638099078
Al 2.5961498987558107 4.538869806835189 5.691032375657736
Al 2.4625969751027026 9.147003080501438 5.533558018212708
Al 2.9838553722262686 6.906458767005741 4.112005930038324
Al 1.7862120290332386 6.857292913847916 6.788373233979074
