51
Energy = -162.7465357 eV
Al 4.501281631437247 3.9184344799597164 9.54009681213012
Al 2.843634182607585 2.7949772964378647 7.731989793707333
Al 2.191157429704597 5.556699885806157 8.784772536059364
Al 3.816310746061392 6.2640754936141345 10.907345545423162
Al 5.68952215612824 2.702014012687772 7.378158896854083
Al 6.022911269167386 4.57011326564164 11.510441663057508
Al 1.6198811083789701 4.709055171706218 6.134154684556979
Al 6.2756086258933825 7.091592689843489 12.445690282964131
Al 7.470286292934264 4.040761541538251 9.188487233590607
Al 4.258868982771039 5.08052986968226 7.146546659224933
Al 3.4639569441736437 8.126614282838544 8.859303896884038
Al 3.7290071042116457 3.077844719371187 5.1463659946182725
Al 4.964481161650436 8.838691510024878 10.981039336251094
Al 2.3254322597802064 4.300427639394479 3.0877486605771494
Al 2.39987380959924 7.31112636751097 6.5902066737401785
Al 5.980301073551007 6.550760161617642 9.429821048665614
Al 10.04753160890277 4.617122409269412 7.998442234939116
Al 6.369141035207405 3.1799047379743004 4.753232529254508
Al 8.325790904360225 2.748228962003665 6.797582949991422
Al 8.404919865766898 5.903191106940954 11.097955127657224
Al 6.9139111261927315 5.171948174640641 6.762766830813173
Al 1.3306092887696106 6.545311350317096 4.129698050708686
Al 5.274431963995398 7.451653686805145 6.8031226376336855
Al 7.742965008597149 8.508304316205727 10.392462674843939
Al 4.881288795322239 4.55131247400329 2.4504046283594834
Al 10.957402505719681 2.760801962655912 6.119847190406897
Al 8.427812028505524 6.68334540411715 8.496831336066872
Al 6.928325955824292 5.730205777392284 4.079506678001519
Al 9.3469856480507 5.080812333719021 5.425799202018602
Al 4.066220104108167 5.9509191092022 4.706376708283748
Al 7.367339323630957 3.8044661380769185 2.231255804314341
Al 3.353710867280052 6.93105031887146 2.280613054597435
Al 7.9118066874240665 7.5176498317897495 5.882900626444614
Al 5.9319579815263355 9.414854136322926 8.571382910026221
Al 9.05771515136797 2.7332404866806943 4.070639827128203
Al 2.832510699450727 8.778200945040801 4.282512048528672
Al 3.666813567744615 9.787391451794207 6.756667723787718
Al 10.53345272748837 7.417917348400443 7.076852533122308
Al 11.966601840310101 5.406189395975996 6.08695153082626
Al 5.611480724691212 8.176029760196155 4.2675850684218455
Al 8.72480660239425 9.333013018311531 7.903849723382262
Al 6.08325219204383 6.991930101428843 1.8034127563739397
Al 11.450803612500176 4.086817113599717 3.8008133364405263
Al 9.393344091808144 5.447419530393862 2.6852350551832873
Al 10.591102549862033 7.297354167611566 4.374018422425243
Al 8.264291263477688 7.9388977504539655 3.0192389242424276
Al 4.583297091181536 9.456958805681753 2.1549934775852115
Al 4.531541161518358 10.969845670653296 4.476216611855743
Al 6.585158614848995 10.049068585722491 6.124305350346103
Al 9.28350228906077 9.69620966663359 5.099524073198398
Al 7.085755275501462 10.400121957343622 3.4655572358443036
