53
Energy = -168.71129319 eV
Al 2.366204152985791 7.32493621193556 3.783799456430223
Al 3.037057128812069 2.804426477662032 7.137153785565082
Al 4.218553044104072 10.364787061745632 6.4871297923239215
Al 4.129867266608866 2.536568229338934 4.708583045203568
Al 4.3221339238644685 4.945537850023471 8.226179182876077
Al 4.930143350001595 8.875689408398422 4.333141494705186
Al 6.433643884025959 4.623136669659559 4.974132992223709
Al 5.620086573409337 6.658164361697968 9.939176062306563
Al 3.9722471177326355 2.513049072982133 9.648048618233036
Al 2.584736018033965 4.80433997388071 2.8613202332558143
Al 3.6498558563211194 9.02695858389766 1.9842743876287938
Al 6.755105896602771 10.773446072291964 7.958382287111703
Al 8.752308014261466 11.212702329860033 5.743999529312436
Al 6.723009086303654 1.6205226288260461 5.074412045721303
Al 4.885732444684862 0.5628655539869779 6.902907249407819
Al 6.106505602515494 11.455403938041545 5.050440370215992
Al 4.705363350036585 6.566621082953737 2.665730479375623
Al 4.760131748774083 8.796856952543406 8.517679103256613
Al 5.884008509400764 2.9622730074896673 7.393957364271181
Al 6.231548238266054 3.9048659346702372 10.29855470703641
Al 5.072064273609122 3.884958153287186 2.5468020216879057
Al 3.8556353177544676 5.2746866826821135 5.2477229862364005
Al 9.070501766061081 4.91690911379478 3.7600409461967517
Al 7.677623030471594 0.8227122095981028 7.38044091837682
Al 1.5586977445144723 3.575680410474541 5.0037261954095555
Al 7.149613185450888 5.595796110961079 1.8532446170276475
Al 1.7715974312255536 5.328427889406136 7.0383279968008905
Al 5.507018382966934 10.9507927787586 2.4559410752901396
Al 2.2948896237467546 9.792066088011762 4.678369634536592
Al 8.559664131884647 3.3641387543979278 6.231834283152367
Al 9.03300083093938 7.537980823819253 2.36557632040695
Al 10.94949461527462 4.581217786326478 5.925351746234099
Al 11.038917852464419 6.61750376154854 4.232969245412708
Al 7.0936003208795615 5.203954312119784 7.925634523151262
Al 7.525747554681529 2.9877632098477167 3.0074771314218047
Al 1.8151709187672538 4.143313126519136 9.434980642668181
Al 8.645721692692636 6.408711320610679 6.0862306506624
Al 6.258647964822989 1.0911857931119537 9.621148898744744
Al 2.97298311651426 7.811959460945394 6.552295630517604
Al 7.032306133972122 7.149208375617666 4.109640384834886
Al 8.387618499139911 2.971791543312836 9.032254590358445
Al 2.9157260252032966 7.000979806034375 9.239060435328248
Al 6.4042123300917195 8.427922436612462 1.6427633774927322
Al 3.8388471280284655 4.99121270310669 11.07618355549446
Al 7.79824837880373 9.897720029194737 3.3764826091379647
Al 9.871800810445999 5.16822790874771 8.358026125819348
Al 9.633486108369587 8.756765383547295 4.8494018888083
Al 7.568973141016563 7.8277006554062565 8.518599764461717
Al 11.120111484257954 7.279635412934126 6.8664210291410095
Al 8.227837163408854 5.718076140402359 10.376536229043742
Al 5.49642891927871 6.877355017668976 6.594129468756535
Al 9.47754943641497 9.338677798478422 7.533374965350763
Al 7.070428814504601 8.981244358137507 6.014333594825456
