55
Energy = -174.19299634 eV
Al 9.122307793902454 10.92218833158249 2.362524495174048
Al 6.876736831703833 9.393396932392656 2.6060104769698587
Al 9.066032608146394 8.899031251000144 4.062382642644509
Al 12.39449755090544 5.790565137909605 4.828913370876285
Al 7.524626049787897 11.358636826049699 4.4487343527456105
Al 5.188083798369359 9.910439561050076 4.648285735649184
Al 11.773503517941284 8.394258417587022 4.607392133667801
Al 7.684501631381104 4.722547538927139 5.019344965166008
Al 6.817892433447543 7.269841237323161 4.41388252482188
Al 9.613304898451766 6.56656322994704 5.0059561640407875
Al 4.097023401032415 7.581160188174819 5.028875872750091
Al 10.694285902983145 10.98340884254884 4.536390918735976
Al 8.750176011898562 11.696765717427747 6.731652918819233
Al 8.315265437178567 2.5600419783677433 6.5099346620957155
Al 10.389594812608758 4.032549200710861 5.330043719532645
Al 5.934588144042913 11.428354257623633 6.721626589215006
Al 10.245116019027515 9.329435646565104 6.6435208662433896
Al 5.070308646573391 5.169483957182916 5.511860173276776
Al 7.523168845544581 9.102684126587702 6.391122820021531
Al 4.838818641284194 8.95050478934656 7.317691596037741
Al 12.490414168614269 4.481139448580633 7.089371753850981
Al 3.708900088710951 6.50177295795882 7.433760893887491
Al 5.880629745084527 2.6507426893992294 5.510722386896868
Al 9.078163451805926 5.364087199882755 7.437274025809604
Al 11.928145394481565 7.739528355828864 9.701153945072864
Al 11.397763886903538 6.9357521971818805 7.159970436136824
Al 11.4335794481787 11.818113599006466 7.028423779311946
Al 4.9217763671893024 7.242989324273025 9.587909721576018
Al 11.161195828452138 10.122731497422068 9.078498429503872
Al 10.671190905617445 2.7220382064068107 7.722566828506454
Al 6.338181209914007 4.057340158804873 7.83191573278022
Al 7.4046431789611 5.824365553298921 9.614761632455572
Al 7.586935964282889 10.52800299014546 8.920052100779465
Al 9.004136160118739 7.943286391417683 8.51166971419171
Al 5.9537470849283975 12.79632999892935 8.952948586805201
Al 11.109961648745633 5.096410343596585 9.33696771672074
Al 6.513891779894185 6.802699273961073 7.226164185961961
Al 9.653384690212045 12.47829442412971 9.187730733929687
Al 11.790301870133268 6.007886252072005 11.812863737782113
Al 5.942582181154972 14.582385888927424 11.01940192764771
Al 5.1087301334814885 7.79492932098723 12.192722519136172
Al 5.024959603693857 10.08509871084769 9.752042706119775
Al 5.997886370497426 10.23028675442732 12.496022686768914
Al 9.266297802669705 4.714480340956953 11.411725383484917
Al 7.728638831904861 12.51978663224543 10.981878052702132
Al 8.58302337479164 3.2964874484774884 9.299660659338798
Al 7.273678571044627 6.245961916291152 12.29247163809307
Al 7.190225954592134 8.507777222167014 10.509037173473855
Al 9.637017928972822 7.463555147986328 11.053596148339741
Al 9.353883829055556 10.329647992052028 11.065407317784501
Al 4.694920219286121 12.178924505793585 11.205464725646554
Al 8.241535136970596 8.683583020678125 13.081370227383326
Al 9.739434354487502 6.373373520791298 13.561527260044235
Al 8.400018581843776 11.31529943025184 13.4120305102262
Al 6.290381775060686 12.923044614465612 13.214758221313938
