50
Energy = -159.90731469 eV
Al 3.6160742537672323 5.6302562667668195 3.9183393463647174
Al 2.8956925137746783 8.133952141993676 4.38283709331051
Al 2.608958115206471 10.774178892310912 4.910685894035565
Al 4.86469101202116 3.1569021948995086 3.6882098657370173
Al 2.6997477062386066 3.6310448955183503 5.34840320997026
Al 5.489598545152291 4.906447313235532 1.6884465195249518
Al 5.175972004036653 7.459457897354834 2.7249311981561277
Al 5.000360044934601 9.943872254442166 3.823240237028154
Al 2.74728596298908 6.169946246536801 6.495495262712079
Al 3.170345259812224 8.852313707678459 7.007168506673169
Al 7.692239925016808 6.544104054413947 2.134212855375087
Al 7.4194813186288675 9.19381563560402 2.9046860602198032
Al 7.9413220059329355 3.784956171458448 2.4530999244933747
Al 5.118988072090956 4.713869447049634 6.293186926800577
Al 4.824535639029651 1.8130026560838461 6.051632700600665
Al 4.881681459005005 10.89494486048288 6.399794482775555
Al 5.388063071190554 7.566175619360774 5.523108594440788
Al 7.227288995606893 2.850965618033606 4.980105173967802
Al 3.319518749417654 3.266303817577232 7.894403346454441
Al 2.7935108701106426 5.567717909982858 9.154027170862935
Al 8.137067897888246 7.287197791447693 5.008791580390611
Al 7.26405860921516 10.12507391886067 5.3968088787877555
Al 9.902017460051239 8.12384545915612 2.560143263595383
Al 5.213767158904588 9.543804767576345 8.678787319689473
Al 6.4961025797225345 5.419735919238432 4.233262708666421
Al 3.0442961280454774 8.16489898938823 9.569827508712414
Al 9.901917959552579 9.36340099300036 4.846958857631364
Al 10.260424766870885 5.466602293285368 2.3789064600469345
Al 9.231429233654792 4.688847590879169 4.776420057779436
Al 9.492022356419563 10.49559618690748 7.125534933098706
Al 6.709460670246529 2.9673130129693934 7.649013478503078
Al 7.952355500278097 5.361718733275379 7.045741170194565
Al 4.948304640381089 1.1672564882333598 8.84088400170876
Al 11.057838927421667 6.725426881383335 4.80733543076743
Al 7.368205986540896 8.294150772343773 7.415764309936682
Al 4.7539754979589155 3.776335232207307 10.068681508368684
Al 5.148518096572321 6.760724841735024 8.084006434912466
Al 4.828191492668569 6.370707381983038 10.77786703554006
Al 7.106406510079082 11.312646442940956 7.876032407734177
Al 5.029152202391888 9.034376275485089 11.317320454712208
Al 10.02568797144928 7.64284843028814 7.09360782143001
Al 9.376520675771603 2.723808606714554 6.624350354544345
Al 7.028603554737123 2.313848329704977 10.180984182129425
Al 9.348477065597333 9.033487072820886 9.38474465537637
Al 9.409597176731156 6.304620288293184 9.300720119947423
Al 10.81701668762505 4.982205203921854 7.202368746954624
Al 7.066834468617689 7.701957900307573 10.021845734950347
Al 7.1517177183994844 10.395180282193301 10.44418614682403
Al 6.988901174696666 5.107731445300728 9.57151630995743
Al 9.214040650153454 3.6386912099812267 9.08984010021125
