52
Energy = -166.19809686 eV
Al 6.26793924086942 11.87704289026785 3.034462593797681
Al 9.30194287193648 8.437782877038366 3.2399345111913656
Al 11.623652330445301 7.616999502654438 4.471858768063037
Al 6.906620927149826 9.226318406446357 2.2282507792612045
Al 7.875620427498093 10.394744603131036 4.5871939247683144
Al 8.245649320770536 11.224898125620028 7.28994719131536
Al 10.336148285315328 5.890391304044439 2.6962663495310752
Al 9.864333739499118 9.19380587417605 5.809748534286064
Al 4.730120743196816 9.830915168161164 3.7334549540292983
Al 7.671398722586483 6.450353655381888 2.207848498443085
Al 11.753005900527201 4.996641677530074 4.848068719114129
Al 5.000954545472015 7.337608576226497 2.3939582567849014
Al 5.709012257219047 11.36138532994832 5.793791586268408
Al 9.182919983848677 6.461313235399031 5.170738030403318
Al 10.995107655007958 7.028294897030599 7.216251081012169
Al 7.221198212834614 8.894460993220042 6.9120804346032845
Al 9.693907984108764 9.148424092284845 8.430334474055785
Al 6.655215759120176 7.609546194912908 4.672123978776976
Al 8.607774956377707 4.108563576658615 3.8092247933137147
Al 2.7742839889449598 8.235743573560937 4.251290214019654
Al 5.813279158630328 4.984069947540385 3.48053581657796
Al 8.234465892277976 6.615882964981891 7.843815109310235
Al 3.1036657966319567 5.762548214879778 3.4996660362565466
Al 4.507003083873636 8.849075304860568 6.373320212304073
Al 10.111231206495217 4.403473424822475 6.87348915017144
Al 5.7521168060591314 7.948477002932242 8.87540982137145
Al 5.400043271465343 10.719987552695777 8.323323721455735
Al 9.084229412464417 7.580714792293063 10.458592037201798
Al 1.8748238578949228 7.858934275755827 6.719355126266361
Al 4.650946431796693 6.204208575147371 5.74022200061583
Al 8.591206396210739 2.4386351323743436 6.013319049888786
Al 10.006791981292496 5.257151711571951 9.492290646112675
Al 7.163511610903999 4.851274314955286 5.99355232967836
Al 7.467565584514167 9.932950276690427 9.789532408704314
Al 6.30753851129319 2.6170028818489546 4.543874889452469
Al 7.440183045548798 5.282284166812088 10.563375159009528
Al 3.089306889633375 9.183431352380287 8.799917009427094
Al 8.111997323706573 3.5676528717457643 8.474831015728684
Al 3.6395290106188187 3.403175676104857 4.300140141505036
Al 5.864283196763006 5.418324967672514 8.176653918971986
Al 6.6307122995529735 7.891512249498906 11.40764441560787
Al 3.9926705369730953 7.954672759769523 11.008121531627388
Al 2.2663234865919937 5.139681459697284 6.31510363526121
Al 4.725146323320442 3.540016859750517 6.7636467575051435
Al 6.462562298370122 1.5267109953400368 7.251133362630279
Al 4.236032206916612 1.0746194057846017 5.513773130055521
Al 5.684440060876497 3.1026629762108615 9.506018681574767
Al 4.676724662485221 5.348425424518843 10.693863616127548
Al 3.436352141199076 6.528482127722827 8.455689693666713
Al 2.156513073200131 2.479894184722285 6.627093100948498
Al 3.072168981915458 3.9051695120942846 8.884354657457575
Al 3.9521625454492026 1.2259970207851638 8.363849082143116
