51
Energy = -162.51615908 eV
Al 4.199166228345866 4.913021735835256 1.8958656039624502
Al 5.133638711981815 7.394390614701766 0.8357288312912188
Al 6.7095615142295735 4.001565700086903 1.7042384014673055
Al 3.5790937861282077 7.270618513533692 3.1954085892566284
Al 2.8645600748157767 4.821223152697657 4.244162292263565
Al 5.423109547989014 3.374144170609229 4.004704196584177
Al 5.0855517379659005 9.477062999133373 2.612619145215955
Al 6.253624938370114 6.3540497192292 3.129613459667923
Al 1.6075142736670687 7.109718125631921 5.1208129286026125
Al 7.6420766365250365 8.4611651002113 1.8433076502493182
Al 3.229121678700659 9.47068272557479 4.725847327099631
Al 8.118577454791613 2.477547246665748 3.385602207502077
Al 4.610121344576845 3.198260291130588 6.524250362521621
Al 7.355359692672616 2.2500107727499734 5.898392646591962
Al 5.220315677981545 5.729491078776541 5.583895034911355
Al 8.52310510460568 5.9724454505633275 1.3888669459856975
Al 1.6613113101459853 9.398661423077108 6.829761983248014
Al 2.7844423951557946 5.065847711607805 6.998013400762703
Al 5.720644241351253 8.24918548353316 5.079751698431052
Al 5.620148309414628 10.983316551110434 4.803821479995493
Al 7.699167845512741 4.771851210175875 4.828578731981587
Al 7.979473116988068 9.712636870706575 4.219571674062588
Al 1.275180799498156 7.026809722172849 8.051698221239805
Al 8.789425873041674 7.136042154407202 3.9216502550736014
Al 3.7189379712808206 7.588662176033249 6.834826500298859
Al 9.938145526670016 4.538819442918143 3.245076312336679
Al 4.503116826659486 10.135765637626594 7.1473015812474685
Al 7.5677596179318956 6.868917882347572 6.6734672244306
Al 3.004131034344352 9.10649327514401 9.221814929411364
Al 7.141059777005671 9.799754164363113 6.882122431213648
Al 9.634830733637994 8.57309572555594 6.148693711956289
Al 3.4904698912068866 6.404749594953059 9.4259909208945
Al 8.293215463041896 4.403221049294919 7.497862278160421
Al 5.582874882974156 5.069167417818084 8.281154941322916
Al 5.75518422874356 7.88134949399572 8.639268357883147
Al 10.188653228622417 5.824744625007146 5.695975390329891
Al 6.411407357947724 2.2322910596533343 8.31888822483028
Al 6.084383876312093 10.363949959156187 9.534307766270755
Al 9.962324970126403 3.0320679172801306 5.527096387944697
Al 8.596066364679281 8.862873942923066 8.833433428074471
Al 10.395001643373076 6.838324578674554 8.176723760012994
Al 4.684358543736934 8.588842307949042 11.251364811699299
Al 5.67128407021272 6.01830794325286 10.942512001938306
Al 7.882195011698896 6.296679890853947 9.336081886554489
Al 9.32413342453546 2.1381544455884707 8.415253194914538
Al 7.359603662585528 8.252315971477238 11.2492248417916
Al 7.302104330463082 3.7679174745739696 10.204084110265693
Al 11.099850661112841 4.19263304220339 7.710081158919995
Al 10.055641728882525 7.3885455893900405 10.843015595280974
Al 8.267376448833861 5.623731738752353 12.020131918686744
Al 9.89949023223467 4.541141857937506 10.055720962522637
