52
Energy = -166.51714067 eV
Al 4.630519138175465 9.540318223495966 2.9327036733690517
Al 6.935448391381914 8.428033821518566 2.22105306251
Al 8.980526757271116 7.176849919777863 1.0282427827680334
Al 4.464262861118364 6.976324889667688 2.0522377932236724
Al 3.0612924057249153 6.845519204276932 4.3646369684048
Al 6.729562347045512 5.643251244569817 1.6142938429556184
Al 9.377002590147764 8.874884319137154 3.2852062523345578
Al 1.4980653560722106 8.40721311364138 6.533486907595799
Al 3.638273091501066 9.441487050420115 5.342923569424793
Al 11.11736335265188 6.490389920509424 2.5669189012418516
Al 5.187989939850839 4.911547532366366 3.799381864893111
Al 5.775447421411279 7.52713211137378 4.516996605363971
Al 6.859928422089855 10.053270505962805 4.5832186562279755
Al 8.432751135585587 6.396890183884055 3.6251113961391557
Al 9.357707506900004 4.532508879599636 1.6068532483437739
Al 4.649278829668233 6.253006815513646 6.541111402980554
Al 3.046503214638761 10.052173030677826 8.116968576678689
Al 3.357214404821196 3.894536312270074 5.369140919199733
Al 1.5647834601884543 5.74750628505972 6.412164723046877
Al 10.768818592307033 7.4370296588141835 5.094240673670844
Al 7.636885922430875 3.667163181141037 3.506950142006134
Al 4.891482239746276 11.354302303996077 6.739780997289457
Al 9.593173632648108 10.137729524982044 5.577708026080008
Al 1.4053976773876147 3.0711076057414997 6.920578780654059
Al 5.998754268270274 2.840377303661468 5.465442993276008
Al 8.06366612440363 7.984570378886686 5.931974585010496
Al 3.1551988593755893 4.611665826624818 8.226498056414469
Al 10.2509939911554 4.517013319817021 4.347323090451805
Al 7.128265705675111 5.375472191243156 5.69709485997419
Al 5.528947655745524 8.692377702314399 7.290840393757536
Al 4.18113992403452 2.1778787162079674 7.479676940080803
Al 3.141564684123063 7.358222771443595 8.462528310059485
Al 9.85607598567307 10.911369338060725 8.210450142702385
Al 8.778711801497884 3.190561301444767 6.131774090837142
Al 5.909583143035588 4.357398876712054 7.921482394267395
Al 5.571812054545115 10.64369052958544 9.38394604073887
Al 10.369395205053749 8.362301098522275 7.596922350934912
Al 3.813473986102993 5.8552957384163955 10.484593858060437
Al 7.240625156396228 1.9451436261469837 7.830197928952258
Al 9.599103146547444 5.78344704040266 6.834713257102607
Al 7.423746202110477 10.776223139027625 7.170396031674869
Al 7.139597499673349 6.737537345183408 8.107628614478479
Al 4.632834650693708 3.3484014232225476 10.083743856074044
Al 8.6083350417551 4.271669155573595 8.716507928011355
Al 5.558904064450066 0.8156184392585305 9.603103838283408
Al 5.374419700581178 8.04954234630143 10.093567337128105
Al 6.450737209882013 5.502004012006127 10.39020907544068
Al 7.99561392324704 9.169001683139552 9.346804520807563
Al 7.295966640989795 2.850413121146238 10.516003511189146
Al 9.494054034021769 6.675333156881358 9.48671304016711
Al 7.8175633437596455 7.548872109280128 11.503459714001622
Al 8.82897112245403 4.956156487110578 11.502227289738988
