52
Energy = -165.68230229 eV
Al 4.151242411228455 6.444775549129291 7.194953358253866
Al 1.801764482776037 6.872135109024333 8.536641993369566
Al 6.040394650907237 6.321100656985758 4.685280765515082
Al 3.4312248084584187 5.355762948571741 10.132335687336075
Al 3.900243101756092 8.064033851756712 9.60436367084419
Al 6.303028325802578 7.64637779052094 8.317136050779112
Al 6.224946883796619 9.238950445196195 10.735952323245426
Al 5.8657635966141255 5.063877971870729 8.763435061960495
Al 5.450920678374243 3.849375305991374 11.179626040821013
Al 10.432648543403019 6.307891034512237 5.921707254621848
Al 8.322216669945522 5.878657667092302 8.041984802895216
Al 5.762550188079113 6.621723066357802 11.041719490670477
Al 7.708741913599597 3.06608459365823 8.143804305885709
Al 7.9536707920146394 4.891190907839933 10.606139304793928
Al 9.792558249703912 8.342356440896731 4.013193552079888
Al 4.365606642937167 11.554357261402034 6.462751141065445
Al 5.509207879630003 8.83022900323761 5.982832303098692
Al 7.007020407573967 11.228659009794447 6.354844572890022
Al 5.146734725016238 10.26250043829729 8.553336736239292
Al 7.95165336004797 9.763994202439806 8.463294617413602
Al 7.38610304379522 9.75174439296679 4.150772146977391
Al 7.9246879772721135 7.664172448909644 6.057549188121387
Al 9.429530771163408 9.938446857598747 6.120932898895484
Al 10.059780764588933 7.996539709385991 7.980801181664378
Al 10.445501384229942 5.770274747641895 9.674022309621016
Al 3.0245670099972806 9.05947872119838 7.186590723166543
Al 8.434344933105297 7.643105832483656 10.258456802394004
Al 2.9963961051621855 3.9026088257032243 7.8072741154335255
Al 4.112856741703121 6.0651612583535695 2.6450688672938796
Al 3.298240871573523 7.420970396683261 4.93538454995077
Al 1.6105209087493648 5.672873596463347 3.627728375201333
Al 3.44493188423469 10.012437306773744 4.494717977234665
Al 2.8721748918314103 3.637607694100131 2.4037361012379233
Al 5.27953980882373 8.526353222120495 2.9602252311585424
Al 2.5629631515553077 8.44822173766963 2.5304878553029924
Al 1.6408314211943507 5.677980254385297 6.249878661198374
Al 11.32503934945406 6.155439589677057 3.33137275997482
Al 7.953980947656277 4.505496635672164 5.783096952321916
Al 7.828316383388303 8.079717968373945 2.0938727438716773
Al 5.35195211771385 4.151260939079593 6.321802720536343
Al 5.290089690704578 3.6901089271312673 3.6064080654142985
Al 8.65590362696949 5.955402763763641 3.681879645322374
Al 10.209961046427583 4.065680936692367 7.4532085103307875
Al 5.196618418626117 2.381510420588623 8.731043019138616
Al 10.348313163529928 3.8256383241870915 4.642617525133255
Al 7.913242434102757 3.3859420665757662 3.143823110883082
Al 9.289241403716671 1.8204821474036676 6.2927466047662755
Al 4.221521151223209 1.6344849432443302 6.361690042815513
Al 6.7759796497219735 2.0369350180314756 5.416642926472513
Al 6.648517061968161 5.6264989996704005 2.0200543589811413
Al 2.8866560524723455 3.5679282816440065 5.090047854521965
Al 10.227561301048905 4.09346550915237 1.9787367915818432
