51
Energy = -162.01942748 eV
Al 10.701385536032486 4.478676791542277 5.227256173137956
Al 11.739345105220911 8.480457277152102 4.289609941068076
Al 10.657719147226873 5.841160747438815 7.7498420280018445
Al 9.018372639396219 8.001964228971328 7.679126178428534
Al 9.332818652037101 8.295531773083228 2.9700170252816913
Al 8.940250631365302 6.387420537816753 9.905745791974114
Al 11.03849731335063 6.1928703132185445 3.182696596802455
Al 9.64979257101493 9.639750146858821 5.510418886464311
Al 8.131627014045348 3.8117202984201923 9.682907318434244
Al 9.839799989742417 3.192499693778635 7.455072871087537
Al 9.429622485380607 6.857888138991785 5.330564679610184
Al 8.462198523717236 5.294787530838436 3.007994834663127
Al 7.146113878440488 8.690529924956595 5.012452936395537
Al 7.624870693085558 10.260816181294302 2.6074408887363196
Al 7.359049856657073 10.103584674133163 7.434122650474304
Al 6.984646893970511 8.55077109692983 9.60022770162646
Al 6.214878386403428 7.321905769735749 7.319344011795074
Al 7.675451240478338 11.411608561751498 5.084317701055732
Al 6.174978602093577 5.849080735306214 9.842718721073629
Al 7.256128439000748 2.5492107248845186 7.376939247272037
Al 6.752447451362836 7.569010167927761 2.6151781095769215
Al 8.04175070612846 5.27631428017119 7.228253205649309
Al 8.311705586599048 3.405821655327825 4.98936861026957
Al 6.890999027859368 1.001063043094168 5.144443287458969
Al 6.8487166136132815 2.6907799839773174 2.7435690152119445
Al 5.686500424001277 5.129457781271791 2.3985238138275626
Al 6.598381343779355 5.993260955672833 5.006512100318305
Al 5.181246824656568 4.764306801759087 7.429595354731492
Al 4.483118677539064 9.470055393401902 7.949061083660238
Al 3.920638093572 7.350142468905284 2.6050401768947595
Al 5.606154919279889 3.379921316177309 5.133663318970627
Al 5.072660594974962 9.670911230117754 3.271631360592571
Al 4.725875519511067 1.7761557192609125 7.278298290479193
Al 3.9750596215442093 5.345536846728928 4.523963349588224
Al 5.222503097126614 10.667498804790752 5.734131440117647
Al 4.411951609914537 7.983040718320217 5.428581791738361
Al 5.467847302788881 3.1146775483286753 9.629602598644452
Al 4.239350744102669 0.9864496438379988 4.69025143058608
Al 3.9991518310468965 6.976821955289308 8.82530480311892
Al 2.454951454750832 5.127756072173401 2.185620032998575
Al 3.7734100355035265 4.969556855281747 10.740196780142293
Al 4.028177393200643 3.000836403311879 2.886262961403074
Al 2.731559252812182 5.5746207457993755 6.751017351226709
Al 2.9516463109121593 3.430079671143456 8.520339651673877
Al 1.8879117793888602 7.272696698912139 4.557763148237141
Al 2.760368441853883 2.9222146425642594 5.760135994764113
Al 2.1805290890755153 8.213225069880584 7.165824499428791
Al 1.1222097376979796 4.6576086796982 4.586151961627138
Al 1.5483345403779103 5.8147481266030665 9.114338843591463
Al 0.5866598109135326 3.8034871005008393 7.266101264288134
Al 0.17763460338782278 6.434549185751276 6.654180878742168
