53
Energy = -169.43842114 eV
Al 5.265314688535481 5.202672145714411 10.479420815760939
Al 5.911293032601633 2.697891515543953 0.7078281001396161
Al 8.446762856255074 2.469518662167276 1.963009262048567
Al 3.305250464396465 3.5115081928881744 0.4300446786660118
Al 5.118008468739583 7.737968353120866 1.9919655566859646
Al 0.7835509407859763 7.316435848214076 1.9645756806272898
Al 6.456186836960083 0.5874713119431988 2.323866747947925
Al 7.38053023730218 4.877245350213944 1.349138469816196
Al 3.0784733508121658 6.499391498716591 0.6619791862118701
Al 2.79481889051271 9.124165030136759 2.285511221107941
Al 3.818369041018249 1.3739582243194848 2.0533710981371636
Al 8.178095551534023 7.358344219843855 1.9393863059369207
Al 4.7531951110676385 4.885236234651544 2.293627753770261
Al 6.419105696161988 3.094631698260473 3.7875168387139073
Al 1.613442330397196 4.652938788451705 2.159714175701826
Al 6.870885357802046 8.99521605265629 3.710074339851412
Al 8.866023310271942 4.681489346608746 3.6863900982608606
Al 9.365144445693968 2.0850529938071807 4.450893274210481
Al 3.4953170690494084 3.4153588169448117 4.017684569230879
Al 6.504625721158473 6.17368925062802 3.779043001271433
Al 7.400872836013651 0.3000071179868464 4.8180486106029985
Al 1.187016154338541 8.561660380407835 4.450760458427618
Al 0.4950483473921364 5.919212685448814 4.366055354844548
Al 2.6796420709580366 10.852835965023448 4.413411332432469
Al 2.988564337636875 6.588845501638571 3.5116623626484915
Al 4.383666455307359 8.55384632796886 4.798615045779523
Al 4.54261461576459 5.70539757313212 5.525759717538176
Al 4.794960602693969 0.7877058184007608 4.480451730629692
Al 2.520697731236899 9.583482795146804 6.745859768743477
Al 2.176848636645806 0.9516731174087257 4.194895840422363
Al 0.7573157487916952 3.220901849568961 4.281455377314203
Al 2.213908825042246 6.923781717530537 6.32142905029023
Al 7.069332570965738 4.817220624316947 5.97581413051713
Al 6.831575721731392 7.778959470329302 6.062233267501315
Al 4.962394136020115 2.934843501021977 6.218415732568802
Al 2.208769719928955 4.254919799725197 6.252058682710372
Al 4.623214821835173 7.729046355901493 7.489142036231849
Al 9.713829616718174 3.8687857112818516 6.404064625680609
Al 9.10525503785364 6.400689800050177 6.967444075244772
Al 7.662481382182744 2.2055542774754118 6.7099269579249174
Al 5.845486763187167 0.28024220096537356 7.079674920785826
Al 9.000222053838934 7.284947399476734 4.461203143651139
Al 3.259586318129324 0.6725949874815265 6.730101590933885
Al 5.103663358524021 4.874247479511731 8.103226889875746
Al 2.5555718596915855 8.243645921462319 9.059946055213624
Al 0.8910925538974968 1.9028208326875902 6.799806655329388
Al 2.598777333599976 5.568390643495129 8.66052789243266
Al 8.08237859164069 4.099397367992053 8.596801513161985
Al 7.042616511443975 6.726478029949122 8.607935024794454
Al 5.8573672504038115 2.3779652551280885 8.885434671615755
Al 4.722767635953139 6.889266146268748 10.089494455867401
Al 3.1295862650424997 2.889268333776705 8.41149166893855
Al 6.32593475463301 4.668635497307411 10.479420815760939
