5
Energy = -10.56437638 eV
Al 6.837506647182838 6.474861085580727 8.695629097397457
Al 8.07436957690396 5.419992705760393 6.816826343020191
Al 6.393038047364976 7.545300265610472 6.176215267335661
Al 5.235571615178111 8.490579921352651 8.199685480166274
Al 7.7436005906028225 6.370869833228781 4.405736795471976
