54
Energy = -173.11675487 eV
Al 7.163733369485181 5.167630221999839 10.801492494623885
Al 4.749307741626119 5.9954488023123025 11.40472180383671
Al 10.556425902290135 2.0539219698544415 9.850482305790608
Al 7.8291375804740255 2.6416054733171133 9.92333708656377
Al 9.835861837561874 4.571800315524627 10.538560081085796
Al 5.118009595246557 3.356825542458019 10.172510657954781
Al 9.022537971855574 7.05730582197652 10.02111278596272
Al 6.394476415834161 7.432584350330666 9.557031529735907
Al 10.891588672048428 8.971173762896502 9.600206229982309
Al 9.039477418857688 2.3909018754365348 7.439274320020157
Al 2.8488222920888644 4.873153930929498 9.892671557073935
Al 8.29853380563821 4.932106634761039 8.27225329078511
Al 11.228523342065325 3.95377478281077 8.084630407905824
Al 6.311527372450174 2.4473802914927663 7.74888082945954
Al 10.551315534895727 6.60548935900622 7.841478495298138
Al 3.748608967989978 3.2241408032806023 7.820455317584093
Al 8.197381178041631 9.55791852416821 9.37917001065262
Al 5.431325641541124 5.292086022242454 8.330531180603403
Al 5.485084920318777 9.914936206902082 9.168537075057035
Al 7.4830217421206076 1.7045635760619353 5.37307568361269
Al 7.042803065506199 4.439358862462373 5.984442041893213
Al 5.0407263720595115 2.76241310320945 5.249786251705056
Al 7.826615707495517 7.172859004102954 6.913592095706456
Al 9.997739418976487 4.557518113093967 5.8228615130451455
Al 9.847636037935837 9.187010259731135 7.156930159524626
Al 2.703343856643484 5.767127925269638 7.386276793093645
Al 3.5507864470966686 7.6431589525999435 9.619387519131205
Al 2.380880698146503 3.5404888538799058 5.565825050505147
Al 2.8270997267436107 10.361237441821617 8.93617820651205
Al 8.611312658231993 3.436136026346726 3.7370949165009746
Al 10.462440842654171 7.264219010456242 5.23794142798082
Al 4.96949358079048 7.6333556347650395 7.224587697233213
Al 4.6183278405513555 5.490009854564576 5.46948800466151
Al 10.698989001156788 5.336291498700175 3.263276851710405
Al 8.161671794524842 6.160115813490011 4.35114492343884
Al 2.1439963720875683 8.32055818936089 7.3526851995436004
Al 7.128047066931556 9.844689480741941 6.925197958840066
Al 6.134686381880783 4.593051474080917 3.253623377268451
Al 8.671506635429388 9.304292105571054 4.781611265463372
Al 1.9466008253460956 5.996271551465952 4.58027020864098
Al 4.480031918555573 10.217031560226758 6.639932529986481
Al 6.162695146332107 7.928894498933186 4.883280551154898
Al 3.5278765160444108 3.9316278479379023 3.147102106956384
Al 8.485692094470757 5.201750282958707 1.6623416581048978
Al 1.863186096887036 10.719780285988547 6.180786576271809
Al 9.464762363349662 7.772544507405687 2.5817246191662733
Al 3.3664947824848994 8.33112571847835 4.929219217490346
Al 4.134356119209927 6.545698033837363 2.9996115361902893
Al 6.705277875798286 7.112471283567023 2.234637970671161
Al 6.417168945636931 10.818949966927237 4.595229808491834
Al 3.6714190127038617 11.127244359504438 4.127730207087157
Al 4.858611871938515 9.09978568597153 2.6872661048971302
Al 7.56955594788785 9.757550913495765 2.28671023308258
Al 5.517645270939204 11.654813226148878 2.1859918693184803
