51
Energy = -163.00254426 eV
Al 1.566275211980536 5.1371661049227955 7.523016917264848
Al 2.753310015003059 4.874044995253242 9.927778602515895
Al 3.071463825692562 7.402901584756171 8.412865621054376
Al 1.5690806049254333 7.285873376357289 5.951693963325117
Al 1.3538208523546185 9.521551879153874 4.289858409149401
Al 2.802033074346865 9.511025166955813 6.67266608866591
Al 4.684950473436396 6.508923118918037 10.596039874816565
Al 3.0182159412434113 2.915205399481813 6.795673391692904
Al 4.103768300624652 2.6755055760867843 9.169599652730739
Al 3.1442743221231146 5.185021070167857 5.263283335895655
Al 4.5074254365943345 2.8233179432013773 4.582715936020775
Al 4.545947852111712 5.204799052189903 7.776212811530699
Al 4.395720372795371 9.833686868840374 8.751383752996897
Al 3.1424499431807087 7.4822232149042955 3.6012355088951216
Al 3.3576275099565467 4.567300085278176 2.6763713886169045
Al 4.513954599923117 7.4082170087016594 5.920213581418434
Al 3.9938277951285635 10.21103209653611 4.326317769859695
Al 5.86093906632129 8.882086253263038 10.788274633874748
Al 5.924813192133342 2.935857770981597 7.181305255253497
Al 7.217648656137232 2.6627426741705342 4.757991625257078
Al 7.3370128296052215 6.410071494340951 10.379492114875234
Al 4.397450940798708 11.745496921444696 6.764917973065722
Al 6.081126246951587 4.123881444322891 10.011712364275803
Al 5.848906797483282 5.161202472543499 5.1877924097324035
Al 5.963951511465618 7.612730554620728 8.251654068229707
Al 7.30541770650783 5.35296805335972 7.721791460256264
Al 5.9769811605697365 4.098755773316623 2.6003820083492304
Al 5.955663126660383 9.713486103801387 6.098503830211344
Al 5.008309025053688 6.586378134456643 1.888990231955884
Al 8.656825065927235 5.079820982731766 5.213718029411197
Al 8.556448919455628 8.836428948027917 10.434360789319111
Al 5.856176225057412 8.676373077446923 3.3491675909487735
Al 8.724176531417518 3.9368730991211427 9.688426809455514
Al 8.630257319136714 2.829996118365991 7.169400105076005
Al 7.063784120921648 10.230841134019306 8.483777664194532
Al 7.3232657437203335 6.412488489377572 3.0643268220764055
Al 7.255406926233365 7.403858764659417 5.6823729505503255
Al 9.945935913541764 2.689681045116019 4.867119934973128
Al 8.631211188363354 3.9727558878734035 2.6752662118566968
Al 8.902537933259254 7.805018270646925 7.922635012124031
Al 8.630243514950859 9.868192115365174 6.032659541175511
Al 11.252326997133062 8.721630977093781 9.711088203575677
Al 10.00684598887483 6.347304106934009 9.97700459769563
Al 8.574655366135683 8.848648500652565 3.4837531617020328
Al 10.06390518390275 5.098446502738599 7.538074935771607
Al 11.42386977468763 5.309448706031541 5.226861405426856
Al 9.975263296223577 6.450229384742192 3.0137262770480393
Al 9.709716950272924 10.464500674335703 8.397408471012383
Al 10.024036011941327 7.59952830504578 5.462659697426671
Al 11.321293748073929 3.9984345091974323 2.8535401651802363
Al 11.687513037605642 7.2041103560929365 7.50097919015746
