55
Energy = -173.54436281 eV
Al 5.2034502359554 6.075662561489699 3.2749296230788687
Al 9.633293687474593 10.959034458408121 3.807468495027398
Al 9.77660729211798 6.304314138365589 4.191253336671864
Al 9.16149730676929 8.715063734991261 5.252688428067963
Al 7.979175217620995 15.07594700154714 5.617111255381205
Al 7.324674565046479 7.498641932343508 3.811551543668494
Al 4.268505180702434 4.327268952010025 4.994772146615333
Al 5.7508262108509935 6.519260352270064 5.97339208600635
Al 2.917956368337012 6.725834541754497 5.160995826064773
Al 11.00874505611383 10.681543226577668 6.16178723997932
Al 11.648711069551391 8.595745305445188 4.138173356901524
Al 6.825141234962739 10.168734675094907 4.2071216904802435
Al 9.822906854091594 13.0059865809984 5.662918937230607
Al 7.452139980070088 4.804163894574184 4.3274935387593
Al 7.279236894850507 12.738110518113759 4.6169406715734125
Al 10.989904987873945 6.919863652736729 6.472000600257898
Al 4.7238990001510475 8.594468652326837 4.481913873944267
Al 3.9683230634047746 8.050289714518318 7.408638503562292
Al 9.620327006095998 14.78081122455647 7.717544590705821
Al 3.776158517318708 5.347622222026013 7.522412598812382
Al 8.23554977447441 10.892020654916402 6.38889922786919
Al 9.611450030710007 8.958858571121327 7.8905532741761295
Al 12.83904156193168 8.811117325510464 6.738301586070188
Al 11.763253847843137 10.343182464638302 8.860373636924962
Al 8.480612749806602 13.717566550198145 9.915539772016809
Al 9.951116466221627 6.202164975393981 8.86864215840521
Al 6.634043475686071 3.9889881393567967 6.708777415348479
Al 7.673208044364901 5.00440187702693 9.021215542155623
Al 5.314351677790015 6.489090933673063 9.322305141908762
Al 12.086204718850551 7.59583890714559 9.09220651580807
Al 14.292635436038738 9.18103713609033 8.955397529574729
Al 4.241108934570482 2.650922513433734 7.0222265228069745
Al 6.712421382133023 8.800119930750698 6.913872498420341
Al 7.6696186337921795 7.815009173226515 9.31845988702762
Al 5.309273258196965 3.659741327959486 9.195480223233988
Al 7.340907423615612 13.18229726444651 7.466712657307841
Al 10.005166792471476 12.139884206682652 8.280421889310805
Al 8.303999955283604 6.3639465173085386 6.633701598971683
Al 5.313996183555573 9.211099201125185 9.458073392225579
Al 7.322021717400112 10.989643252975892 8.936404790434567
Al 12.830352666614347 9.269842606179834 11.160614406158988
Al 8.768716310303022 6.067338601643445 11.273047530542986
Al 9.911698359943353 8.763580784314742 10.57511550862237
Al 6.175620310337079 4.853548910513515 11.373133911725532
Al 9.449234184234061 11.514882701917397 10.913853928110246
Al 6.029604053747269 7.589754824157617 11.708985440412562
Al 10.006465817852089 5.060812326411004 13.365740223209002
Al 7.381538125020487 9.846884106655553 11.341972086470891
Al 11.796486531061804 6.259306319057591 14.897115982959475
Al 11.25813139982233 7.253039692182597 12.357539730636548
Al 7.170068157458074 5.895258247876571 13.549776630190358
Al 8.583554188618718 8.243211995533784 13.052608893662242
Al 10.955235562468227 10.269967768394801 12.736714246211749
Al 8.989274631562644 6.708103744548257 15.288920968247607
Al 10.627607820137525 8.68421902076146 14.781236823331566
