50
Energy = -159.62043208 eV
Al 1.5623583708195714 2.531444014781685 6.951553398346697
Al 2.4943523589498753 4.318270742905304 5.175276754781299
Al 1.8307043346598486 5.089389346322492 7.809030891823487
Al 4.073710026309823 1.9975306373959245 6.027037209436478
Al 3.3013906312124868 2.900125296481862 9.063436397769161
Al 3.9091032861743247 5.990874611235429 3.642705783358467
Al 2.3936619294777617 7.52752712220205 8.72218157273055
Al 2.7940988658477153 6.855288678501735 6.033704319967246
Al 5.021982320617175 3.565201975796485 4.086954015718684
Al 5.545098939425858 1.5460936800199534 8.19700953928149
Al 4.477006776267364 4.523420726107593 7.200876496152188
Al 3.934353724309107 5.460760468323379 9.735049433086859
Al 5.4091900211290165 7.682469959449835 2.2877815319426813
Al 6.152152213062221 5.065328322748208 2.205211902190226
Al 2.8356575659754757 9.996850495076691 9.650532432338563
Al 3.1060787505082064 9.396908934487795 6.895946705645252
Al 6.593219396614661 3.1068563000706853 6.289181375209844
Al 4.723515735654684 8.276723427606775 4.866912084343777
Al 5.794565746551675 3.591369137388211 10.03072971420635
Al 6.043388183172728 5.911852222739957 5.444049146828671
Al 4.609459920510239 8.040781789249735 10.422994915731747
Al 4.984243916875766 7.255798534842801 7.696440542640041
Al 7.2417116310756615 6.812565584804567 0.43713314035710216
Al 8.005829278652595 2.5114236690698375 8.636895631013696
Al 6.643738147455193 9.5237466234263 0.8744998053556658
Al 7.0766349474028 5.172166087419972 8.206343185090887
Al 5.329579658610445 10.701615362285617 5.755084610925764
Al 7.784581960945219 4.162143377035472 4.152486875800242
Al 6.438078181439883 6.140591766065916 10.812643497612616
Al 6.7837579769977046 9.674360137554517 3.668779194653689
Al 8.969718126543253 5.547554451851779 2.1855334574873138
Al 7.124314047228665 8.456280873301154 6.305579142811604
Al 5.268639839680063 10.06081605091884 8.497132795942807
Al 8.371855127424825 6.84977960743684 4.473986007745498
Al 8.372292494624075 4.193484998093654 10.715703770364877
Al 8.711637403586906 8.332663396980886 2.196212134298029
Al 9.028753530787753 6.445791196175917 7.090384127640428
Al 9.181343373219327 3.8044579186171323 6.479152027261152
Al 10.349102540367886 4.3452448877788585 8.88125872287807
Al 7.179805539399236 8.086014623410486 9.020622890342288
Al 8.028638394873369 11.091367736370946 5.7411284527410915
Al 6.379814512984721 12.477848099046822 7.423690476902166
Al 10.446628820918567 4.934666076673249 4.359715734716126
Al 9.496527204674248 9.31583234154533 4.4810886977093976
Al 9.207538313753664 6.627085207018713 9.845661213093942
Al 11.927764176301599 4.960449726480268 6.707700840797464
Al 10.994655498655318 7.343802691200587 5.541793633698316
Al 9.750375046874883 9.070470559374696 7.365567867912749
Al 11.43289187276651 7.168121964603496 8.311259369808242
Al 7.911372357647268 10.585661580741316 8.42523955052659
