51
Energy = -162.72860439 eV
Al 11.30200435005523 4.714068261696321 3.3325625183510432
Al 11.046366550039364 6.963315049977325 4.687085581145332
Al 11.244446067411003 4.764704769401304 6.1891217068704
Al 11.231869344183234 9.432674078649656 5.45499040780865
Al 11.139607841073916 7.231718102227244 7.400482572367039
Al 9.563481874440765 9.552652078927538 7.5121183307701305
Al 9.869819081996532 5.070349317028668 8.458024245948828
Al 9.991565058863682 2.5874766047087654 7.242264492361687
Al 9.151913743271205 7.511052963878314 9.218730857046
Al 8.772024800257865 5.344751518443915 10.987715749648876
Al 9.343007511582549 3.431978969960703 4.599828787111827
Al 8.89701264165262 6.168797080215685 3.2011423158987307
Al 8.684650726998445 8.383070494375554 4.9833023547267725
Al 9.142211406714955 11.00943320057096 4.777905219455709
Al 8.672671281753448 5.980709442780179 6.164207984368863
Al 7.123501317931116 8.173622817044397 7.220438973756264
Al 7.406041312803524 10.97064613267077 6.741332140077217
Al 8.145769364480842 3.143793927926083 9.30826116694954
Al 7.522067588252614 3.5073163028719034 6.649611681709302
Al 7.070077339287793 5.720881630622581 8.374368778388579
Al 7.735779038084694 8.457438091250706 2.266576744771852
Al 7.7720606903908225 9.894559441447186 9.50254011337308
Al 6.89378897306673 7.444620430653469 10.639268924276646
Al 6.204366524608235 4.659675663803187 10.83744583527553
Al 7.185094050104054 1.8774408976802421 4.270274855320394
Al 5.6381701030264475 11.581613101459396 8.604965267416326
Al 5.541269955762375 3.363435928259041 8.485224193158999
Al 6.94712293043775 4.590139017700993 4.148864159229115
Al 6.544555306547175 9.975017872640935 4.19107420253943
Al 5.197124194896685 8.991589494284456 9.162205150509738
Al 6.339714511955446 7.174083703624801 4.443367904836529
Al 4.490126724214522 6.506394565840763 9.898679871517164
Al 6.591034569243122 5.889082074249416 1.7500585736506904
Al 4.963834184653127 10.047231712922876 6.376504516911939
Al 5.171289924848917 2.2756949483181526 5.960548941204119
Al 5.228852679849454 5.109883429968936 6.110113980687388
Al 3.4996715104379352 3.892667491640111 10.268021661065971
Al 4.554893471053377 7.4642312031359745 6.979791837548871
Al 5.014198639250338 8.05383896336715 1.9089098527487713
Al 4.982750374896444 3.068963595680195 3.163954023163186
Al 3.1709800409294004 10.729969432428105 8.33878392972566
Al 4.2597387180137165 5.756464467914266 3.229124956525951
Al 3.0689359126916753 2.7274336288443357 7.618222409297685
Al 2.5813610138667493 8.103791076829484 8.940718928751318
Al 3.9901643419068376 8.555326623228785 4.262989372584494
Al 3.0727424860602555 5.406631811365611 7.936027231232049
Al 3.089216192278631 3.746883173870356 4.877004699198171
Al 2.348595732895207 9.087381382993886 6.294458798217409
Al 2.619602966535268 6.410177423350249 5.233321815073551
Al 0.8520706298069297 6.963017157157461 7.225245914608727
Al 1.017855762683256 4.419380808158049 6.459286828864405
