54
Energy = -173.36883886 eV
Al 3.5264054646941343 5.062600142852425 8.801792887959946
Al 4.243466607016536 2.2005708019089214 4.446121114743448
Al 3.441264233316102 6.606135482406642 10.997572092841573
Al 3.709794382037641 3.3237158099074855 6.777835851877129
Al 5.880043301511813 3.3867518328764312 8.29065168933992
Al 6.089752647603648 1.2539429706825234 6.349691535049479
Al 3.4265285211570387 6.626348902515403 6.483927079046851
Al 5.820564950707749 5.314860636091781 10.178765700972503
Al 3.3453922675404404 4.87517952319408 4.551580980067948
Al 5.803700582165773 7.3258703943583035 12.025303062454254
Al 2.8781218817097893 7.967905917993452 8.756391386977462
Al 5.184824837568179 1.9846595982540516 1.7935837726306947
Al 8.179961946146394 1.9048101872100416 8.027155434705746
Al 8.180562057721538 3.769227957174975 9.855551159206117
Al 5.825522008910478 6.009704984183569 7.4412082190478195
Al 2.1894701090846067 7.514667901515849 4.159452426754796
Al 3.1078193443463418 3.523180439090074 2.261267800929254
Al 8.08560542048328 5.7300341137513335 11.62337208245996
Al 5.5081591708190265 4.613395483789587 2.8366851078836204
Al 2.932511349345768 10.023391637927329 3.6106577955423824
Al 5.4513273802780695 8.080667684577891 9.432259814466262
Al 8.164389349784283 7.8986647320185215 13.218619616007972
Al 2.9152432170715006 6.078730806392597 2.0869113570511617
Al 6.137588289376512 3.9238656498590454 5.513801644671959
Al 2.313030214599823 9.123958969407056 6.380687769709994
Al 6.879553662109396 1.7347991677290475 3.8151396948695697
Al 5.763736637783308 6.517445351555665 4.828556298883147
Al 8.780180929309518 2.4457531305040976 5.507136097435781
Al 4.774469047801925 8.916713748226512 5.336956149784095
Al 8.136102905739698 4.7361474210672245 7.149728855478464
Al 4.78258124924786 8.051216056506217 2.712710896806253
Al 4.594167084120548 9.988764821485036 7.818341459207989
Al 7.848626083244987 6.8114540572041005 9.018568145790738
Al 8.107854727191897 4.17604820279235 3.480839362533198
Al 3.7600008189156817 11.484914086171154 5.711263893003196
Al 10.421859289817808 3.536892055930307 7.795546878927442
Al 7.433255911967173 9.187104477799164 10.940558865031933
Al 7.280515347780498 6.737765503072289 2.46503058869617
Al 10.206984166967034 5.536966212766711 9.596507336245981
Al 7.080702848982803 8.479022411857247 6.9070368067659125
Al 8.41970401782719 6.706399337915812 4.949290438153893
Al 9.729418412705307 7.783599228835799 10.923877285923824
Al 5.420933678419846 10.96831970580315 3.4259043710786674
Al 6.945913660748015 10.604893385954085 8.823109739110764
Al 7.21393591916928 9.049105421965258 4.053423085415368
Al 10.240937911822625 4.652649763571652 5.2834327409630895
Al 6.485462525413795 11.049647336096264 5.981693249516914
Al 10.02296119283048 6.8313235971696455 7.21608423337021
Al 9.289954413450118 9.126402991755851 8.64849841737809
Al 9.955381846175298 5.828232028694418 2.6291212410137046
Al 9.568094163899202 8.505660425678181 2.838991972092843
Al 9.565168326212694 9.14060529202247 5.627449358224263
Al 8.926792847210159 11.268144577274287 7.06491515203514
Al 11.171436285851831 7.168903090369599 4.697175451578561
