51
Energy = -162.31585201 eV
Al 10.27415298034202 7.418195622660762 2.1952706715358334
Al 8.118896330119812 9.717647527768577 2.089657025303875
Al 8.083815607081538 7.453854284039672 0.635166400414584
Al 8.65667965132303 9.795803622638068 4.899071524948665
Al 10.584960845096315 7.875638833251984 4.77932654980323
Al 9.464911320396995 5.197845772206741 3.5953169455036416
Al 11.274009838695157 5.431748321848246 5.65877901244594
Al 5.660154693730687 8.052348055708496 1.6601939176003386
Al 7.891585771073368 3.0224912596162508 3.2221304072944172
Al 7.873843114303702 7.418095029963849 3.6447012089774358
Al 9.088852045803417 3.35796861567144 5.749909230008256
Al 6.016117647942867 9.779316641368036 3.8335550938181133
Al 6.8570699289135435 5.414253375932014 2.1068484515753227
Al 10.829033276790481 7.3786054359872155 7.54326863080962
Al 8.573623666905222 9.06655790506885 7.755175625135936
Al 8.671544414334882 6.455309226732382 6.273148167404627
Al 10.15307548464547 4.607661314133425 7.934840907902739
Al 6.574348891440402 10.941210799779057 6.306872465678991
Al 6.927950093652741 4.946869191280422 4.9468877091043
Al 5.1661103347439 6.824027229825377 4.185599624721796
Al 6.565448381404566 2.165421782797087 5.369431022852593
Al 5.190037981747219 3.6085238056387072 3.2717104053021413
Al 4.060577601160316 5.800548929381214 1.9353646383256788
Al 3.4859462595087485 8.755789509409961 3.2057353325203923
Al 6.630077291729861 8.261518807974982 5.9419364754970445
Al 2.2927205498814853 6.487683458158922 3.7724006083065134
Al 2.407618916611549 3.79220241314729 3.3266967383821786
Al 9.115574242209442 6.556799182254264 9.486953201605969
Al 6.720271434390226 7.031107367440593 8.241468372963997
Al 3.883862502968505 4.7863715718955095 5.575418856354546
Al 4.434657855859982 7.0872496303969355 6.774088350775153
Al 4.064163596636765 9.689802845187613 5.876626420977375
Al 3.8449879275115446 2.0279155515136957 5.0380685087997135
Al 7.248826350799844 4.528504485130309 7.673736759323381
Al 8.701263195037662 3.718467083365102 9.93148780291099
Al 7.759043192032208 1.9342620350037554 7.888548932087905
Al 5.547076006025702 9.52306217040404 8.334280592600336
Al 1.8905997562427137 7.9883591757488155 5.99637791172297
Al 7.465752943992819 8.611193992543491 10.277283583917626
Al 0.8950342742722462 5.032744909066336 5.483664962244835
Al 4.914521500530121 2.7783774189109813 7.486071707858914
Al 2.116479838154184 3.0369767369640392 6.881931320855076
Al 4.814366663657811 5.2540611898604705 8.695815335720134
Al 6.917979674163507 5.600291958747044 10.765363241667274
Al 2.933902240028413 8.614602319618271 8.423031825757786
Al 6.062851886298718 3.0101650257392127 9.907386844768801
Al 2.18330371383971 5.778752047726636 7.688552709382646
Al 4.982460763272533 7.583840784802353 10.400885385585466
Al 2.823629280532528 3.6792952783774133 9.4053951282986
Al 4.481566376368612 4.611661206388068 11.474026683523562
Al 2.613816118904573 6.303951730097524 10.231797524873398
