5
Energy = -9.43041548 eV
Al 5.488042465031973 5.061435322641846 9.977875305097458
Al 7.3361400412431195 8.076948747330679 3.842496442028858
Al 5.656950888328901 7.632323911757486 5.824819829508159
Al 7.728067281371848 5.952418614355827 5.372233245944918
Al 6.312374267664553 5.79844834755442 7.504150121061003
