51
Energy = -162.45754499 eV
Al 7.906785000758243 11.487008550408223 6.532827434242955
Al 5.224081267757841 10.956280159539999 6.859698049238284
Al 4.562340127118264 8.2367162773061 6.516621265002436
Al 6.422478910264049 10.42624842084571 4.1910903515889535
Al 3.7685789987575844 9.872384792061009 4.487600649939289
Al 4.0158306781285145 6.4909280473614634 1.72767450043424
Al 2.6087594345137712 10.026935540712357 7.00811605421563
Al 5.516802882767569 7.850067059666721 3.7600484169736155
Al 4.771269224080261 5.287083987346741 4.172981271295038
Al 4.666099891129356 3.7101438999272087 1.931345859502107
Al 2.3800526197784233 4.647563562388074 3.0963482383533267
Al 2.836057999433817 7.245568594943846 4.298538837149664
Al 7.1712435208992495 8.854101349881294 6.448840216819138
Al 6.985017660356365 10.331016861092424 9.006490543975561
Al 6.14690817339369 7.639478067867911 8.80883532638213
Al 5.858606152562635 8.869184549499607 11.305517167782561
Al 4.370293209919678 5.799551051890285 7.67931992074488
Al 4.229641916122171 9.472873554883169 9.085123577773278
Al 2.5547156241349924 4.865257279487555 5.8093528425277405
Al 3.557983034344505 2.92744609416537 7.517694987402623
Al 2.0671330428560992 5.064403165776003 8.687980138013058
Al 2.0713194728644573 7.309558292020892 7.0345088269464915
Al 3.893362255439249 6.897908049554766 10.14997091133259
Al 3.892167355481212 2.677892387156819 4.536522695747508
Al 6.642687445167703 3.2063906677766454 3.8061967402703742
Al 5.6805927061947115 3.847010324423385 6.254859436594028
Al 6.341803078518681 6.375424951350648 6.011583795949995
Al 6.728249505132734 5.042011291111902 8.694651026889455
Al 4.44584291924565 4.225000823660509 10.081750864039618
Al 6.04629574190819 2.3352518941415936 8.527191526852787
Al 8.980510886684094 5.506926179661368 10.269052425035158
Al 6.468820557117522 6.184558230381126 11.352588387326286
Al 10.710867596601554 5.306020858139735 4.932427332882446
Al 8.36999565548827 8.214762764767169 10.262401449886456
Al 7.085049420131419 3.488691055640609 11.015774827553395
Al 8.728506223297968 3.1799410250540436 8.694225989273134
Al 7.609919529645609 1.9591284432598435 6.226029100567926
Al 8.425858256656587 6.8796650773788555 7.7980217890460874
Al 10.482214514908453 5.133057380436039 7.735593314814979
Al 10.738658444980306 7.461744693355295 9.076961162501583
Al 8.288644262476096 4.6027222253176125 5.983366929687728
Al 8.916876006325792 4.450428267535755 3.1728526724296575
Al 10.278246135426233 2.799592566581913 6.401857372781645
Al 9.223870849239827 6.6508974102564435 1.5436834792850407
Al 7.705373488369763 8.736814363440455 2.449112803360657
Al 8.332052436201565 6.896276833347998 4.394275799646431
Al 9.39829609265196 9.610140433575706 7.916807077591796
Al 10.487404510285533 7.694252837239223 6.2376305365105935
Al 10.68401341517158 7.872373261540449 3.5069031890982756
Al 6.683642591667349 5.815595573132758 2.3355330426484375
Al 9.15383764832451 9.695379265189985 4.781278240509248
