52
Energy = -164.69888593 eV
Al 7.8885835195312035 6.11520006112809 11.397721529276534
Al 6.8740161731339535 7.3444902971594335 1.7914619418440667
Al 1.7574403685763955 6.695957639582299 8.985000671234626
Al 1.8870587142878918 9.646502750447237 5.446103513023425
Al 10.667729594685262 6.785018595273214 7.972984468406903
Al 4.464565970172011 4.289405887634413 7.639065353448099
Al 5.567629124909572 4.795989958453848 2.2820862811605496
Al 1.1315905794162027 4.156097183609237 4.268081110890151
Al 1.2977740163862246 6.8934067633269285 4.6599294284494155
Al 8.412965731964945 1.519007428099889 7.942848494178029
Al 5.990107836456441 6.29331116072881 6.461321297747791
Al 7.955412209085903 8.123704422742883 6.938164353930605
Al 7.8276321430159275 10.228893740830218 8.665663379113724
Al 3.4622411955297743 3.229268356440126 3.193331333471484
Al 10.827302555948464 7.565985695453842 5.3920397678234355
Al 5.120603518826748 9.450370756997824 2.3359421791098485
Al 9.247979069688524 7.756782652686656 3.0548358859070426
Al 6.713539579136208 8.019884474169016 9.771018505325051
Al 4.358725318102097 7.073496614127751 0.9987357956246075
Al 6.019435661245727 2.2387878672211383 9.198218857406408
Al 9.999629464317179 3.91602739907998 8.069049624641437
Al 6.905333219308141 10.742960372099237 6.119006828335234
Al 5.348347211076522 9.007338262352587 7.556715691548702
Al 6.972892092059587 8.75400298163013 4.249897118071443
Al 9.270863129947461 9.818434629802468 5.014751844518516
Al 2.695578581106979 8.641884232614963 3.07100997326295
Al 5.956752787194438 4.78769436691741 9.994721435161903
Al 2.691299301242074 5.774252187526789 2.5772618625356825
Al 10.20485874634516 9.512663060528412 7.529554702139363
Al 10.269391011629375 5.484353448253592 10.259362740867475
Al 4.830839434577988 7.170109357127123 3.8608897703096705
Al 2.7616321089361886 9.1433667972695 8.399571917164408
Al 4.536875794731671 9.816571634488623 4.991067120549518
Al 5.0632950294584695 1.530530164314631 6.870214507009217
Al 7.261961583323989 5.937662903278235 4.073853564686726
Al 1.7192239121394888 4.967577064431428 6.97999488288409
Al 5.687269667232673 3.7100427138050787 4.95188331262714
Al 8.33430677867579 3.3890837506117513 10.130556097624833
Al 9.436358510122638 3.0839734914401795 5.595883720173269
Al 7.184977732175521 3.8036848044787397 7.274380531589682
Al 3.5731630029265875 5.226587902782204 5.0669272421616345
Al 8.84328695072233 5.706386271244617 6.155858161761759
Al 3.3698578799393335 7.458361192580011 6.406587009209822
Al 11.48061910300286 4.946767493798134 5.920844956836185
Al 7.281584848912548 1.5930043848231272 5.366915777504435
Al 9.876148927414636 5.171383900988049 3.6511744036215634
Al 2.9196414433640814 2.7011438014996596 5.858159283990398
Al 4.4049992509996425 6.756573351571267 8.959436400098475
Al 0.5780941109502938 7.983723688383748 6.980878837185986
Al 9.451923922269838 8.190084599152154 9.976945885565897
Al 8.073222743713128 5.950284103611733 8.683208971152352
Al 7.738529251523335 3.3484503600786724 3.2055901219049208
