52
Energy = -166.67535646 eV
Al 11.555249157381567 8.538422426625015 6.855692758391912
Al 8.428790489199708 1.8417460125189031 9.892923276382186
Al 10.293645192719337 8.710436730441351 9.382973574535184
Al 9.290976096694045 4.20314389978279 8.807815365344712
Al 8.719395981568383 6.567770469085866 10.321569618028688
Al 10.292187356552237 6.404179735829657 7.8357145570941835
Al 8.617250823206353 2.1749601756862846 6.949645509565726
Al 5.816692446542183 1.9404350868342513 10.559130798974257
Al 7.312719269503131 4.329339925796361 10.788670346386942
Al 5.8552668777720225 6.565762658419801 10.16689426561879
Al 10.62090369803625 10.991906767146988 7.226486504743977
Al 8.8488014538987 4.847537321059042 6.091898849304985
Al 7.188883028788047 8.668895948021198 9.477617269552534
Al 8.26541954262341 2.876097235921373 4.152492826542442
Al 10.090628612580234 7.1834904193450395 5.092407239143132
Al 8.692034637865882 8.659221102890163 7.162470925432842
Al 9.504382956572309 9.948355565477543 4.9371771252972
Al 6.700412652446265 3.622939884481895 8.250627830139242
Al 6.499808617767975 0.8430969456223327 8.177017429612597
Al 8.78989654825984 10.890659688417054 9.135274476231046
Al 7.423492167105109 6.298613202418837 7.900044271592913
Al 4.5108595562613125 4.235558640244648 10.278232067267137
Al 7.324326144492701 7.222080079248109 5.250897241962907
Al 8.495941575337813 8.397100604274248 3.055924229449563
Al 5.496759799573555 2.482122768754211 3.432849307571781
Al 6.055702431454036 2.1517254554732177 5.945434080471672
Al 7.74389195842618 11.148544899289908 6.655478090391518
Al 6.397137169859799 4.730300127484042 4.851321024829106
Al 4.183949757165291 2.6542266297740063 8.086580765682049
Al 8.743112159672068 5.569427022328882 3.3972270784400553
Al 7.518886419129949 6.889678870090788 1.1514063382984994
Al 4.945441819774269 5.560405893861972 7.715995029367359
Al 4.675000768613614 6.662291351134508 5.154839574579507
Al 6.653598106731927 4.361460610591818 2.0443662887331473
Al 5.75512700504317 8.088467736300718 2.962623145292088
Al 3.124279355970748 6.422517457754817 9.740694469418727
Al 5.729690112456979 8.495571450729345 7.021709036672404
Al 6.642017150134524 9.888526272582219 4.646449688975523
Al 4.334016469130692 8.872614041528879 9.325527457243643
Al 3.983715972579324 3.8796359851985756 5.665247684760454
Al 4.000567525500038 4.794314091949861 3.1790965593414273
Al 6.1310483716331605 11.032386658989415 8.915693131988032
Al 6.471306582286273 5.130947732310247 10.788670346386942
Al 5.0477538715009365 11.189029230343968 6.396844209920875
Al 2.0110958918880555 5.635368059051872 4.9926735348311055
Al 2.3077772150094007 4.663580949098085 7.71640984584145
Al 4.701158789715828 6.378251715453608 1.1069809217767073
Al 3.0636923745789897 7.415761481006846 3.0207954455115478
Al 3.0138462826334713 7.3223832168878245 7.1092061938530415
Al 3.9268474044824226 9.326374184030703 4.69660840688886
Al 2.8238514574111098 9.89999741111511 7.124926123936124
Al 3.599660875744234 11.611236152571209 8.909817124596353
