51
Energy = -162.75347742 eV
Al 9.375003725341038 9.210214315318137 3.083803124388361
Al 7.749796107105547 7.978004613600861 1.3502288223453776
Al 5.607304275773835 9.691807333382934 1.5704821951623713
Al 7.291455216428744 11.182395641631528 3.243847416796621
Al 8.360128264265946 6.480057830505122 3.628743099252496
Al 8.478980914767476 10.246752789311104 5.523382353396161
Al 10.299425000542719 7.69262185166851 5.122832612149269
Al 6.773582492066017 8.649777476447333 3.7970641348283576
Al 9.736126594053818 8.821176895426525 7.4637165975018
Al 7.553084512275673 5.239972208188694 1.395935251410637
Al 4.007891814219284 8.900099374066812 3.532321000299759
Al 5.314164780943221 6.814986684717392 2.246684709588116
Al 5.6976601731968906 10.261335323824508 5.648326827908282
Al 7.2574579062683595 10.04817765354451 7.993108906326804
Al 7.678853842124067 7.601649695449833 6.1680210674971665
Al 10.225734552070628 4.814509240776574 5.4343861389113775
Al 11.47707824715454 6.410210290183326 7.227330877844788
Al 10.673075594892108 7.434018430605194 9.59611134842694
Al 9.001351373711998 9.636030788442703 10.001219865227737
Al 5.931323349527578 4.327149715606035 3.295897558181851
Al 4.562552062521852 10.308107968737302 8.26793320798392
Al 3.4257280651054365 5.2633422626318085 3.742244258689065
Al 8.663892561883584 3.7282408219576784 3.4358532867204907
Al 7.69127415787583 7.469062748922153 9.003299921839627
Al 7.427224029206616 4.860476994933173 5.668892353037504
Al 3.33954576232324 9.04523530666454 6.206476055912133
Al 5.436043200023942 6.744263118347275 5.040010346766987
Al 8.916457569781162 5.600295851918833 7.731922731682194
Al 10.82132989599115 3.945079789814839 8.606319038669529
Al 9.220558821490874 5.517507374482222 10.609967073736167
Al 7.809706848657538 7.850901451478694 11.706954185861166
Al 2.005589048870449 7.376105020644912 4.527005776307536
Al 5.398764366274 8.324570328331925 10.253723133549464
Al 5.412343493801411 7.8118558788915315 7.533837700253753
Al 3.4213557337112595 6.173992073669269 6.732715474481009
Al 8.895484988030484 2.818070477904396 6.888570478077084
Al 4.9774294374434 4.059513515831227 5.9057597886841835
Al 3.970670247171027 2.514181442400583 3.8839230508935163
Al 6.467998065732103 5.702959195034939 10.8016231266793
Al 2.924049564861138 8.135221480567276 8.787320649685554
Al 6.1903852356112035 5.126028403811146 8.092069752433487
Al 6.904652301386141 2.2123144800445185 5.001025450475192
Al 8.05271943620427 3.457949792136495 9.443476197125793
Al 2.238387303089268 3.743278850356375 5.861712106029793
Al 3.9710165667383794 5.834888798076445 9.627894417784514
Al 1.0255151910801807 7.597734316555247 6.959197633109757
Al 1.5437182410149666 5.327216603120012 8.471318588234062
Al 6.308311165789489 2.293760206569815 7.739463634336004
Al 4.164260509122123 1.4682319856754231 6.372849130077143
Al 3.5674090560097955 3.464179594187837 8.2335456984795
Al 5.371872599964129 3.403360812575836 10.143371304621436
