52
Energy = -165.35652366 eV
Al 10.597199051381667 5.852154221008383 4.009261527980167
Al 9.107078393400018 4.735129959250973 1.9859054041505737
Al 8.92131470043143 3.37941054505465 4.318613122714785
Al 9.375094848612227 7.6049444863277795 2.417911037575634
Al 7.064853322799924 6.443512165153406 1.5123568174571458
Al 10.350421422722691 7.974546482552536 7.791704960065436
Al 10.114158665476438 5.581537869073346 6.605987178204962
Al 7.443073846273927 1.3621835473438566 3.0256777078775072
Al 9.499080337339661 2.6201531403914973 6.912674500583031
Al 9.222919906688382 8.101098053237683 5.246153863176744
Al 9.836432259922564 6.303101794317757 9.81119127700026
Al 7.859759580409665 5.9866407791426735 4.20632970541079
Al 6.496169240329626 3.9009695865606955 2.6894259359261503
Al 7.132807257307254 1.8297221294437958 5.768787633939815
Al 8.00447195400191 8.330229735502968 9.814538981295344
Al 4.484424389235018 5.530365515526109 0.9616932232884818
Al 7.010206788069918 8.575087909199514 3.452730272662056
Al 4.891522984533349 8.25325566594435 1.7313691294228604
Al 8.8346360240652 10.052108601053583 7.294301864802358
Al 5.299259079083727 6.238931838321938 3.6159622808560763
Al 7.845921899639198 6.873650431330825 7.594388185420485
Al 7.612398671471065 4.477471707328236 6.408655924043132
Al 8.567250417961594 4.163772576814942 8.992157043807557
Al 8.401304078831338 10.695670807687984 4.627339800302412
Al 5.238473893746997 4.058789058165213 5.451725209556173
Al 7.063222908649563 1.9204191714522127 8.519468583196383
Al 6.335773365757487 3.2433086779264872 10.894847254020313
Al 4.989820917772661 1.7611388763477025 4.1204871972774395
Al 4.663719994144234 2.030309106998722 7.160359761796675
Al 5.726753967202978 11.087715854328206 4.236982573307127
Al 5.8752179016223804 4.453766563422421 8.33766393572635
Al 6.6294855358280715 9.03254778389339 6.082979600935189
Al 5.583496334161087 6.5470800501161746 6.267671935010499
Al 6.8723937427921635 11.879702396560315 6.601956450390834
Al 3.712682998348992 4.042844103027254 3.1098491196696725
Al 2.747472192845997 6.849851741835018 2.731329304007082
Al 3.949290615570476 2.6974939212456075 9.693332621765695
Al 7.05816255623563 5.869133572541787 10.482779543087016
Al 6.387905547492633 10.083303829169076 8.677440879880036
Al 4.318522352069185 8.698403180120337 4.493489421984792
Al 5.46762967044742 7.410305130943639 8.878929093057733
Al 3.3680561839689998 4.486107014953234 7.559198314154587
Al 4.4267267333092875 5.358343167102772 10.35759358876147
Al 2.7123693900923307 2.8061334398916564 5.363372419454234
Al 3.4074888510511436 8.013024964362625 6.967007322290407
Al 4.442937045567711 10.553112008327345 6.6663529513708655
Al 2.994319553032677 5.649387417454279 5.218555983478114
Al 1.7887223177819984 4.70594133861638 9.672484295078792
Al 1.589104731763777 7.939932869432624 4.957713803519725
Al 2.716906628792207 7.256255624877443 9.42042536668985
Al 3.8213799482712427 9.596477159327119 9.144763639101868
Al 1.2726995398095287 6.243681905050375 7.278501438093474
