51
Energy = -163.14779234 eV
Al 7.488295508233126 4.421558404255406 10.863388964140182
Al 6.163217650877276 2.909788294774213 9.089142561154521
Al 9.097711585230613 3.0812817969959414 8.844331912670453
Al 5.31703674382317 6.05886695372382 11.14560688904061
Al 10.009151485964058 5.277754921430515 10.840825399579366
Al 3.889642972867238 4.432492452816503 9.236417228264113
Al 5.026113420984709 2.2061666830933735 6.795102484235125
Al 7.944513295049146 7.099858846587136 10.604866709320847
Al 7.618627927375941 1.5384693434624048 7.140051651766502
Al 2.675240639382692 3.3038535263028987 7.061255312254488
Al 8.903900710888456 5.671683672199707 8.402057330768118
Al 10.321080658201918 4.264925934593449 6.647157388328257
Al 6.203175292407227 5.94103939785609 8.605536393156772
Al 5.962292936504642 8.631341349494607 9.975915587074992
Al 10.288321753729216 7.8678639483802755 9.34980949563398
Al 4.121641740948159 3.263379762027272 4.409850438909854
Al 2.128874312660918 5.948809432033238 7.709299491638554
Al 6.7085160058936495 2.097675550949433 4.657435143685217
Al 3.649155864008055 7.288424389886043 9.477269544031842
Al 4.725419667532257 5.1658823074508 6.493191791319471
Al 10.814166222831707 6.910180276085451 6.935325842262661
Al 6.505090904113445 4.849941033917512 4.178624063105333
Al 9.035277217768872 3.6482204932585347 4.505708975706763
Al 7.2777248543115824 4.156919333807369 6.770498142529307
Al 8.487994991941807 9.834052234671036 9.772814617667754
Al 8.376488861057577 6.32311280346005 5.540205440459928
Al 10.672216262337663 6.027867154266499 4.238538284736289
Al 5.2733740650382686 8.058614159714656 7.300689605861955
Al 7.914947090979146 8.000171104030597 7.655143591644162
Al 9.522722757568346 10.20597240599309 7.2023486501605385
Al 7.720713082652458 2.8450270072759 2.3175375385111567
Al 2.0649201715725596 5.014745630127159 5.053402470522386
Al 2.557968227899699 8.844925432307083 7.479013548023341
Al 8.698294618185612 5.390368181202089 2.438884218391481
Al 4.010675248266479 5.822355575244906 3.3128630387018263
Al 0.6504825577324697 7.425198920969033 5.978577363957893
Al 10.073951889455 8.637209850089361 5.072157730162769
Al 6.763664873354226 10.584458524544429 7.659286634869419
Al 6.079503655871775 7.467849849326882 4.725041024184686
Al 3.4427073497961684 7.332250522614601 5.468304246678635
Al 7.100255512030987 4.6231361363621915 0.3221000570383467
Al 5.156810002503289 3.7706221952142394 1.991883682272397
Al 4.338688701166484 10.284170998717777 8.679641421707984
Al 8.530013755475341 7.948423381855948 3.1047128176448693
Al 6.211177279980559 6.723319697391669 1.964618665207053
Al 7.5612430515385345 9.78193883249402 5.189133507728193
Al 1.506573754764232 7.170431888193624 3.383629129756952
Al 4.735482840219843 10.0214673087829 5.496700717569035
Al 2.0677147325292244 9.601081548564927 4.808608260922631
Al 3.9747056715841627 8.525612902453823 3.0619610745069945
Al 6.3969858017060846 9.480677925794351 2.787121392177937
