50
Energy = -158.69190763 eV
Al 11.292744355699268 5.659214396829065 3.3385506624077728
Al 9.179137793591488 4.707043056398286 1.7838149034507425
Al 10.167717335662177 3.3392763651554054 4.0287255914419084
Al 9.283843788296164 7.511256123323943 2.5995672757363133
Al 10.590069715396828 5.2596626822626575 6.418314097020826
Al 11.116046699345473 7.8330319953102086 4.751569522824348
Al 7.711090737912302 2.0020608341009245 8.251847057827264
Al 10.275604896142681 7.700687862419883 7.472313422519875
Al 10.373092123253311 10.081079987330861 6.008373497333198
Al 8.711182039164402 5.645958860780222 4.517623573097951
Al 9.674630323988879 10.140943514846558 3.333703763274295
Al 8.914502036141602 4.61978841969204 8.688062830220472
Al 8.734299402449816 3.3168279967951655 6.205710448655377
Al 6.930296848607331 6.187114435296989 2.4810866232388404
Al 7.303742917560219 3.5294889967724288 3.5169539659491784
Al 4.900122621981497 1.964041792154468 8.076932105766968
Al 6.411977764347074 1.9736195559703982 5.784909501608859
Al 6.15597962321884 3.173892729433918 10.107846985582295
Al 7.016612215085286 9.09746534118142 3.0217771354567082
Al 8.47257770277319 8.245976477673196 5.166067691706477
Al 7.800852182532324 6.517676818162198 7.048643483723025
Al 8.462297278340982 7.550447808750202 9.52528255221389
Al 7.63915208118386 10.820552402816512 5.2064558104119625
Al 6.400186041847518 4.29841418550917 7.455558981016862
Al 8.350543571509855 9.620824360040817 7.658006257877219
Al 3.89186182221885 1.0513269782218375 5.615818667057082
Al 4.353838844654746 3.897264933558393 5.861698816653949
Al 4.92134925456765 2.234353956795065 3.4597497927402787
Al 5.981685128224619 8.203502383808225 8.286560345599538
Al 4.817050212545331 7.640889318625217 3.261624345039493
Al 7.061231941167365 10.246270465798766 9.931466583539521
Al 6.460703309137264 5.734512797637436 9.840602821792604
Al 5.788470331010675 8.742464831679516 5.594970052741596
Al 6.023715691573351 5.927542592348366 5.160565869445857
Al 4.62505858869204 4.8163112838700926 3.0068909313887957
Al 6.036647184419679 10.950429215628118 7.436113696784678
Al 6.1661586755642475 8.05127181723026 11.154819287815153
Al 3.8979515822107156 4.5630480162954825 8.626204394628115
Al 2.35627076537742 2.468689931527405 7.337512513400485
Al 2.2770994260237605 3.2799413552244654 4.31748416479314
Al 3.8944048394986215 7.045475887450438 7.015806370706567
Al 4.388796969194843 10.003012460030531 9.698050078587555
Al 1.774453118907402 4.873047380386157 6.678183718997501
Al 2.9611535872384334 8.827447341067206 4.76335275001351
Al 4.018608879508758 7.06837447214479 9.814708468818797
Al 2.8857006294440395 6.08719137236765 4.571115761306228
Al 3.651919337356824 10.05030933002646 6.9227004108232455
Al 1.5666365166334928 6.1377621886319975 9.034526769145328
Al 1.26175173412809 7.551904379355113 6.4089906539115935
Al 2.1820504810523795 8.77290632274389 8.718930184899953
