50
Energy = -159.03219412 eV
Al 8.224439230061247 5.246611840134621 10.686005911622818
Al 8.009497168589046 2.5839769158973045 8.352062486382176
Al 6.259863925327661 3.379885842610764 10.197243790629274
Al 9.595201110332182 4.776100405448047 8.177817203674607
Al 11.191527865798237 6.871283734721191 7.285583444562538
Al 5.565920952549348 5.961362656313832 10.768306275858077
Al 7.159219020840688 8.030408248308845 10.687991431747406
Al 8.115870836655171 4.119527024558855 6.072891857279634
Al 9.129948007699044 7.27450646786185 9.0579358714843
Al 10.32098576722608 5.423590985412731 5.090507050531003
Al 6.9655743762222 1.6802082764852158 5.833817053522879
Al 6.795970652841252 5.623910023395436 8.300644419692983
Al 8.045685921761223 3.101327377579385 3.5222722415920336
Al 5.442686370336561 3.2512516053760474 7.525744803882225
Al 9.60804385800075 9.343885512492374 7.339794855730176
Al 8.370579663866993 10.055315701840946 9.55101820744613
Al 3.7071322826792423 4.166337567338012 9.760950005291921
Al 10.401351875374756 8.361441284505851 5.051139883573946
Al 8.397175816821024 6.823703747608083 6.340836044563363
Al 5.913877081463625 7.488320370400851 5.109843052660093
Al 9.786456158428305 4.876817824539905 2.5421808790391522
Al 4.6372619729076305 8.593171011479678 11.367880622526455
Al 6.948413824361444 8.410590709117644 7.739473777363082
Al 4.215246231431967 1.8213745505193415 5.543340545161936
Al 4.636959770309077 7.569785650680096 8.652963626122368
Al 7.2978546428723625 11.37565614753437 7.390763323742058
Al 4.5733555180863545 5.60797107178636 6.714353386733028
Al 2.30735069332636 6.25820416921832 8.186935844072055
Al 7.761380356433775 9.570522627983976 5.37757665740161
Al 2.692489018863287 3.617709312310483 7.417946751433874
Al 5.7834225067673986 1.770579957999617 3.1879230283639783
Al 5.109793917895116 9.865233656610638 6.3318853366385985
Al 7.601301919918906 5.8085309912100005 3.9649510652135014
Al 5.699896935301875 4.103569088365793 4.864737099240546
Al 2.9515884553231464 6.635652172990662 10.730418981225677
Al 5.50014511136935 10.056263686951425 9.21047243408786
Al 5.44668929742465 7.240311634584061 2.169084838342098
Al 3.2455374156073473 7.839544922468453 6.108335897122284
Al 6.238410178432273 9.67564898132774 3.2057579856203953
Al 3.855379514112364 6.043191189345298 3.994913295606591
Al 5.89798402327597 4.48347341186115 2.1428972166978664
Al 8.645483492446102 8.260114367979535 3.0523787656798955
Al 1.8303355122853606 5.53572707280288 5.708162208567569
Al 1.6807021757797522 2.8082520103077897 5.088270586185548
Al 3.7949857106489713 8.830956243048808 3.6992988729493645
Al 7.892529505881847 6.268747186004518 1.3063098773578803
Al 3.655222776951914 3.319104949689947 3.2661704495308377
Al 7.223871940815289 8.847960363576558 0.7892859111607601
Al 1.4367558124437863 4.836483908769687 3.14890160546553
Al 3.3874528393917123 5.418317649447352 1.328973660988996
