53
Energy = -169.19856502 eV
Al 5.821292975097125 6.384558097106448 11.691104045380857
Al 6.805544820997887 2.2086838284266634 8.386928509442596
Al 4.081946737024882 2.5598159745681257 9.119512336451315
Al 5.857621031119598 4.592074997162769 9.460061360955109
Al 3.2883849267280727 6.249721557131376 10.924538458336759
Al 7.961655973293851 6.21288305240152 9.958663314095018
Al 8.690256941179296 4.081676372540511 8.505174747413491
Al 6.967709155716405 8.665474647707892 10.862118763446375
Al 9.683741308251058 6.558932245521265 7.748039744223168
Al 3.7862220439222423 0.9153122311049536 7.052757587881283
Al 4.222577806245338 8.734803179783565 10.87687479044323
Al 9.612110370860488 8.392643814484774 10.105366496260745
Al 6.2270548732270194 0.9882679557414971 6.047331660016183
Al 5.130407598981395 3.822927460056315 6.676794407507913
Al 7.800378151937694 3.23767428245393 6.055395743497301
Al 5.306269892037286 7.190014675483475 8.997918324697231
Al 3.2716216294953493 5.024677137886 8.598085940847202
Al 2.402660338845049 3.2444360831481434 6.705892807890201
Al 2.6684652965253357 7.652579866327893 8.540642818917494
Al 10.152031712136273 9.962830255172658 7.9898288560377715
Al 10.48914629753006 3.935752663683764 6.276109550285318
Al 11.411025230213333 6.674920611204167 5.695603142598104
Al 8.061740193349449 10.756198470173189 9.463183113283053
Al 7.688037772584369 8.373106092392424 8.123984740451611
Al 6.813975285553628 5.9636010330214155 7.083620466422768
Al 3.973468026794732 2.1430809765737138 4.654570171925125
Al 8.771156676409559 5.745710508299844 5.190594715977005
Al 5.5713466994495535 10.044338668355023 8.938731360582018
Al 3.2528546636929576 4.694714053891561 4.586750199877783
Al 9.451549214747022 8.649823023791045 5.857435156119528
Al 7.678224137410508 10.664214690086927 6.6581104018233415
Al 1.5851104245748342 5.827933564833724 6.6171081732314
Al 6.2438482100698245 4.702568509539678 4.2435365971488315
Al 11.083621580219472 5.028149266440535 3.6234147283003044
Al 8.997663970353377 3.338675782690811 3.6936787935679156
Al 4.197099685072131 6.732661244288635 6.306871968098039
Al 6.547088145092427 2.0296408748141905 3.6332636494177053
Al 7.043560693296206 3.6560013347227627 1.6430738450824665
Al 6.1916878564381355 8.460158924701961 5.903737212819234
Al 3.9167664451671915 9.619738461411087 6.9685074987524995
Al 7.088653772127618 7.175318748698819 3.816662412643007
Al 4.485713182956232 3.589622600746811 2.408198582905129
Al 1.4080456255870588 8.626719762300345 6.277914853991526
Al 9.886417037760781 7.7087558034003285 3.443105742673437
Al 1.8977324717558859 6.971401543134428 4.1456921633532104
Al 7.931983932159907 9.824929269302245 3.9776044877309054
Al 5.528358407328504 10.99858857988897 4.907433603096297
Al 8.728637605747828 5.6319578029998105 2.2175164504967326
Al 4.421059429644034 6.6580058180695465 3.207278836146782
Al 3.6713802755452307 8.992125123543982 4.434621522971216
Al 6.2117274946415835 6.274883452607621 1.290459675452485
Al 8.059803004272979 8.309676178216218 1.491396941986293
Al 5.631852356060273 9.182910942195145 2.6368627100098068
