50
Energy = -160.04187828 eV
Al 11.179183754394357 7.019909631750525 9.081532941503019
Al 11.036427800594241 5.636540654581213 6.890906121464005
Al 9.99271232342996 3.89181383377643 5.151638950683354
Al 9.843892175663383 6.5155152711442765 4.637620323808115
Al 9.75956777964035 3.5823613470295563 8.025807549190505
Al 9.306636257341175 7.7460200596363045 7.218840477192912
Al 8.711956862543673 2.17711824233288 3.5127777189487706
Al 9.622656761202084 8.022777311579093 10.987418210229322
Al 9.54418252747077 9.113915798415062 4.5650259494127745
Al 10.369415007667918 9.710923802762142 8.836405049013859
Al 8.21642662150624 4.804456839864184 3.1409353128636894
Al 8.342733274397325 2.0528465317329823 6.393009927738621
Al 8.658882737139722 5.721493309023464 9.29904262595309
Al 7.997233685345228 5.292927940702622 6.466637737516148
Al 9.016902495636028 11.796253846718075 4.384788406116394
Al 8.604435455189709 10.40895510669816 6.862308469171697
Al 7.707670809646538 7.436756942015752 3.149992195641673
Al 7.784415341152347 9.427190649976907 9.43506360159982
Al 6.576536257324722 3.432205468574059 4.725660600930399
Al 6.8722156853086656 0.5658676469015788 4.6777515489251655
Al 7.176936748142427 3.46094203925886 8.473940099854124
Al 7.1695234306049676 8.28164865417458 5.64383857671553
Al 7.08842531966853 7.256722949617408 11.03493479103672
Al 7.403379438141326 10.064080177736296 2.9184282764018885
Al 6.6675539897679235 7.214945254314274 8.143803420288005
Al 6.473397204405743 11.079191050849706 5.271824136076902
Al 5.984238307763093 5.737599210168156 1.7978596119941859
Al 5.82435548916124 5.213657774367398 9.90298046685134
Al 5.737418672439099 8.406560914273774 1.4952629617642452
Al 5.666856555191487 1.9309323486895968 6.863618704768118
Al 5.931269716217437 6.073621711114277 4.642650201467667
Al 4.464821324716308 1.7511924173671443 4.35580304834129
Al 4.463357764299101 7.021284913914222 11.694690116710136
Al 5.1088136847913725 9.041872316715251 3.9757749986756377
Al 5.915365211398453 9.980170048197884 7.627964113893771
Al 4.406412723037302 3.1012934378611874 8.893682175993861
Al 5.192143605637154 9.184352088315494 10.138211160515937
Al 4.608295198815432 7.826818827897776 6.416059158239886
Al 5.284398683243339 4.960056174475974 7.037258339112602
Al 3.73275377335039 6.950533647419346 2.8682354884065737
Al 3.126720463317597 4.892160325437423 10.546706977156587
Al 4.276933306648812 4.256732749267613 3.4337192773544403
Al 3.984036979901956 6.989810987489721 8.945226198264656
Al 2.422455311498185 4.959454413761346 7.965063589735778
Al 3.1829080641149257 5.736172131018894 5.373275481865959
Al 3.2595990734021836 3.140231848771362 6.275901403509985
Al 3.8414059674175296 10.629972032590329 5.857839239204975
Al 3.2506516660785123 9.62466377463304 8.251415549739908
Al 2.45316499781322 8.499515335783732 4.679953859514477
Al 1.881899972104448 7.501536464986585 7.154491114324224
