55
Energy = -175.64208882 eV
Al 6.1307643645621575 6.130174811381842 6.130174811381842
Al 6.132629769195069 6.130174811381842 9.009004665612524
Al 6.131501344578739 6.130174811381842 12.027175779999999
Al 8.005694487296408 4.754917337731199 7.568618992876807
Al 8.030969974115267 4.73288817773859 10.503039504888273
Al 1.4906500638165288 6.130174811381842 9.03470679356807
Al 9.949183806403877 6.130174811381842 9.05741750021902
Al 1.4615089576132345 6.130174811381842 6.130174811381842
Al 10.045219159137007 6.130174811381842 6.130174811381842
Al 6.132629769195069 6.130174811381842 3.251344957151154
Al 6.131501344578739 6.130174811381842 0.23317384276368117
Al 8.005694487296408 7.505432285032486 7.568618992876807
Al 5.418170808421455 8.3419441061826 7.567568285277404
Al 3.805916930332466 6.130174811381842 7.570514809720357
Al 5.418170808421455 3.9184055165812586 7.567568285277404
Al 8.005694487296408 7.505432285032486 4.691730629886884
Al 8.005694487296408 4.754917337731199 4.691730629886884
Al 5.418170808421455 3.9184055165812586 4.692781337486274
Al 3.805916930332466 6.130174811381842 4.689834813043339
Al 5.418170808421455 8.3419441061826 4.692781337486274
Al 8.030969974115267 7.5274614450250965 10.503039504888273
Al 5.407254498621938 8.38339285409243 10.492553176548844
Al 3.7798523268635558 6.130174811381842 10.508281294386626
Al 5.407254498621938 3.8769567686712607 10.492553176548844
Al 8.030969974115267 7.5274614450250965 1.7573101178754131
Al 8.030969974115267 4.73288817773859 1.7573101178754131
Al 5.407254498621938 3.8769567686712607 1.767796446214843
Al 3.7798523268635558 6.130174811381842 1.752068328377074
Al 5.407254498621938 8.38339285409243 1.767796446214843
Al 4.689760189415678 1.707400327355762 9.01738725110152
Al 9.890368982866562 3.404610771458882 9.026091849338243
Al 9.890368982866562 8.855738851304812 9.026091849338243
Al 4.689760189415678 10.552949295407926 9.01738725110152
Al 1.4906500638165288 6.130174811381842 3.225642829195615
Al 4.689760189415678 10.552949295407926 3.242962371662172
Al 9.890368982866562 8.855738851304812 3.234257773425448
Al 9.890368982866562 3.404610771458882 3.234257773425448
Al 4.689760189415678 1.707400327355762 3.242962371662172
Al 7.326952930972568 9.81248782836522 9.01843704476197
Al 3.0254560611000305 8.386123248404097 9.044179343570521
Al 3.0254560611000305 3.8742263743595897 9.044179343570521
Al 7.326952930972568 2.4478617943984706 9.01843704476197
Al 9.949183806403877 6.130174811381842 3.20293212254466
Al 7.326952930972568 2.4478617943984706 3.2419125780017195
Al 3.0254560611000305 3.8742263743595897 3.216170279193172
Al 3.0254560611000305 8.386123248404097 3.216170279193172
Al 7.326952930972568 9.81248782836522 3.2419125780017195
Al 4.640603060074491 1.7007396267091508 6.130174811381842
Al 9.940453212442629 3.4292664282344396 6.130174811381842
Al 9.940453212442629 8.831083194529244 6.130174811381842
Al 4.640603060074491 10.559609996054528 6.130174811381842
Al 7.363427250381464 9.913062702064039 6.130174811381842
Al 2.9375874432430966 8.432583322021781 6.130174811381842
Al 2.9375874432430966 3.8277663007417355 6.130174811381842
Al 7.363427250381464 2.347286920699644 6.130174811381842
