55
Energy = -175.92082681 eV
Al 3.845964023192938 3.3195622629033346 1.458077473509179
Al 7.7444602645472305 1.9155445986016868 4.888908606887274
Al 4.971315403211942 2.2658425789732064 5.6153734041535355
Al 4.556484942374829 5.062602524288813 3.791266040566994
Al 3.81541283186513 7.60421590121887 2.946745027213562
Al 6.271502591350175 7.492676332267338 1.7525077950990537
Al 4.187956744390715 5.900704684929979 0.852742649155372
Al 1.6522957272794896 6.137219688121213 7.910612344625819
Al 6.558239920476247 5.842300988292795 7.393124747451312
Al 6.0806809254790135 7.124009038379893 4.537132089985245
Al 8.580625183322576 7.756274435198078 5.419292228732205
Al 6.889822204056429 3.147784653139006 7.219529757188806
Al 2.090176423598038 5.3517459008383454 2.6366378462817632
Al 3.7584520725962425 3.3194413348762084 10.855468867377612
Al 1.8444648975897713 3.579601726247029 8.906417504502468
Al 10.997520228789917 6.520716442148141 5.157812694037169
Al 9.074934651187524 10.035529607668158 7.202321045452555
Al 10.97228660741156 5.314901087487103 2.6353155497190968
Al 4.26371517376086 7.110654332756037 6.907110050002745
Al 1.9764315771788497 8.67512009070963 7.118173240319501
Al 2.86791543287213 2.9634083166924388 4.015138330707724
Al 7.004864548685109 10.187795126249691 8.907623871159176
Al 6.478305753411018 4.783032600810478 1.7349535635912205
Al 9.190340999019101 5.449927421862715 6.943665191335036
Al 10.675278310824316 7.97040597574345 2.909675937313592
Al 10.765078439055968 9.489591110639404 5.172349079460265
Al 5.597132905734723 9.693707241595392 3.282658357337921
Al 6.475794974776873 8.79017611368483 6.558008320376491
Al 4.200255176547288 5.246165101240155 8.808209520049886
Al 10.146154149652723 6.122417278704113 9.5087393741763
Al 9.512179661924884 2.5422312407643894 6.87795525888747
Al 0.6518238325075959 4.144714039152718 6.405975303711532
Al 5.014446766523637 5.876106440688182 11.264325787309762
Al 3.121702446211727 7.823476142668664 9.510325590252434
Al 3.456747026084845 4.48401346165078 6.33952293039783
Al 8.537188592454541 3.517919155979476 2.742545784736238
Al 2.3129121681259712 6.588324180165008 5.071781559141425
Al 8.420099400654452 6.243426959320835 3.0834359757790595
Al 10.806356917161802 7.807132814156997 7.485168175603843
Al 2.2153232712112865 1.9555914333620221 6.5083387836580275
Al 8.857337591617773 3.770974367385048 9.10983996584312
Al 4.351688547870217 2.527276778727254 8.22596329038441
Al 6.259726533098219 3.727530288255461 9.785248487454238
Al 7.8911534202186955 10.581186318668694 4.779421976543458
Al 5.424894885303141 11.13566491424293 5.631660596733847
Al 3.6958196557845264 9.103791739140753 5.145543147187107
Al 7.549029423768113 6.014945023227183 10.302781741338155
Al 4.369973706409872 9.85561516434835 7.896380510090166
Al 8.26737262069886 9.022231340187243 2.6485423453517685
Al 5.759138268349041 7.865077536614559 9.383948682904245
Al 5.805478241865127 2.587958976465786 3.1345357290681077
Al 10.091028437345445 4.017876713283664 4.825704141069997
Al 7.0221756477871216 4.619153949736198 4.894108114791451
Al 8.258204651353967 7.760113227584428 8.43167104457683
Al 2.1695239021856736 5.6097819987102815 10.824873270171212
