55
Energy = -176.35551941 eV
Al 7.569902488592219 8.057537101538292 7.47889336117152
Al 3.159563098219744 3.783176838176057 6.567805128161412
Al 7.386159810389194 3.761947030232807 9.956324519993858
Al 3.0585554293709794 8.091250252580943 8.939453821580303
Al 7.7677963553050065 6.557146362807999 5.1476228445644026
Al 7.440611452366095 6.601149665283721 9.8667622197329
Al 7.526580859586462 10.878146698641356 7.562143175878578
Al 7.86134092090868 9.633710913633175 4.99041644720089
Al 9.703083232353581 10.679385771135808 9.137769255461636
Al 7.58256818101668 5.094634719232776 7.506811663503482
Al 7.887308761167077 3.4740528836699296 5.052632958206043
Al 5.126780025762095 8.055675847477152 10.737141355276934
Al 3.0709111350982274 5.0558603848358254 8.971807998874521
Al 10.01454696893999 8.110485919155712 4.353407288538761
Al 2.8461351174856087 6.596602802256216 11.146752130024252
Al 7.562042841507914 2.2756970852940857 7.648259592387427
Al 10.02660249516935 5.005038098104545 4.386214493979664
Al 9.789703021287858 5.255491521838245 9.13726296156983
Al 5.315688215449661 6.574756971659971 8.242820697133563
Al 3.3293077925609103 7.872714406533696 4.183852880578678
Al 9.738798935725267 2.5268524384454762 9.217769592585196
Al 5.211013012776736 9.59939602889632 8.334807978541544
Al 3.339095340173115 5.1798873928935025 4.21061757244215
Al 7.361929919727341 9.439458739204222 9.899897630602544
Al 5.2368649843690145 3.555389929956303 8.395240023745172
Al 5.644213572458017 6.529349921103284 3.4900168866593084
Al 9.778063766446754 7.951139962658872 9.110328208019526
Al 9.887286847176998 6.5799421013785295 6.75740496941698
Al 10.080980560554583 6.533610102026724 2.154219259898835
Al 3.3822536822990807 6.500031822407848 1.7262298494142607
Al 9.965582503955446 9.380263663656464 6.776345140371358
Al 5.676875591306312 9.373143827241908 3.4029198784532024
Al 3.443548401564132 9.225666820780242 1.7861656562157193
Al 9.989738611347388 3.780151127852712 6.831989948931424
Al 3.339795677713038 10.613001478501927 4.130471719728209
Al 3.4652638089597887 3.777273133688244 1.8440190314894698
Al 5.535070920183055 8.025218778677724 5.8515066627776395
Al 5.701580516775796 3.682619696855847 3.46195258179951
Al 5.7153791901138495 7.8968737384958025 0.9477686137389841
Al 5.514023915521649 10.859138056815047 5.736111153664909
Al 3.3747186028343283 2.4406098403088112 4.216886943330148
Al 5.725770625419869 5.105078191593396 0.9766536664186417
Al 5.54859056485337 5.081881983674986 5.881611892430842
Al 7.8736582294035555 8.008342755643486 2.736817339214709
Al 8.036961361981946 6.5047765415916645 0.3834599858785441
Al 5.550732137939432 2.245595921078643 5.823693260513368
Al 7.885626088788354 5.054580726452837 2.7688186289308505
Al 9.688980777870883 6.627348041895978 11.563899925422836
Al 3.24508787988497 6.550864738681892 6.548960476852279
Al 5.140837940829312 5.145382419091961 10.767795836653086
Al 9.559557072023864 9.334204576213034 11.485121334739452
Al 3.1363197315663958 9.31789460668584 6.511038178404772
Al 7.306207063655032 8.01473558089832 12.348173372233175
Al 9.584627013467811 3.9177216898450564 11.538956970418006
Al 7.318494857871909 5.236830260791486 12.376892946319495
