55
Energy = -173.88582135 eV
Al 4.592811098723674 4.078529479835762 6.829852574242084
Al 8.156830821483613 1.0632928752992499 7.1861046625501315
Al 8.337096646845824 4.574541256583249 4.463573570671934
Al 10.257884967610993 13.768402624450083 9.740249833634966
Al 6.993120583950732 8.719885767297281 9.033450304624719
Al 4.864740089224256 9.267381133092792 10.981825015630164
Al 9.808182721722828 9.395620785972767 10.242623199675362
Al 7.563699895563122 9.765183284876455 11.832795145606147
Al 9.63611461631165 2.861668480723682 5.923468096195675
Al 4.257756354237602 10.428357468847203 8.639345632206805
Al 12.177168334249288 6.146218134305881 7.832128039818285
Al 6.539910149763405 9.992736044292977 4.472752407731262
Al 6.911501230809692 5.224414619711145 12.140255163714391
Al 11.173997140256665 10.433896129462388 6.023990663569436
Al 3.9467124264481788 6.547477271589523 5.8472737865642594
Al 10.476947053853248 11.44597347535884 8.4465685050453
Al 8.966111466289428 9.171898580904793 4.930280887954354
Al 6.04884141753062 6.351039491725421 7.544856616434537
Al 11.852002186570958 8.989989384016486 8.391669300455375
Al 10.077496987960838 4.479296058112633 8.213839486809004
Al 8.232419201541472 2.9001271075392947 9.269014950173494
Al 4.078802307129313 11.042748701134784 6.025299134232045
Al 13.499246001253614 5.6507137072947575 5.551798865067983
Al 7.848013502790489 5.507105856679709 9.282291763852337
Al 2.6285729006669034 8.95513941530896 6.8227430171785715
Al 6.415366967751384 11.282609137886748 9.895662716406338
Al 5.72964833278424 3.9389911819628325 10.123210487744863
Al 7.301908629790485 4.026956199865806 6.8739269649394465
Al 8.385320428859458 7.278680448767493 11.193182800354139
Al 5.920459446982037 2.0030531557940865 8.152365418039519
Al 6.155041515294819 7.720468038931242 12.901959979484898
Al 8.94288206593297 11.842890216441596 10.996389069597406
Al 9.452961343107653 6.884785817727839 3.6075843044094595
Al 11.342875334969206 7.822261275694429 5.81957815002847
Al 10.6089675410043 1.6777997067823067 8.235627604311814
Al 12.167489822485583 3.517408617197678 6.844695124592857
Al 5.444293796900118 8.761598839994797 6.777545489326612
Al 8.697622170368493 6.660341462614431 6.574065624549499
Al 4.413049592137327 11.210922640398394 3.3310161580212183
Al 4.054714517622793 8.713975603969027 4.317408127321324
Al 5.556514405126229 6.712739771393247 10.351478936684193
Al 5.664418147815716 4.81969702822743 4.487196796730076
Al 7.091626398108997 5.876171385820099 2.459876876824961
Al 7.238681055128277 10.777403889437625 7.050658968001656
Al 8.065582265454548 13.00862887787026 8.53677591806402
Al 9.99726540983402 7.036479976172423 9.02264349428282
Al 9.25056554265104 9.13276009632899 7.552800812637975
Al 5.54590967381695 12.811138143323227 7.791560306630427
Al 6.70240206537578 7.319407949010907 4.759925202401344
Al 6.879504435127555 12.0853866770687 2.6385225615419365
Al 5.988807871804484 12.693169771029444 5.16803457734449
Al 10.81629047605049 5.256322748914015 5.252694948727191
Al 3.560075947865855 5.270154480239982 8.981731125017983
Al 3.5623480488567436 7.842167411065447 9.01093823750658
Al 3.520132946113821 2.652698613561199 9.021598892745894
