53
Energy = -169.27302536 eV
Al 5.973612845579018 2.626463008057935 2.391381862130056
Al 7.862512354565719 4.449143589949178 2.9831597007877746
Al 9.694254711407167 6.218909942104861 3.461663276405781
Al 7.351602103183583 7.374458473844976 2.8454776630181633
Al 9.388298904618095 4.095179265316823 5.173516258108401
Al 7.694321207822837 2.1218615241257073 4.57152330001092
Al 5.368197850630838 5.503371552363066 3.0312756810344936
Al 4.781328403778884 8.031710396061742 2.2738421987706006
Al 3.3754228522528766 3.5992718125613776 2.912595185926465
Al 11.045867896308255 8.393320295340352 4.097738447723025
Al 9.220889368321105 1.8596884640604956 6.81448344432134
Al 2.7598926468030966 6.3087999784713364 2.8580762020770525
Al 8.955766251230516 9.987177170162042 3.510586308548161
Al 5.3409956070381055 3.469628434211443 4.887998799845064
Al 10.515171982531472 6.320304540168122 6.038214922241899
Al 6.96918518687815 5.718293478429738 5.266679827592758
Al 1.2088207389480896 5.335969431030927 4.822485180520881
Al 6.335308163710823 10.056799578162021 2.9992229298952853
Al 5.7402737751772515 8.135331278986248 5.036304378633217
Al 10.256350848114892 4.22353589737023 7.765435287467448
Al 7.160223062798122 3.598038946025544 6.972369452558444
Al 11.998769231333476 8.515545560050127 6.642990782498583
Al 2.640819535980009 3.1712616863821586 5.52519338774792
Al 3.038227592043357 8.653342799836928 4.370311929168209
Al 3.9643897078859247 5.9986755959106715 5.430774473693475
Al 8.461132676885173 8.01702338766699 5.474576157797831
Al 4.617422015939702 10.747034220859248 5.012590859525819
Al 4.577075233884378 4.127924903996866 7.26665882792829
Al 8.185690834027533 6.129611389167796 7.68129322574283
Al 1.6739622345767973 7.467392836569401 6.324384593866949
Al 2.70809828549604 2.399956037393108 8.13571028350629
Al 7.292316658926659 10.485493589055801 5.593447683355298
Al 11.656338662514061 6.544864381756078 8.446329132806875
Al 7.923449902187295 2.342238574262184 9.264895418458893
Al 1.8569637520585633 4.986246819725888 7.426096538702143
Al 5.220632679485785 6.569980856135719 7.989249815479259
Al 3.9044730729289086 8.799743278521202 7.025234975388718
Al 8.844519998091506 4.725354715157212 10.024484009373007
Al 10.088041154371208 10.354542803441639 5.935563603484866
Al 5.23248921235317 2.1730794535244806 9.076179582579808
Al 2.646981085348493 7.188831842024014 8.932682313149545
Al 6.2120692556749075 4.560953202213818 9.611134612825182
Al 9.696057490992269 8.494459381836199 8.007624452008388
Al 6.922589206228426 8.661891743260602 7.875422973086005
Al 3.4133843113837923 4.49691076106671 9.642554471584397
Al 9.920562543415897 7.118190700023488 10.408566254077847
Al 5.520207283589037 11.048779705407554 7.555583091823504
Al 4.49748419632935 6.483898452872761 10.934818160254451
Al 4.647769351641795 8.791289226775987 9.664576703486945
Al 8.346626913979827 11.053303286542437 8.07912729774425
Al 7.017528950534186 7.039526748939428 10.19254827645537
Al 8.515517754215333 9.301951502188214 10.317349223041814
Al 6.3613340162802565 10.724665062915133 10.019238144022161
