54
Energy = -172.51391471 eV
Al 10.554864987966436 10.751141899215625 7.521335562655604
Al 8.951497672738167 9.709318719528246 9.550402766249393
Al 10.323349779243493 8.034104787175806 7.65699226360364
Al 8.195599077048007 11.95270447962052 8.111340946336778
Al 9.539104101270995 6.6818728643378655 9.801114057351533
Al 11.01273024380352 5.2887991628763915 7.893298982817378
Al 8.004842781281498 8.201482931911478 11.572003845225083
Al 7.45725804639066 5.545570053041126 11.168618412519782
Al 10.274464257443316 9.3449413561308 5.256525540175164
Al 8.717636293209399 4.021472037766658 9.37550777835919
Al 10.26167748134692 2.6725450261927475 7.592641707151232
Al 9.051174336458882 11.802360886324598 5.467527803139073
Al 6.065692507311424 10.375307787276638 8.542384681129018
Al 10.563158477865294 6.547601567149165 5.345088503758565
Al 8.085806034373359 9.43774932877559 6.911495836473896
Al 5.508797289730907 9.175736969810483 10.879166568495718
Al 7.125824894173156 7.7587563307079375 9.027196258727292
Al 8.461524554949468 5.878396749774268 7.0261857656880675
Al 8.288989489380716 1.3092222286182131 8.526273368786732
Al 6.207274100748624 2.6812615417869035 9.408163863311094
Al 6.451937621019036 11.58556693358447 6.0948410224371905
Al 9.869800994304335 3.997307548675874 5.31454194921228
Al 7.694465807986064 9.532145703064582 4.242498665395208
Al 5.060113297321418 6.518152016907112 10.564233054198214
Al 9.960717526801046 7.924266627103861 3.0589086420265357
Al 6.361106090211499 5.267817834349856 8.467248058577727
Al 7.956848614315837 6.569416936917232 4.417387681772794
Al 6.270269667773543 7.368867255156298 6.509068119690293
Al 3.946212531942131 4.3487355455653995 9.589817423101316
Al 4.329257878303907 8.219074632743995 8.564573388051906
Al 3.888366972643356 5.965892055365004 7.153555916379782
Al 7.56007860175003 3.2726647553459367 6.712951446516628
Al 4.664268159633371 9.50810854964215 6.253965594111589
Al 7.670257692768568 3.874582922537929 3.904020456755655
Al 5.482674740918476 7.980282198059473 3.976755131738394
Al 4.858472876469821 3.4843899594851 7.079516956712434
Al 5.129936456749596 10.871758556163037 3.9373107257263786
Al 5.48794166214618 5.17175965646839 4.830959188336719
Al 3.635552193068293 1.5694910184344382 8.815425513112318
Al 5.913124476196488 0.9805342545366168 7.155903650093487
Al 2.2229469168726035 3.6829615385768353 7.670235335972155
Al 7.617596814022405 7.8861194214375265 1.9000493695014453
Al 6.402795014042367 5.637341935522932 2.218003950929708
Al 2.2358349788630174 8.17589395199932 6.645289203963331
Al 1.2542097955180256 5.742380539143626 6.3317911629608155
Al 3.0794112459938843 6.608177389832558 4.546174314081315
Al 5.648088297747999 2.2566271293625495 4.840142285445836
Al 2.9000032843724406 9.29046680056991 4.16218186000678
Al 5.454300127702155 3.101992626560267 2.3721860790168705
Al 3.1026935811010365 3.8202043581957743 4.846258178497885
Al 3.2773279128015966 1.3900860973032694 6.120627159148563
Al 5.603234897538501 9.561335580857593 1.6904213671729444
Al 3.716525405488458 7.691945913590215 2.0084474140879616
Al 3.7389342856546937 5.069877875696577 2.4680180500895794
