54
Energy = -172.96398807 eV
Al 2.6697209725633098 9.273988339906486 8.472474764435578
Al 2.652488850180257 6.795781548991083 9.617313299780609
Al 1.7251699816520163 8.872417906395892 6.064747664636705
Al 5.118428234467171 9.919562713860492 7.053176941944792
Al 5.026712667001062 5.548429945454765 4.7467338107018096
Al 3.1137567167172477 9.32455316395978 11.120509080618362
Al 1.3943605871561127 6.401671183635778 7.13771788355931
Al 5.178881142401945 7.947596767203994 3.249952941734793
Al 5.992935639197752 1.481846056581813 4.401748075709753
Al 4.703655045011281 3.2272127142065496 6.224992690451155
Al 6.771274629511294 1.535463102456548 6.878038983440611
Al 6.984007752919669 10.143367706461293 9.06929476107661
Al 8.108607687586172 9.829522546993715 6.710838354907634
Al 5.977470146724076 4.250179039827735 2.338679784597693
Al 4.955396636450803 5.257219275507367 10.11855332099754
Al 5.70462704036584 3.1187234147865097 8.785582473954959
Al 4.315525051308697 7.078769392277845 11.92607804148803
Al 6.145118182055951 6.663604391699965 1.062538955810982
Al 6.379408935824425 7.663985229394006 5.845497342329557
Al 7.150326391415343 3.8254153831991875 5.089470228767501
Al 5.762503977868858 9.555523714588773 11.520493425888823
Al 8.454095230868855 3.543094152445804 7.47848818619386
Al 3.3655357661666176 4.650358753224983 8.0210932342903
Al 10.860810317038105 3.998250845745798 6.2280608258499175
Al 8.473506042458293 9.393197527818618 11.345975853534675
Al 6.874399852929861 7.091222259847993 11.011142769689208
Al 7.770206312819967 5.022776318268944 9.644676297655572
Al 5.0679530845202 8.120040195171976 9.249131940546514
Al 6.111306805271455 5.443048565145574 7.362909762243654
Al 12.390825383918607 6.1517302927855555 7.062774714674065
Al 7.426763947745757 6.182887309887471 3.568240561273198
Al 11.777147410291473 7.691178432018363 9.111260650874193
Al 8.00619326079402 2.550158261744602 2.6010513095455168
Al 10.090015886375873 5.6073947727361375 8.385844998616363
Al 9.549290776368599 7.10030216393608 10.55178975347841
Al 3.957491910615682 7.262505424046394 6.956492261246601
Al 9.558417233395721 4.3194886372701635 3.836134158572101
Al 3.8510210367897244 3.1842327668351516 3.547835847389443
Al 2.4898846788059696 4.6174643977495755 5.370805465069133
Al 8.557382965265063 5.933366176489291 6.123531786337443
Al 9.674421947049204 9.571375016261754 8.961866243157843
Al 5.576901214654369 1.6311511427166359 1.7715578990333194
Al 7.816658368273693 7.515192527601739 8.362793414966362
Al 11.035844669852187 6.437045218894817 4.77269943239382
Al 4.515196245310765 11.060470715229197 9.533270080155631
Al 10.259899423921416 8.010706387908765 6.8778779334345375
Al 2.7500075543975075 7.10737118715413 4.337573556495981
Al 3.7688592456982364 5.789952045377033 2.2437188626280444
Al 8.400154915748406 4.978702640911619 1.167355767966447
Al 8.8928137996819 8.245500158703154 4.623456593602732
Al 9.854761724892183 6.8423347758741215 2.399549395138307
Al 3.853593904540743 9.740694442179581 4.648383931343671
Al 7.722794049575816 8.683210875831577 2.148720584553495
Al 6.601900206303003 9.995193515515869 4.445934541936068
