53
Energy = -169.57826023 eV
Al 5.704297392940708 7.78013805209382 11.263856196948138
Al 5.242386071783231 5.348218918791354 10.342518568979033
Al 7.913754914632586 6.108473748283491 10.805725282313672
Al 4.648750465215756 2.828341849860628 10.368132654319036
Al 8.034441061631487 8.848085685975253 10.52254109161989
Al 3.82769530057902 7.841051829007761 9.370536860422423
Al 7.4572600821232236 3.4220537703927807 10.081490919962844
Al 5.683229821762594 9.897488628300188 9.33119512082414
Al 4.078753437876606 5.864395415229827 7.5977996965772325
Al 10.013325196552454 4.643425492685907 9.956098003433354
Al 6.572501981695085 7.0127900003616315 8.622094112792437
Al 7.905560139121751 11.42795957546754 9.457877806343038
Al 9.70645101189701 7.239342582899024 8.974627270686424
Al 10.335727072192098 9.971420147737394 9.390236129629276
Al 3.480394859342305 2.986058911756978 7.894317882668356
Al 5.96112113323651 4.108608783697412 7.933055180805076
Al 3.015013915800955 8.686919818366908 5.250653307173771
Al 1.6085556708440785 4.748575455120901 6.955109754059744
Al 8.354557552761364 5.21759294908655 7.719684900024371
Al 3.1718572009177994 9.961953440371614 7.760039140751097
Al 8.000062673536062 9.181505873030432 7.850455911568003
Al 1.9182310466233505 7.482444842617855 7.384897186758089
Al 5.28278512462836 8.51491304468843 6.937715468081836
Al 5.938479607617944 1.345385623632623 8.63266432763046
Al 8.110378684718707 2.4287897281412567 7.418502032275773
Al 6.731799047923428 11.34925330258888 6.9597312365450055
Al 9.578520868334085 11.527623833146595 7.2985633442321864
Al 2.2406657045447322 6.03457809900267 4.6476822103979405
Al 6.031780529702169 9.002434902869153 4.426239787128404
Al 5.005232854888022 6.580901112741462 5.17520369743114
Al 4.519095541273478 10.975044390002024 5.654172719610367
Al 10.681673843055345 3.6843050561568895 7.554204569068411
Al 5.549610787631328 2.091858748046427 6.078661091388028
Al 10.186231986283751 1.551207725086948 5.9708001559917605
Al 7.858391145308325 7.32392994808228 5.894552037842635
Al 9.66577098031815 4.078315508284658 5.120174637386097
Al 10.580225601494478 6.247251913395001 6.388348372903321
Al 6.946904991855895 4.767026361536976 5.3707539822832056
Al 3.9924056333230884 10.375442862562094 3.1082551078872087
Al 3.976727569061412 4.105616593093554 5.418457742689106
Al 3.7531028765927776 7.741039092183956 2.920186537391203
Al 7.9125644274604445 2.074606044133639 4.642345520495752
Al 10.457309497689982 8.825372229791801 6.789925562857149
Al 8.470535706624574 10.010914505359073 5.292084737511895
Al 3.963640416820605 5.110765259142034 2.8009303880673317
Al 6.6077973190864085 6.506932680484142 3.049005331298075
Al 9.435439041497599 6.398004640740493 3.8338963222159284
Al 5.685445101452895 3.081648944931628 3.514566507324311
Al 5.9861916127610995 8.96610784823898 1.7159279219397374
Al 8.134326146998058 4.192716681151497 2.902598806689966
Al 8.36769965685316 8.660863832242686 3.0197766863286835
Al 6.110532450659538 4.41853013700702 1.1796159722350859
Al 4.890877095911531 6.707843435835943 0.7375840616500973
