55
Energy = -174.60182887 eV
Al 9.740759287251311 7.9291321126866805 3.1972157920773805
Al 9.726464665142172 10.456757696516984 4.294880157052885
Al 7.637846728353682 9.610779283284106 2.899258872217589
Al 12.201464965426975 9.024336750544402 3.5429572470018047
Al 4.869338070687901 6.095941001093858 4.420210197067825
Al 7.268055282689026 6.94364445835552 3.590244883904046
Al 5.787095979867458 8.904789055077838 4.662211950700358
Al 11.456748660252696 6.409015192986763 4.683533240533069
Al 12.07426960644431 11.479340496331607 4.79227029506317
Al 13.998918045287224 7.299205041549209 4.551982708997763
Al 11.21923869933798 8.893555532785687 6.0802422256781075
Al 7.321196086797837 11.055085003604905 5.310182215885716
Al 13.802325117076752 9.771501457264904 5.786022319523131
Al 8.927896251063187 5.524044201055547 5.079928486748666
Al 6.581970326927596 4.051605528107825 5.565441418528991
Al 8.535748661431573 8.419960943161145 5.687664541430056
Al 9.412361047234793 10.838286679249634 7.135566766021361
Al 4.171151191026125 7.883345899786565 6.425468803675488
Al 10.153767106173374 6.471274875287671 7.2451617368815855
Al 12.010257923283607 11.145759848966257 7.510924826160587
Al 4.103590556899009 5.143627840084703 6.775551902179849
Al 6.653472297987955 6.704618486214448 6.471894724366326
Al 12.921218441479796 6.664264343322204 6.917353866904343
Al 5.133478298557887 6.381096017453944 8.958477451613575
Al 3.609523906550257 9.343802355432441 8.537812279960917
Al 15.359905306072035 7.899835509931737 6.8717775416067965
Al 6.279435718176229 9.392224833912843 7.407320462302656
Al 7.7245952858671405 7.456215786777675 8.904952723750617
Al 7.116306441321648 12.07452385517891 7.681557827863172
Al 8.0734833823433 4.81638984643416 7.723687717703866
Al 2.4685351726486706 6.693509747877087 8.209470048743375
Al 5.732545200701503 3.402810741650257 8.133195399547144
Al 11.938788243588021 6.542572802549973 9.430188861832946
Al 13.275390827756164 8.923614648298193 8.361908117303209
Al 10.465184804152553 10.975784014771888 10.280350703413673
Al 13.090870622606591 11.214282745361048 9.985399982910806
Al 6.878027343821422 4.666135873151025 10.178895557972597
Al 3.1944331890145246 7.5504654488580565 10.545679342565123
Al 10.338479103829721 8.729688242667448 8.636533146132388
Al 9.471112923488475 5.68741193327526 9.894570620350448
Al 5.689421572044664 8.742133179507624 10.238294667685551
Al 5.143404231602165 11.333988975028731 9.249247532251522
Al 12.091334270680516 8.791793341477153 10.774189392796062
Al 7.960061231051106 10.146004224037469 9.500155333332051
Al 5.380380581051461 6.309726048935958 11.705654697426509
Al 4.271134801605333 8.72589766210027 12.61569912651815
Al 9.479083548087003 8.151163017629116 11.215977033964299
Al 8.09371798330898 5.953571299859026 12.234456456956616
Al 5.909608444359836 11.003260286423558 11.744288235739818
Al 7.146710302536808 8.529564530641615 12.624919820508952
Al 6.290142277954982 6.3726117872795 14.17291423310984
Al 8.684261511392894 10.720821253559482 12.182249748791401
Al 4.295565777334356 10.971126235135488 14.130222219627067
Al 7.057466905600584 10.898525266255085 14.128180523098507
Al 5.622883814636753 8.720004783096678 14.956032035887965
