50
Energy = -158.8850892 eV
Al 11.07742314073102 2.5954692848018377 5.2121933936013685
Al 9.028985919613834 0.8588856429501387 5.700489760262927
Al 9.45593561799353 3.3615201523194167 7.31244846224092
Al 11.14434371227546 5.090080442357344 5.939460548086304
Al 7.4912010303558745 1.4255507381404706 3.4408002449731314
Al 9.30814023667757 5.479121862132552 8.882004736894835
Al 9.235025558155547 4.264823441217293 4.113833032324472
Al 7.5386471450940125 1.4634454121017617 7.911592006244772
Al 7.24405578136243 3.011241129873902 5.612847161532096
Al 6.294874182802736 0.3784724478482566 5.64740820732264
Al 6.965495306806819 4.408439445083828 7.882431099021944
Al 10.754942410955001 7.384451589129218 7.363790763569103
Al 10.251750080326447 7.103980230430681 4.441618429922644
Al 8.45169021280447 6.1319010106694245 6.258594147861103
Al 6.789159496993623 3.9052587362180704 2.91119419777923
Al 2.838364736475072 2.7817644779325654 8.807453300414425
Al 4.820019500845516 2.5202409330260016 4.511125187546392
Al 5.07269286627653 4.0996719173543745 9.833672017425643
Al 5.082236085046098 2.3585046191113337 7.324411806672475
Al 8.612763311244972 8.187855795569646 8.753206348321598
Al 7.908955057540345 6.446550112976078 3.2828331196265474
Al 6.994209331789635 6.125479840271592 10.08999307410348
Al 6.099384888753889 5.381297456464928 5.267438387164117
Al 8.981046958697997 8.95917287872435 6.151058430529429
Al 2.594893161003778 2.684918305224306 6.062764406621267
Al 4.273802878569536 5.1487648577816465 7.455793253669586
Al 8.773175449383766 9.09681503407789 3.3993696027387834
Al 6.3172496794951165 8.818015133211576 9.887499054897479
Al 6.319803998569103 7.234949590021226 7.5549517662316354
Al 4.41823540442338 6.8939973559813925 9.659584761354237
Al 5.313638504460901 6.329583943628214 2.70993751544672
Al 2.3687871694132703 5.300615483445865 9.628925744211674
Al 4.050728447935471 4.0328318867782205 2.4503949591854837
Al 6.932600282774673 10.183633430198794 7.604089450921617
Al 6.559128692387597 8.560441552915359 1.9842300033378846
Al 3.506431122127383 5.008322974421069 4.906634342013751
Al 1.3960198828253567 4.992866202333095 7.127591236054767
Al 6.4960554282877245 8.306699190823306 4.796242084881501
Al 0.8966955720317163 4.523939133121409 4.49903655003898
Al 7.556930242309113 10.984539175611003 5.081002269691728
Al 4.280771724212436 9.253360391185414 8.11768607889213
Al 2.3317380261934275 7.453277790783473 7.902757852443253
Al 4.2244061042975005 7.496896678404137 5.904297663738446
Al 3.858133134376487 8.605421476810923 3.4488722776105276
Al 2.493099299338464 6.2673735628806595 2.748122743034997
Al 5.648365884006531 10.801698245601148 3.171971835393685
Al 1.5308934301808357 7.0886895549677345 5.215329667948757
Al 4.950759311740301 10.39927123366779 5.804562882019055
Al 2.2797802080661627 9.497595934882073 6.0581314692475
Al 3.0597036423031096 11.16750169186125 4.02707354854864
