55
Energy = -173.97353716 eV
Al 6.02972618664711 6.029727207837749 6.029727332881293
Al 5.981035650272719 6.029727207837749 8.520761919106407
Al 5.96807251753297 6.029727207837749 11.208946083362548
Al 8.183236418346713 4.688346908477411 9.775968007725073
Al 7.866972324761046 4.357788240327605 7.134584508537557
Al 7.866972324761046 7.70166617534757 7.134584508537557
Al 5.29101261483623 8.62067399888986 7.129843489004354
Al 3.5469318011953463 6.029727207837749 6.947474654302863
Al 5.29101261483623 3.4387804167853178 7.129843489004354
Al 6.768439758457831 3.4387804167853178 4.92961346922675
Al 8.512521718333058 6.029727207837749 5.111980011459722
Al 6.768439758457831 8.62067399888986 4.92961346922675
Al 4.1924800485328575 7.70166617534757 4.924870157225025
Al 4.1924800485328575 4.357788240327605 4.924870157225025
Al 6.078416723021507 6.029727207837749 3.5386927466561766
Al 9.774259267379362 2.96671020231576 8.359286171998685
Al 9.774259267379362 9.092744213359419 8.359286171998685
Al 4.472899475823255 11.126035661509874 8.252692395991575
Al 1.184127170548193 6.029727207837749 8.141539254393283
Al 4.472899475823255 0.9334199003994836 8.252692395991575
Al 7.586552897470968 0.9334199003994836 3.806762269771007
Al 10.87532291027735 6.029727207837749 3.917915411369304
Al 7.586552897470968 11.126035661509874 3.806762269771007
Al 2.2851931059148582 9.092744213359419 3.7001684937640578
Al 2.2851931059148582 2.96671020231576 3.7001684937640578
Al 6.091379855761251 6.029727207837749 0.8505085824001978
Al 8.183236418346713 7.371107507197764 9.775968007725073
Al 5.347757543782918 8.478974521407352 9.813586191275077
Al 3.4773831499288357 6.029727207837749 9.702487269249946
Al 5.347757543782918 3.580479894267823 9.813586191275077
Al 9.993336764130493 6.029727207837749 7.925897465437808
Al 7.217213808780713 1.8420873374737525 8.364877803970748
Al 8.78363008682898 1.8459916665523457 6.072061565288237
Al 10.423365170046123 4.15567278350671 5.970346361865408
Al 7.217213808780713 10.217367078201425 8.364877803970748
Al 10.423365170046123 7.903781632168464 5.970346361865408
Al 8.78363008682898 10.213462749122833 6.072061565288237
Al 2.8438670531305696 8.683547047716681 8.373882039728045
Al 6.02972618664711 11.158294716293064 6.029727332881293
Al 3.2758222864650817 10.213462749122833 5.987390808005831
Al 2.8438670531305696 3.3759073679584977 8.373882039728045
Al 1.6361135666352078 7.903781632168464 6.089109450131511
Al 1.6361135666352078 4.15567278350671 6.089109450131511
Al 3.2758222864650817 1.8459916665523457 5.987390808005831
Al 6.02972618664711 0.9011596993822703 6.029727332881293
Al 9.215587612632174 3.3759073679584977 3.6855726260343804
Al 4.842240856982031 1.8420873374737525 3.6945768617916777
Al 6.7116948295111465 3.580479894267823 2.2458684744876645
Al 9.215587612632174 8.683547047716681 3.6855726260343804
Al 8.582069223365387 6.029727207837749 2.356965104044275
Al 4.842240856982031 10.217367078201425 3.6945768617916777
Al 6.7116948295111465 8.478974521407352 2.2458684744876645
Al 2.066113316695051 6.029727207837749 4.133557200324617
Al 3.87621595494751 7.371107507197764 2.2834843655691506
Al 3.87621595494751 4.688346908477411 2.2834843655691506
