55
Energy = -176.95844383 eV
Al 8.835313380217547 3.8860470667648497 5.978920677102225
Al 7.617775430809882 6.138061732586328 4.745400677437305
Al 7.450290964462622 5.148006781673309 10.565738475828518
Al 1.6302465285258485 7.787198186332968 4.773803356049824
Al 9.263280327541528 6.85540151430132 9.299544326244675
Al 9.064189606714564 3.8574976471108458 8.70536579888235
Al 6.645521320346818 8.081089203793814 6.381735260418076
Al 5.888445183958987 3.9003606763281136 8.721854758275457
Al 5.790493718685932 9.879529993981514 8.283016380693775
Al 10.473551083405923 5.717297919463737 4.721588940286497
Al 2.5186129626997444 5.540486601538825 8.823416916903271
Al 3.524377322331105 3.355394741884118 7.397621929086454
Al 4.007932565475815 8.53376183847877 6.1857681347607665
Al 6.470943236038565 7.678774644647471 2.7895541306470806
Al 10.934934643317087 8.407233804459267 4.182120716034967
Al 2.564312661383276 5.634705367057733 3.409294427541155
Al 5.775403046814435 4.200663778479617 3.347688942092343
Al 3.8006475756230684 8.200114155100378 3.0715176229343397
Al 7.5484495182151194 5.7457411293670555 7.473698833107361
Al 9.168347526865611 7.009759913479521 2.623972275217159
Al 4.646543192491234 6.0683473762165265 1.6177190735111144
Al 4.898877499757048 6.352596760518131 4.748362969531909
Al 3.896005217977783 8.083073325542989 9.204572678733953
Al 1.6869683513164888 7.730991993570179 7.5523528732970115
Al 7.281736411982154 2.0878010916742107 4.640930396103946
Al 9.282392573404831 7.595514995900549 6.433847152192397
Al 10.774818607702727 5.549900152697875 7.450252297776357
Al 8.477703996447941 9.327767690243064 8.412359499638567
Al 2.5181883654294035 5.548346764160312 6.093309761788262
Al 10.260694287393543 10.122899396083815 6.3747859683900545
Al 3.082754518251409 10.376623364761542 7.988233940985071
Al 8.316974141575772 9.075973004273132 4.252770519767199
Al 12.019817514119989 7.93239308107261 6.590959146004014
Al 6.546458302389362 7.512296719607094 9.269740072389888
Al 3.0212357400449443 10.44512877600099 4.410827887316905
Al 7.30278448288703 5.497678677815164 1.3735018896502265
Al 4.782146993421217 5.772431706642081 10.461579052066657
Al 7.5025527448100835 10.75526144201421 6.243789785856132
Al 7.3590408900474475 1.995206166630791 7.3178106025427345
Al 7.533980965385572 2.02879733940706 10.034787998736403
Al 3.447423461642529 3.399691337974247 4.751056894980735
Al 8.71559499421412 4.073647830864899 3.280626060545696
Al 5.707205923208955 9.765116533994277 4.283310052741205
Al 4.862232789854315 11.504662978052236 6.224743322920089
Al 4.849980669904226 6.150427649193205 7.484305138298209
Al 5.925340692924874 4.095393293399042 6.013684274649862
Al 7.114513602275817 2.2665284726106147 1.9438263371116145
Al 3.405729937879376 3.3288263319414444 10.05117777628315
Al 3.3469260151812086 3.4391768164712673 2.023546981787898
Al 4.836632904033901 1.4791772535876646 3.3184842838151414
Al 5.02406619976889 1.2988893736885447 8.93626123662408
Al 4.942252419622281 1.4213459775451491 6.077843110480229
Al 5.620650809041234 3.135439156505101 11.482826427490432
Al 5.462926423334193 3.7025185781469037 0.4240669462953483
Al 1.0568715239803232 10.006093661498737 6.233216777289117
