54
Energy = -172.88491746 eV
Al 12.531329856047732 7.3911915986503285 3.9006438288946983
Al 11.42820390830328 8.433159587392794 6.102616758641341
Al 12.831015016583882 5.969702667314556 6.2769942980857
Al 9.596381607934816 7.932985568503857 4.084682874630481
Al 11.283062223217906 6.760544716673683 8.383659734764576
Al 9.670209267478548 9.035564147160116 7.957739817478446
Al 9.51027716998063 10.414081258711576 5.6272479816822045
Al 10.792071891168638 5.436807325051079 4.555722661300368
Al 8.93643193026553 6.89487425410151 9.49982318221035
Al 10.571973766852526 4.34375026036115 7.077678683804148
Al 7.940069168063461 10.025819853280113 3.506014482320068
Al 9.203106868674212 6.753425629762539 6.561677483972811
Al 7.623691794274226 11.161489498800751 7.474540891305204
Al 9.388838442139997 4.026397193470976 9.56598522727062
Al 7.69589470098761 9.501497577858824 9.673511927755666
Al 6.198441692049301 11.041896848254142 5.19676532276386
Al 7.142560362783901 6.488779714292404 4.70798935659533
Al 7.127559754673681 7.623509823938132 11.451483201851158
Al 8.875982400617747 5.446756996844928 2.6993500043523344
Al 7.5781843081510845 7.728438344043438 2.1043860583514125
Al 6.325242007290382 7.3915649563987325 8.60052832317073
Al 7.640594205967616 5.028426675737406 7.7217118028800975
Al 5.835564844013134 11.56652241321456 9.506228287411382
Al 7.359890077478345 8.71951729377113 6.1996878011199446
Al 8.534278436912881 4.216158922416832 5.261002372658358
Al 7.1391084072206485 5.139293069079679 10.54630869050689
Al 8.710553224313944 2.3778840838501205 7.3107819427962735
Al 4.988663329415459 9.170588256117702 10.394406975828517
Al 7.558463042250506 1.728352345137221 4.881315499671364
Al 6.737963811233189 4.014111487974831 3.2352836954894615
Al 4.955840832296677 9.848381825537087 7.602263462181785
Al 6.8942080850805905 2.7904106885381275 9.314100425378713
Al 5.302181793942116 6.383007574391548 2.4180148778384276
Al 5.027227774132023 5.175361635740035 7.9584461370970105
Al 4.923428311733722 7.502600588871433 6.242425992009543
Al 5.637634123940242 8.650617082842569 3.802514325959313
Al 3.763296168249806 10.086889898628776 5.0152559257251
Al 4.809975598502636 5.1032792074582245 5.034056985634053
Al 6.028002740438595 3.0083812962394596 6.727929652399067
Al 4.691237289518443 6.505053042328694 10.78493853005324
Al 3.3542782756549405 7.7508619288654055 8.83795032800524
Al 4.769173965295338 3.8030085338512665 11.149610819068636
Al 5.024462514620631 2.269141680154325 4.377245801384767
Al 4.067302446771605 4.082366356769437 2.4940587034464707
Al 4.176747041505882 2.60993480044033 8.816221247614886
Al 3.274682084280994 7.386831327697877 4.035467777420944
Al 1.3636576218319219 9.403314345592996 4.1778702125129925
Al 2.2962867081635685 8.607242121853412 6.658481524518599
Al 2.7885017944062453 5.02348126731251 9.356823302268387
Al 2.673290010634558 5.941712297462433 6.77105928259741
Al 3.264461798514919 3.277830934137298 6.346467310921038
Al 2.436931232994419 2.268832729164026 3.6952903576393252
Al 2.07500100303628 4.818012199699616 4.389421609662641
Al 0.7002699014055572 6.994040901555933 4.982002872395328
