53
Energy = -169.55666516 eV
Al 9.13758493251863 9.195362720000343 10.781475774208143
Al 6.803117089393398 7.770725033076481 10.721982184790614
Al 9.212004522315947 6.534913105550906 11.017807034541663
Al 9.346837413642927 3.933977040519831 11.337125109806149
Al 4.511266505380705 6.182138459378924 10.770123016492365
Al 6.909202109954183 10.311476267676671 9.614206567103002
Al 6.916126928737853 5.079803505851911 10.972172515354991
Al 4.692279044256475 8.531624779807833 9.412824490281793
Al 9.36725578000535 10.308328329611872 8.379874572464043
Al 8.566483515138838 7.546847910552637 8.52961905088784
Al 9.003401497384168 4.78526975524586 8.744498097395553
Al 7.120947380111209 11.089965342730862 7.015505215476788
Al 7.559811441846881 2.5868620867172845 9.985827820394857
Al 6.040915218964284 6.050493547498685 8.436910361726893
Al 2.3158116837159444 7.25771311890455 9.476842613997176
Al 4.732817847555574 10.917134371480639 8.173249166531647
Al 3.0824209828699316 4.894935230644379 8.602104149556288
Al 2.580982165585128 9.367625493882331 7.907313327902037
Al 6.292676123186925 8.432786318369148 7.038868084196528
Al 9.043567951937513 8.668293915795823 6.206787466288206
Al 10.085153951578238 6.181919870395008 6.549356023530024
Al 5.028368096127032 3.595741390132748 9.724906677757774
Al 9.561830534650245 11.351652672917075 5.949966263890032
Al 3.803940969786827 6.968459646341918 6.994223180458419
Al 10.086680830785644 3.544266660888665 6.414911707114067
Al 5.870909777112864 1.1480357104722405 8.588821976355712
Al 2.4961231730478946 8.852164786979172 5.266622937521332
Al 9.8762226939103 9.892211000274518 3.8040280863096028
Al 7.5668482732017495 5.041144224571879 6.461269262647255
Al 7.996450183938161 2.2998687626894148 7.306626815562453
Al 7.261822815111932 10.024329357864941 4.6138492019796855
Al 10.449846680109049 7.228494962807194 4.150568058381142
Al 5.545211796792398 3.502651506151625 6.9896557046310885
Al 4.772337742012283 10.511599551704421 5.463631119540791
Al 4.997965663043251 7.844322675594952 4.705035432084271
Al 7.548673882560915 7.035864816656033 4.6236577892541755
Al 2.531641623442751 6.318074931951777 4.53480943250135
Al 9.110122288822748 4.699264234413825 4.218699019452377
Al 3.3755520415493763 2.2007514080295385 7.773974556023866
Al 10.582475359394396 8.398829030304963 1.6751914280034987
Al 5.331127609924716 5.15611417483127 4.72557651006797
Al 3.0492288905186493 4.2344856273017575 6.009832890145361
Al 6.251522432344197 0.6284377328294813 5.9977406919784055
Al 7.031423548608575 2.855600854939278 4.638198448818716
Al 3.297505304930087 8.124218071524291 2.603177059651897
Al 7.920666459018304 9.034912532921021 2.1982641734438593
Al 5.313965818415125 9.839512460000725 2.804201348613449
Al 8.752582313986041 6.4205071835034415 2.1390720520954853
Al 4.227686531088746 1.9804934405796282 5.017293845652678
Al 3.9367683230665316 5.530977603881289 2.2669682735087084
Al 6.952126739234093 4.511100659185224 2.3585813572346095
Al 6.0336574634012825 7.154073925242567 2.260609784331203
Al 4.793361004419808 3.1189531492578695 2.7208732224970547
