55
Energy = -176.21250362 eV
Al 10.965952055660148 3.9672615522951906 4.349852557341904
Al 10.939073416412864 6.3902143376691445 3.2415838874535092
Al 10.548338259445924 8.97136272693792 3.1571369340878213
Al 1.8170258427919346 3.1138519491123247 3.4003002891035687
Al 1.6654047057418822 5.7706395259514975 3.5261498103209217
Al 1.5658496786805114 8.37933684419804 3.4235564433091645
Al 4.2943770744632355 1.8364999704056464 3.511426878061478
Al 4.145290621769729 4.489732284035644 3.890743300301748
Al 4.002562115956474 7.099926623539252 4.074969213675816
Al 3.855153671024274 9.697748556628238 3.6698941611504745
Al 6.55514191705197 3.3270133994108 3.4370825518275026
Al 6.789927141508992 1.0028557623121703 4.931544780225382
Al 6.219251382071645 8.622349605062144 4.6530526845395155
Al 5.9691385160747945 11.229189725002458 3.5620462074672945
Al 8.956006963030323 2.3489781955909628 4.362630124151411
Al 8.590141528058156 5.013107841619714 3.152846033257042
Al 8.78797154866511 7.365387624363756 4.631932752789745
Al 8.335924584031707 10.146809103893066 3.7845838002917342
Al 10.688029256241798 3.512823531137586 7.135949724849048
Al 11.19631778928496 6.020879362859992 6.054787854846159
Al 11.732706329434636 8.50805398762321 5.427964531772523
Al 0.8339091933495686 4.679008838431046 5.9035020865315495
Al 1.5674640715093984 7.305117025846778 5.931717179926902
Al 1.942963975047928 9.9830493154443 5.670816173601335
Al 2.9039098309578715 2.9098668268936367 5.8115933633083845
Al 3.7588668395983973 5.547467207486306 6.461765216422666
Al 4.131275371834136 8.335138231221546 6.409224271405505
Al 4.400797206430527 11.048577863829971 5.95350319067798
Al 5.669235490569307 3.2501697352702266 6.100973972835014
Al 4.252272515685716 0.5885296536658439 5.914150251867547
Al 6.710719872754788 8.587081561839806 7.39185315448778
Al 7.10670929621917 11.06309828069007 6.074750029540435
Al 6.207366535439101 0.7659839968904626 7.712518706741851
Al 8.51998850719855 4.784953381339572 5.851047761737582
Al 8.896887979031376 7.039378774828764 7.344441819693753
Al 9.402860471091591 9.57336100118819 6.289770645464914
Al 10.978544397221707 5.720709745428445 8.803966415746341
Al 11.34407320534334 8.280448166894189 8.039504467136153
Al 1.8028389140794971 3.8997160267569377 8.275824001474168
Al 1.9335399825993989 6.494691629889404 8.516414028709777
Al 2.2276475525698047 9.097710396380041 8.21471954333066
Al 3.959379410128612 2.261007684576426 8.18038016368862
Al 4.216433864282122 4.887896001492356 9.142332917745673
Al 4.55937793450832 7.507153291688211 8.967355522959167
Al 4.673532595172017 10.221003027972982 8.528292022051364
Al 6.356063037529118 3.2667914347454516 8.838553379891355
Al 6.609643759808144 8.700010857370192 10.276595691437272
Al 7.187057521130609 11.013588074908139 8.709917086907518
Al 8.32743169020119 2.2296796346718817 7.078654958202046
Al 8.572180216606535 4.57696138802745 8.609426822418305
Al 8.96929046679678 6.829241608657427 10.221220633953113
Al 9.074159317721275 9.260633185465826 9.099960619202257
Al 6.503326815475723 5.7035330229305625 10.207193755525418
Al 6.311380333700489 5.817363931138099 7.376089271350148
Al 6.386511188666033 5.874280444151076 4.629160110864897
