53
Energy = -169.58465985 eV
Al 11.771189698997851 8.459931212056054 7.649295131063788
Al 12.700879748316815 7.663824914954912 5.276463136139941
Al 12.124747183346106 5.719951262870885 7.153008899826698
Al 10.248429249666746 6.790831715803049 8.958207381496562
Al 10.445277939372643 9.552142343620915 5.422112809737286
Al 11.34572724781134 5.599876725525939 4.1971444936489375
Al 10.654018196668831 4.04420489741493 8.700581726555153
Al 9.809745057197793 6.967841657315349 6.176969133546522
Al 9.20706666370051 9.24453803246202 7.9613825418796225
Al 9.395857128569803 7.343301461595878 3.3964547146559396
Al 8.650462495156576 4.925297097724757 10.32415292940786
Al 9.912937127081168 4.168145225628799 6.063171490919829
Al 7.527333160559763 10.13716879924795 9.942857657909213
Al 7.433813684507744 11.139000413470463 6.851065085552028
Al 9.047805996173981 4.405038407199005 3.4628048058626
Al 7.564149363320053 5.971780679420522 1.8700011455738081
Al 8.002117172153401 5.528675337769842 7.690534841050562
Al 8.90704688256118 10.084018594870319 3.2703985022434763
Al 6.557201645762076 3.2479294260590055 9.962508754090535
Al 7.8746837863998325 7.4675998331148286 9.854237998001524
Al 7.345081864212303 6.053193052887174 4.862968733310034
Al 7.835565416650633 8.722854880608411 5.425521500246552
Al 8.435818221487633 2.786398379505375 8.015627199882562
Al 5.290968777134993 10.952498519976851 8.66556525094012
Al 6.5084074443995 8.725673965021748 7.727416589021233
Al 6.841970769817063 8.356434373826023 2.823086261658506
Al 6.500611436867792 10.753890076177782 4.093137876417603
Al 7.583612681035373 3.0490323662169425 5.348050490473804
Al 6.476790901644902 1.1781164060282348 7.049041321558013
Al 5.50436669692907 6.373195600051835 8.203357905261825
Al 5.833382785027649 3.853764689807754 7.388419562787167
Al 6.076315640460167 5.830547895861821 10.991249453878934
Al 5.198331179644935 7.682100545053157 5.531644641035951
Al 4.14389653894248 4.4071634514858635 9.597802453681993
Al 3.685505356442399 8.907117603648631 8.026447734697598
Al 4.49619262557752 1.8761030857664978 8.75724933294224
Al 5.014487429759713 6.373325010940043 2.5990830688465
Al 4.791057314998753 5.107635111507543 5.23488259109324
Al 4.735673453535424 10.468231291666921 6.068449170961746
Al 5.2959400856338865 8.39604436346013 10.291516973353236
Al 6.29644937084459 3.993487441224418 3.213443755569379
Al 4.805078912570163 2.4365413511936524 5.19659487385219
Al 3.0745806262233044 6.3480594559161245 6.81101684231338
Al 4.269406890515384 9.126397052215701 3.387508102219758
Al 3.054067754286329 6.801416970700917 9.650092343637999
Al 3.0268984647719197 3.466743941058964 7.223851886036182
Al 2.576513628178578 8.950571255790043 5.537282515023281
Al 2.8223099031451326 6.808597402710126 3.9138466666789897
Al 1.1409950067456844 7.8914818552639145 7.870404503616488
Al 3.600734059709362 3.96697915005062 3.0027721976722783
Al 1.8754574124198247 4.477754722349428 5.035843314822611
Al 0.7078055400367366 5.0987376454071525 7.485442871276525
Al 0.5708858518094067 6.914462517275621 5.383678304851748
