54
Energy = -172.0478225 eV
Al 10.58419070417434 7.831859552322059 7.770540629657245
Al 6.502000403544717 11.908311633188982 7.298839728082195
Al 2.81562579760827 8.740339496422727 5.102709280974597
Al 9.94012675981692 8.301300797918286 2.888045882175606
Al 4.9629779009855275 0.3926829222637982 7.8690371250171705
Al 1.5013637191895008 6.742564437287348 9.074720506018176
Al 8.02140223026401 7.576215162155011 6.9857285772929405
Al 2.244005638258407 1.7397014325563929 3.907939040209472
Al 3.3934452530997667 8.59585124550307 8.039979051568382
Al 5.951635602798012 5.7119090303953115 4.423229694755251
Al 4.429255817994359 3.4064906429694104 4.4375378628976705
Al 4.4671953671297695 2.8423955216506354 8.927867965875384
Al 6.021208037510703 2.417117939384229 6.321186177353563
Al 10.15066135131049 6.7137276358008755 5.1011426913653395
Al 6.23396703396132 6.770376644331644 8.865235329392833
Al 7.867743017156533 4.978125408264366 6.063431755874598
Al 2.784611985529589 6.376330753549617 6.539501732257368
Al 4.942708447861062 4.797974726668533 2.050114761660365
Al 6.113275542756141 9.405992477391365 8.36646859090811
Al 5.293298870397754 9.088920287598272 3.708682878419007
Al 7.039692467773241 9.754178880513118 5.814740312999333
Al 9.870094161331801 9.342678421647566 5.48289048557915
Al 7.554064129103444 1.2076244167688104 8.212929011376753
Al 8.85047945854827 10.23952186422075 7.91594699526305
Al 6.871981216628349 11.908311633188983 5.967859153862147
Al 6.29216591751005 1.3369215914160193 3.720596346346074
Al 8.53278888660092 1.7580930192311617 5.314955924785233
Al 6.791176224412578 4.024837165712979 8.592583203897762
Al 4.88342927326911 4.809979507229326 6.7318569997416775
Al 4.458337390733028 10.474098081469691 6.26419037805272
Al 8.794557960604907 5.71982148477884 8.814443602927058
Al 8.852397261668553 5.807337254054663 2.852218431984831
Al 7.68836275699341 7.69883153761905 4.33647956477312
Al 4.269661341789897 2.163592950311649 2.0202216838509113
Al 8.458894936220387 8.269852287985513 9.682091855421184
Al 10.879886354522371 5.172515791012997 7.096752785205255
Al 5.239697690314843 7.598161780475979 6.245927943626069
Al 4.276454262386714 0.2761032121528826 5.118136038952261
Al 1.8027891655287511 4.029213115604105 5.3388218119400985
Al 3.1429149399336733 2.0950767330740123 6.6491067564761215
Al 6.371990659320635 7.051475498182014 2.0430123396803976
Al 0.7701001642906694 8.296342283126979 6.860097343105914
Al 0.1353890302635264 5.635820050504609 6.8866248848148865
Al 1.0609171181728365 6.535175176913237 4.366607011349431
Al 6.185027308432294 11.9047525082865 4.347776059920694
Al 3.6131690724072025 6.644811905153676 3.6093195119504524
Al 9.232824822226059 3.1664804152657244 7.567635310440267
Al 8.792268030682063 11.882460970096533 5.675147881946108
Al 3.964867929092628 5.633227835635073 9.27574223603451
Al 10.047573392399373 3.9352171172359203 4.733963888857753
Al 2.2535938606593384 4.3867382485990065 2.679641333202848
Al 7.4291906499653555 3.6533221118008234 3.556525294863245
Al 2.105354717443675 4.151053071711011 8.077395641040543
Al 8.241863310087998 10.29071076139936 3.3848053948803436
