52
Energy = -165.61113496 eV
Al 9.033396875926135 9.82243507519538 3.9374026594780878
Al 6.693730467992855 11.592895782254732 4.43416160823593
Al 7.519817785447754 10.594117327158662 1.8991093557941632
Al 10.155414351229176 7.179417938451067 3.777349046027285
Al 8.188348350306466 7.755536288285806 5.72405811788035
Al 5.592826701443669 10.144443184247402 6.654613934032816
Al 8.174214200340261 8.035375610868584 2.031933510735116
Al 8.294510444657503 10.460293153495424 6.454946458150551
Al 4.906285460021357 11.034878167312398 2.2014171873424746
Al 4.0469405092490875 10.710015597609322 4.6357970115461855
Al 9.917143737441021 7.11390118655504 7.773941399322763
Al 5.578623202312854 7.136612724011393 6.44939839596181
Al 3.7717228687302597 6.329087956299913 1.3378811205597225
Al 3.401360185356429 8.79442470199954 2.8340327669113186
Al 4.3889656199444795 8.709130456728165 8.491026471602922
Al 8.098240139353967 3.386383164143294 5.124993398783366
Al 6.544268607955942 5.909123175904046 1.3888969803219544
Al 9.18721171141838 5.556408770143203 1.751214337265888
Al 7.5741902783982145 5.5741868589626415 7.274992003775877
Al 3.290099496515484 8.340249974385067 5.78752354856634
Al 2.1042527985384925 6.750363195072622 3.7669279213659723
Al 3.0043271834600302 2.6514071739030345 9.98770410597965
Al 5.589870629471588 8.45894782380977 1.3666763604399683
Al 3.9236368217375177 7.420616239449679 11.043796614283528
Al 4.537318157538916 4.636627293361028 10.878277183260913
Al 3.379880201658846 4.38720951584208 3.3899767508391174
Al 6.38808672200741 8.624633124332343 10.662327053903873
Al 3.0272806893335114 6.329464553146557 8.644778720423437
Al 7.375482625562225 8.620677839875396 8.190551106875999
Al 2.034136920152613 3.6626871226172706 7.740552377107667
Al 6.225460596329516 8.948788377667642 4.0607373365785735
Al 6.526636446407237 6.189856713178584 11.768459148960407
Al 3.2831992802182155 2.795660358262314 5.445825660295098
Al 5.753497889082082 6.43853762954045 9.13140574481962
Al 4.959281363471872 6.60234980813015 3.7760987962626933
Al 3.02677506456882 5.586281957511447 6.009779705090822
Al 4.6406058278619895 4.209399725148005 8.198525489472589
Al 5.536054182426212 4.538264251585698 5.609210869339039
Al 8.396410234205279 6.57468661263867 9.86892842106048
Al 4.068046529711077 1.5394312519228333 7.700349159811169
Al 7.654082890756847 5.842855927983265 3.984392085638126
Al 6.734307673274 2.8968650327234804 7.492650583186619
Al 5.838130218625243 1.7274572318992865 5.231876229427289
Al 10.61233957344857 8.972925634264943 5.8944316611837255
Al 6.049147477367877 3.8244070423031595 3.083330382949956
Al 7.236177068298262 4.131886179725411 9.895161665261197
Al 9.359176279089137 3.587557495771145 7.969125093957169
Al 5.593538190304172 1.9934623506256486 9.968928592841692
Al 8.481960861486462 1.1354222799434064 6.509889229350592
Al 9.907130412181175 5.340372817290946 5.754012846223825
Al 6.3246842015612685 0.18560506451483355 7.801115215683292
Al 8.263625678649836 1.442308511654421 9.407305154283492
