51
Energy = -162.00545972 eV
Al 1.206163737002648 3.2514514694211463 8.34425640044785
Al 10.799337514737127 5.15610624843634 7.628850195859524
Al 1.0813081102915247 6.046786766748499 9.715663194944849
Al 2.9732281697235745 2.4494809423031167 6.29443611354809
Al 2.8539538613961466 4.049542816678031 10.5314234970883
Al 1.364853897528598 4.615947057398735 5.7999732982827
Al 3.7188794852916494 2.1894401804037495 8.867439896568943
Al 1.2078694846051115 7.100026636700517 7.043142998418715
Al 3.293711297238591 4.193203565048197 3.9416972125889327
Al 3.124634623894309 5.226994159723551 8.025967191272128
Al 5.026062158530107 2.0846200686344747 4.69251951864
Al 3.5185611393681673 8.71333028809975 3.5497001378185864
Al 2.978965182104015 7.933126924610488 8.998678819354572
Al 3.229080218797573 6.551177781431383 5.243854576351593
Al 4.393872957091619 6.2560571857808265 10.464391671426673
Al 5.667147782462585 4.064960596020774 9.339692837217063
Al 5.670101387636624 5.977765443695737 4.1487720638683845
Al 4.964527428775843 4.500840642732246 6.272861123922641
Al 3.94192582871789 6.124592143081993 2.1081728149681416
Al 5.928484437030653 2.1572338398439483 7.345623687225153
Al 2.7978140369837554 9.064428277116594 6.275170878682013
Al 7.209156663767785 1.6937658038099008 3.1367096848209246
Al 7.619746411628677 1.0144534188664756 5.666442043333962
Al 5.485488875239708 3.6905737481700633 2.4680700780407934
Al 5.341008394870734 6.808283141290446 7.8249504369299245
Al 4.609531963583299 11.02745513650607 6.0531138337629775
Al 8.4971687662469 4.128677131935818 9.565082468932165
Al 8.803476141534476 2.886214837785129 7.232382710434227
Al 5.3982563999894575 8.34317112400674 5.541402693007739
Al 6.638877086022332 5.849358799151293 1.3869681808215317
Al 5.02040227121515 9.584471758365666 8.259601349178851
Al 8.397400328350603 3.903359992121967 2.4689471622257306
Al 5.901417261283133 8.22698247839562 2.4718656298566795
Al 9.77819043322864 2.7848741160687545 4.721870969267854
Al 7.077396782805822 6.331577972597664 10.020488127967313
Al 7.224411448736274 3.8730332934176 4.982584500322468
Al 7.320762152856242 5.126834354097033 7.413171171282143
Al 8.272479980013825 6.5020496664136616 3.620129905584077
Al 5.868397008691688 10.521373263643218 3.8462479839328996
Al 7.769727868321421 7.398834697820726 6.166268134413183
Al 7.282899854975928 10.200654673549568 6.35419637794548
Al 9.707952192001958 5.243248277006479 6.098639769281107
Al 9.52382767638071 5.853500506044197 1.1351007976185488
Al 8.253164361068798 9.273890655774409 3.8909155190662488
Al 8.203128983284182 8.20507149754585 1.2585172336730612
Al 7.448501161943291 8.572363162336597 8.698928218969085
Al 10.799337514737127 5.301366297801344 3.527032569401312
Al 9.457298781688118 6.658253269179023 8.42689646584705
Al 10.275336045218161 7.758150092849901 5.122961000731202
Al 10.600576021432948 8.058474659310926 2.4398642487396986
Al 9.608572589849535 9.201391710016791 7.279411468803267
