5
Energy = -10.29605068 eV
Al 5.929205641666 8.738032104056769 6.981461952565733
Al 8.719269074217022 8.769800595728293 6.926161912183612
Al 8.76311507520182 5.98137835724935 6.98431670936288
Al 5.973989305958061 5.948840753427613 6.995157921747757
Al 7.366773228051961 7.382736673994118 8.716818769597502
