52
Energy = -166.07470847 eV
Al 5.226343074108823 11.689479712497176 6.039968175657274
Al 4.314835640457063 9.396197481966878 4.562965177103867
Al 6.8115819002227544 10.289449352572296 4.37180438067633
Al 5.785092100737627 8.458184574792527 2.404502461091284
Al 1.8476696577952132 8.406241341191379 5.259019128033816
Al 0.5299320224018544 9.682685025431159 7.275934085680029
Al 3.055074802257825 10.4308502903766 6.704484944211492
Al 4.896321427076534 10.66428630974408 8.812323312052548
Al 3.505183018915376 7.011748996985858 3.5633328268969833
Al 7.74706598336086 11.251969676125677 6.893093623114146
Al 8.463372051771026 8.4126826877752 3.4058874754251462
Al 5.827160254223358 9.087607540682624 6.81824929690448
Al 1.0149471479015668 7.002702881317433 7.570357099790072
Al 7.547650758116683 6.113121011896991 2.5676790379090266
Al 6.125069360067124 7.256675578998127 4.843518365556048
Al 3.7423028804238125 7.2798907798819075 6.80226532489967
Al 9.490222314279514 10.396218239385808 4.938120313694631
Al 1.7797802474541813 5.606451849730839 5.440440759808892
Al 5.173596881170092 5.113106729253153 2.618485365885535
Al 7.34836678689492 9.65198463486115 9.050320856066918
Al 2.5579890058872916 9.0045100318182 9.005699281383881
Al 5.105311788096458 7.955353511824555 9.24225419571574
Al 2.651765623023013 4.266471031319669 3.2423915357656123
Al 8.432090437899713 8.399825332536759 6.6813957673745765
Al 4.486555078879613 5.073223107610047 5.3510728624798185
Al 10.74648841625083 7.93237865043328 4.853945383681293
Al 8.501408801900103 6.149507875177546 5.261839195595793
Al 2.7314232291686142 2.9494021163096735 5.692665545272131
Al 6.028590621387048 6.003453759513254 7.493420962385098
Al 2.941039633794259 6.264307144947865 9.299198355968036
Al 10.241368874836256 6.229361932353555 2.8298191922479936
Al 5.02464560897257 2.8151683286905196 4.015175523318382
Al 9.792095421834786 8.620061039842827 9.147639671545875
Al 6.897480840740338 3.988004931923654 5.822535160884653
Al 3.875300721518959 4.174797490943672 7.923794992527188
Al 8.875035472356558 3.9499606636774045 3.7327364558267795
Al 7.554628187502747 6.963784992033671 9.523858264037923
Al 11.09919883359779 9.50181098072918 6.974876868579314
Al 10.71143407250634 6.795764055763735 7.328501994339836
Al 5.309665316416335 5.2804216297259705 10.136195299648858
Al 8.518754152839737 5.118142499627242 7.8646398625676435
Al 5.004579165041515 1.9625795054625734 6.672687410031475
Al 11.01859965966886 5.020395583548635 5.333402745256703
Al 7.529061664354116 1.7075192804568413 4.385657918960624
Al 10.140072483095157 6.081610023205076 9.921468276217725
Al 6.378195111818842 3.394001765319785 8.623862619387461
Al 9.464850542175842 3.0755811902661843 6.257531906360022
Al 7.901059288904385 4.493275084674786 10.690631431469205
Al 11.229639931433455 4.205336712474337 8.100444405478969
Al 7.541000700365278 1.4063643169077564 7.05331476276705
Al 8.989650684799708 2.6032358393534354 8.972820202951873
Al 10.673422404655364 3.5968249814200113 10.805740024874018
