55
Energy = -176.4796533 eV
Al 9.178585650571248 3.7556296115184185 3.7042474565995698
Al 10.692678797724472 8.010766487321723 9.151318549991453
Al 5.974506856403772 5.919223567331861 9.241344691924555
Al 2.5659408436887676 8.502783499049738 8.976669752852768
Al 5.652568455439925 4.8671524958728645 11.781744706503284
Al 9.736252295039442 6.5178166389426755 3.038823981902958
Al 11.0650254132837 5.330869124118344 8.153550449493853
Al 7.238284118314696 6.949944580939657 11.680844895754182
Al 6.476707383712244 9.498356323508593 10.96725072718144
Al 5.48613604993565 4.989679434821654 4.250507303238693
Al 8.655133916383122 10.704078700064102 4.797658350399547
Al 5.7393384198243345 11.346492999544093 8.887117740423017
Al 7.1487627030235545 10.235620082559063 2.4557354319471725
Al 5.219104285813925 1.7062478013885864 7.178320932537809
Al 3.253096353327099 4.548852398908846 5.695052162361869
Al 9.65857583958963 5.973713030060579 10.555773390611698
Al 3.6375180692771423 9.13661498040547 6.518378192818561
Al 5.822224700834699 4.429342608267508 6.953929010364841
Al 7.93213817464553 8.10512696080219 4.410705054983234
Al 6.588632973544536 2.876788181275474 2.7788495045162467
Al 10.6547186225203 8.697495398278347 4.9883696212469015
Al 3.2513075130157865 3.43421372962151 8.110923526558876
Al 9.124521426606812 8.817735128085063 11.273533580081947
Al 8.290423383667568 10.686418277759122 9.311450771801956
Al 4.92542665136348 11.603089459760584 6.3383660599610865
Al 3.4904775152538456 5.132996147514465 10.214272063510963
Al 7.925753845225981 5.4506884015176835 5.33133341616117
Al 7.288898111054097 2.5120759533711983 5.373232597384177
Al 5.53666373772054 9.533379148609626 4.612783384141599
Al 3.588076936464088 7.122102614640991 4.746745252192699
Al 5.682719473139814 7.385268618000792 3.066133315095522
Al 8.245110301798578 5.16418124402726 8.118567387491042
Al 4.463341026776879 7.538033279228562 11.11815964443296
Al 4.684296152879385 2.4369551532773572 4.598078151888549
Al 2.9940622215057164 11.335050707549444 8.273336612616696
Al 5.4731144787598 3.110007032736732 9.64942513798905
Al 7.868708322169423 7.829921793246722 9.031017774505623
Al 9.602528221491305 3.3820220093882263 6.401621226717858
Al 11.975751715102767 7.404365986573714 6.848027518986682
Al 7.871180067501746 3.932756659945692 10.636019049152434
Al 9.171040833975088 7.301033471298916 6.815291579022235
Al 9.939334367217603 3.14507638803061 9.120381558183114
Al 7.0325711060391205 9.522102615027952 6.909735901483797
Al 6.455814701488667 12.174197311650733 4.270287635384991
Al 7.635423955417291 12.142020644440384 6.964187813698652
Al 3.9379735579528554 10.206672303894818 10.598420693795955
Al 5.276548850725487 8.547115427244158 8.641297034345143
Al 7.602675793140074 2.377443354066918 8.108528805265683
Al 10.864134354505657 5.485484276823067 5.240248615648822
Al 7.857511128470064 7.8017372654371915 1.3064692805698426
Al 3.732603083937668 6.470184944486053 7.599146720582404
Al 9.74459747948255 9.299230669410852 2.6187988281114025
Al 7.370017803163926 5.34165836810351 2.225059566329944
Al 5.940486872445098 7.160673919094327 6.104415295335446
Al 9.734000874473798 10.064538577986365 7.211538080747899
