53
Energy = -169.31323562 eV
Al 11.051528794156575 9.627176017932578 4.989832836793453
Al 11.263582190078573 9.384570117431469 7.696689304107273
Al 10.967675353781711 7.095169560888775 5.998732688206599
Al 9.694993158047524 11.560532438692725 6.263318939063615
Al 9.025423785803671 10.71457181747979 8.732538679559681
Al 9.551498315737216 7.778440137155166 3.6780970599950384
Al 11.050625583891751 6.00322667252843 8.63575727654608
Al 9.29934802435182 8.013464025551498 9.22987501792408
Al 11.089818264526958 4.372494877847533 6.466945042909308
Al 8.820804868181517 8.809107108178996 6.690585421006197
Al 8.219517846908822 10.06992055406732 4.381017509107879
Al 7.047115393508458 10.932188908314098 6.801780918717803
Al 9.385731278956202 5.147215533080385 4.537475022000196
Al 6.764650999585008 9.513562820734071 9.577063272091742
Al 8.02399147265147 5.972985018021071 2.3448955424579574
Al 9.769956072447618 3.344087030170511 8.633827111587907
Al 8.876748390305812 5.448450596294753 10.230283934689442
Al 7.587315088934661 7.475332381350007 11.236840286617758
Al 8.7365222805335 5.9122345903384135 7.181740691524932
Al 6.656776800224803 7.068389023154415 8.385628597009454
Al 7.415691589935114 3.3942457888252164 3.7010061141576998
Al 8.574108449426449 3.10736098695635 6.209292215277002
Al 7.345997907068549 7.181423479198665 5.230073797281065
Al 5.626153953495958 9.457639963114058 5.041693765061572
Al 6.766234727823652 8.37558087693221 2.778846154783569
Al 4.990780112993033 9.327894114736967 7.598962321268252
Al 7.098793481202705 4.253175329724127 8.476491905313015
Al 4.875464831242194 6.947408057541529 6.1464743625678135
Al 5.075396178772522 7.933759958398683 11.60098184633043
Al 5.262526651828557 6.719515705812948 1.158294930046326
Al 5.738483466218349 5.452359680079788 10.606436312649606
Al 6.378387847489395 4.145950353977799 1.3253269885314873
Al 6.589417590217143 1.3693957102172254 5.422509733523841
Al 7.37390097805966 1.525183924599436 8.128965961763564
Al 4.1342295789020955 7.934239811451697 3.446984318875016
Al 5.647334238646157 5.618631005984645 3.6662461104494035
Al 3.9707412287115758 9.890170959251785 10.10960572435151
Al 8.045437945448013 2.7505790822951206 10.597957697147063
Al 4.028147466974607 7.262164927297328 9.236214885406396
Al 6.275130313964631 4.615594030475924 6.015338765732516
Al 3.0191543523000757 8.991123255103526 5.656377463501653
Al 5.379532496253826 2.7512055668072875 10.059209104745689
Al 4.5233065343621215 3.0664655865504824 4.519224688154933
Al 4.8499336943712485 2.445231447234836 7.32096780601454
Al 2.258656165601444 9.06217680103774 8.229707814979866
Al 4.489128329313411 4.984709839031638 8.097079051904378
Al 2.466120747146176 6.453773415910737 1.9641852529070725
Al 3.865196113813253 4.187532200621327 2.122546689721181
Al 2.257479333261803 6.375106916814512 7.006528435519623
Al 1.349304601924481 7.4899273839650915 4.087059977255567
Al 3.1090589130922135 5.4334003333600265 4.520894784139745
Al 0.44567946033383304 8.280285981232046 6.442979831460161
Al 2.641020508906452 3.723222047961442 6.532163788976452
