52
Energy = -165.37626239 eV
Al 2.873386791485066 5.161371787399162 9.947130694971497
Al 7.509079825016051 5.438517671863372 10.721191175326856
Al 5.94326570162893 7.66719139613159 11.195464876520536
Al 0.4809631599419594 5.371258961625732 8.594381773320071
Al 8.835870050356933 3.1269853083621357 9.841289180392314
Al 4.667750207004285 3.3403136788216985 9.051287767424627
Al 3.4431535896012084 7.832635160411233 10.047356481018333
Al 2.4784202832890316 3.7011171550015565 7.565712315829638
Al 8.170599529108419 8.021174240140638 9.711319191448895
Al 9.469925407928187 5.81457657318306 8.983964502479248
Al 5.342877210982971 6.1271912976114855 8.975559363618348
Al 0.678351491171569 7.891162190586221 7.469403111323954
Al 0.863668810891646 5.473070181819335 5.938358150123545
Al 6.723677705784205 1.6345593920669235 9.009871413638948
Al 5.781892820995272 8.867795265034724 8.74156394129028
Al 7.085984666721222 4.306212368354408 8.237750544432844
Al 10.732827094363167 3.649247475088961 7.981801791552138
Al 5.977761873542486 2.217138474117379 6.4852645784792395
Al 2.9706430096025374 6.403299403483311 7.483165366543862
Al 4.9756465756717265 4.7980858115753025 6.550788508207981
Al 3.0840558959944353 9.145578601021652 7.5731912680192774
Al 2.8374887804465967 3.7899625219850734 4.987676477192729
Al 9.989370683852353 8.395900253333048 7.860975048553019
Al 7.569485582757305 6.870652533664891 7.226615491515875
Al 1.911507664058338 7.90060449620573 5.159880744608759
Al 8.599563758513908 2.214935747401861 7.0535879873178615
Al 10.46729402237828 6.036635637840753 6.535514453171008
Al 10.33706813305926 3.62802049751585 5.364744458586807
Al 7.813550997251231 4.570976648292978 5.7076912763432865
Al 1.3792790664473935 5.63118978272698 3.32077531837825
Al 7.965639491427166 2.1610195453939194 4.402626203559477
Al 5.166100286770085 7.660715836469178 6.320552356210828
Al 5.494779806146762 3.5216690550073215 4.16876234512917
Al 4.021465698661812 6.23940413284126 4.221301506873565
Al 10.146565923516697 3.455548464104085 2.746563229975787
Al 11.721151464581382 8.213326055759312 5.668480209737899
Al 2.63411745512517 7.98566134576248 2.4891578451305207
Al 7.756933776283737 9.89015655418941 7.152527905406822
Al 6.781407296850498 6.62712063893275 4.43769320936713
Al 8.86919993410924 8.257134109307446 5.272349410402744
Al 3.922538018793525 9.386096956520726 4.37732023435762
Al 9.80968758064619 6.117074936985232 3.8082815531318195
Al 5.164590731566495 10.430813196645559 6.5292854730040295
Al 10.182982037652147 10.496993080353299 6.124880592834256
Al 7.75247683897573 4.494648852172444 2.91039140294422
Al 3.370004966643125 4.099453552171237 2.4622552749086535
Al 6.597324930042589 9.591265686923734 4.425508822124432
Al 5.380322929169593 8.080503808379156 2.4382806937017976
Al 10.679324993844624 8.853524862448866 3.3014347559200474
Al 5.545475748804073 5.461428263438958 2.003004029902285
Al 8.86064268971749 10.749932273692103 3.799395901487554
Al 8.134897441468699 8.163089641357953 2.5937389527023864
