54
Energy = -171.99319487 eV
Al 8.652305158665413 4.044209001676749 9.826251947113109
Al 4.7269445082213695 3.786474752313554 10.717180424507744
Al 6.321253955032109 3.091161679991029 8.599164089447129
Al 6.4056458753302365 6.004795687452678 10.061091137329964
Al 8.90141068491287 2.8816070940767813 7.410235240065587
Al 5.224817478809236 1.4980308421441964 6.702977882992967
Al 8.966959418007148 6.733714043827657 9.457801088430237
Al 3.728892797917992 6.272468739584184 10.952824354052655
Al 10.34558623861654 5.1662883285687915 7.669745153878607
Al 7.210752590373869 8.6725389318527 10.32949058020067
Al 4.02554688713929 3.823514276869899 6.046674142041275
Al 8.879389584251003 1.862589986449136 5.001163840657708
Al 7.496774929372361 5.272929176472791 7.511792031112851
Al 11.18774739543145 7.681970784939218 8.124367022493008
Al 2.008172577328718 4.543597828045152 9.862098417295254
Al 9.45264290507793 4.650661963524473 5.14485759767488
Al 4.666102342401826 8.332824219140118 9.582107635178598
Al 4.446088379021796 5.395302341935243 8.222789150398338
Al 5.0506633398944745 6.231751643198654 5.674248992493955
Al 6.589607385246559 7.650892816492559 7.742271050309854
Al 8.878475260299163 9.291435662759657 8.335174424541393
Al 6.504713211691986 1.2555720623173923 4.167167024014061
Al 3.821981230926232 1.7105969793533289 4.29420625167706
Al 3.529678589418928 2.7116481411914064 8.46691736470893
Al 11.215657805751237 6.738703003207958 5.27842852537375
Al 7.94661536319595 3.4574007988283033 3.0591488024346334
Al 6.1325305953647264 10.282648905753952 8.006972972814362
Al 2.3683595086593474 7.1018476307941985 8.66031588738189
Al 1.720127617068344 3.2305242460409023 4.771478271770841
Al 6.7388137162827375 3.6219888878499895 5.6595154477466165
Al 10.652139225837331 9.3631441723827 6.100178892898724
Al 1.7609323964268493 4.739864681517213 7.171108707059463
Al 4.186561833311969 8.626856835991967 6.919020520972719
Al 6.382029548877979 8.248445363963237 4.5971256384411205
Al 5.2258755620008 4.315284938086517 3.4463249918121295
Al 8.01461599976161 9.999921503654706 5.892586193698955
Al 5.36860605593736 2.061233934601136 1.9036257602691338
Al 7.425997781814364 5.955395625089423 4.0442109218336455
Al 2.0950691805935895 7.264867587190781 6.033079048902359
Al 2.8960177671774194 5.749691359777626 3.872646235951386
Al 9.253867602683245 8.197514170332742 3.911168613282188
Al 8.840126150601893 7.2649442466828855 6.427820578047471
Al 2.963626133918171 3.2351740509799836 2.2413809126807807
Al 0.6764771086733381 4.5541721385553675 2.582482385506779
Al 5.326660995520177 10.682562220109077 5.240062809221477
Al 7.064066068177446 5.3185979361634415 1.3608522436160688
Al 0.3251955613909432 5.5789310129831735 4.980061990355729
Al 7.532264874194903 10.420048953911554 3.235956278748619
Al 4.836222257207909 6.863869167039135 2.208693010884869
Al 3.6348632905319254 8.489999588483219 4.235745096457351
Al 4.758069511102901 4.374196451915507 0.5774445168334487
Al 7.416157458869328 7.911964968116516 1.9518385256035404
Al 2.57462238791298 5.773977418176543 1.088554989875831
Al 5.18318825494676 9.540785800872216 2.2958359736879728
