54
Energy = -172.93267337 eV
Al 11.996757657187716 6.792238216903934 7.390952485330585
Al 10.669640283187778 9.119456030556236 7.199525302473023
Al 9.141399450996314 10.806941567941049 8.517540512857119
Al 11.917932554739934 7.999845609660416 4.952873735810316
Al 9.576334533756595 7.095872982104399 8.899897915153966
Al 8.134176390433241 6.459920132663797 11.285580742757407
Al 7.990126875275592 8.997715320938571 10.05705539464994
Al 11.204760834946342 5.372862665165724 4.850889832705157
Al 10.257581526431103 4.791329873090792 7.593069654626324
Al 9.511289345908882 9.322791481894702 4.690886726561215
Al 9.410898639694075 6.923535814059135 6.129729953711299
Al 8.423642523191932 4.504586837969371 9.599446319841219
Al 7.788084621807918 8.859595987083875 7.193450239374896
Al 6.8054147363637805 11.488292923845995 7.6058609835650755
Al 5.848399795370162 7.856835779981677 11.330782448619109
Al 10.01113806821885 3.1068213909515765 5.460099067005534
Al 7.237400371425667 10.605799876791913 5.112990236169981
Al 9.602431272824006 7.062852985678064 3.2803057215623617
Al 6.724087785774728 6.910250012025043 8.784733747422734
Al 8.826321313165383 2.5641025782659757 7.918473948660172
Al 5.451850392846248 9.417201394257233 8.876957344803813
Al 5.647525305978136 5.165327054277661 10.528065398747849
Al 8.212048916315757 5.040577686412672 4.4794503782333575
Al 7.504122252524398 4.991963975574066 6.972778145525524
Al 7.57798819219067 9.189867448665453 2.588013788203421
Al 9.216916759359668 0.5595258272441341 5.987390184880817
Al 5.065768293613885 12.268514125061952 5.565136868522041
Al 7.57974095438055 2.4385239059509995 4.583652977095822
Al 4.28264217605553 12.006798404034953 8.412679971144028
Al 7.174947422120708 7.681567309533548 4.781430289367837
Al 3.7785301936873914 10.008313584010208 6.556498721396555
Al 2.7287409555405624 9.80316997659884 9.146383861543567
Al 3.844675001742608 7.274646724976092 9.70327849660255
Al 5.505075248498072 3.4500912033445306 5.937727136193874
Al 5.3104318374660995 7.825534679991546 6.59106313811736
Al 6.719052379541255 1.173007715954896 6.833547135697635
Al 7.1651797018357195 6.308049782550278 2.3469135555566396
Al 4.740075062042073 5.41186237117817 7.6470284421734815
Al 4.885525267415102 10.003101749418292 4.115185137638321
Al 6.237890471339776 3.18996337512403 8.6531741535693
Al 5.112682761262524 5.926378707353625 4.659064990033416
Al 2.2341311636484096 5.326995815148695 8.753061487999291
Al 3.80276021923938 3.2687091708344873 9.867634076434902
Al 2.46827118821474 7.7699536293311375 7.454512896847197
Al 4.379626165673304 1.2690151902751239 8.139864389837989
Al 5.849769366494457 3.7921511468283926 3.07559072902695
Al 3.142719253877134 8.013697361915272 4.765663754667567
Al 4.926687290908256 7.91919950321717 2.617179493751715
Al 2.282330746718261 5.652149952993423 5.890376338470575
Al 4.859170920076306 5.682033757818231 1.2664451349352774
Al 3.3589993145223587 3.6881098034026016 4.413739734810265
Al 2.980359883037112 3.288816891999886 7.08311359111359
Al 2.676058134289561 5.994919973059922 3.1262745166049513
Al 3.281646532708982 3.6203710399551747 1.788737077459187
