53
Energy = -168.87480038 eV
Al 4.064310062120511 7.565468473162008 9.903651817785589
Al 6.044501876703435 9.120040330097707 8.985288264949277
Al 3.6449718134595086 8.850854595465012 7.466790381268327
Al 1.9251572527282523 3.9172095015834 8.119963329498553
Al 1.5561734755640995 5.447617448870661 5.830046907900598
Al 4.478641603405606 6.20864560451301 12.11061727974262
Al 3.490768038467859 6.135918481968857 7.682849783105076
Al 3.598894546593181 4.568669030550299 10.143481872935181
Al 8.009907678993084 10.308370105024146 7.667306700563884
Al 8.544852107792089 7.972333136619122 8.996188824596873
Al 5.419069942052608 10.221235864290694 6.0076893071127
Al 6.772695785506523 7.414819265995613 11.070690971306583
Al 1.7714174898858326 8.318631895136885 5.592289284872815
Al 6.168372964035633 6.253195592427139 8.671499517616768
Al 2.681370939879212 2.872585577748738 5.793497688607316
Al 3.5335464440180924 9.163692819113015 3.6509388120564576
Al 1.901297603693279 6.664791731023346 3.347350105056546
Al 6.261748930088438 4.597565281909755 10.827800419308176
Al 3.787609128854307 4.6849838447874985 4.156530070442523
Al 4.67171067463467 3.7591354096996987 7.615971310219052
Al 6.834554474006478 7.915428982051452 6.595370317828578
Al 4.190166062260935 7.098331039608652 5.30580673377309
Al 1.1321504212139297 3.9121082749060703 3.604655641325322
Al 3.4045018953672126 1.4027300511729122 8.065865469155911
Al 5.9549931204235165 10.959157436843329 3.4126466802468833
Al 8.074062652290095 9.937448964734829 5.043596640743383
Al 6.03810111816674 5.389888958050144 6.1133805129207515
Al 9.752320193967202 8.375163209566661 6.625925105470444
Al 6.119997039243906 8.262660481916665 3.8989576031283852
Al 8.190171839095033 9.206704039289056 2.466435640724319
Al 5.352705204443376 2.279654555066787 9.80532110596239
Al 8.645261840858522 5.5476131927146755 9.966372751660742
Al 10.475456982375086 8.967625271233382 4.106460680626735
Al 4.45800368354196 6.804893145307253 2.403919775142211
Al 8.31363540727755 7.05170856661084 4.5004331596226566
Al 4.099670285191672 0.47909677442310716 5.590333642709802
Al 8.733726200505863 5.754905932399497 7.104209370383242
Al 3.0460748571197818 2.042123236358454 3.2803077488793773
Al 7.3610221334975465 3.7330424547827934 8.435031553039593
Al 2.879754856192793 4.52964802121945 1.5871704081057132
Al 5.394519127387657 2.7516118702637 4.9559282015584705
Al 6.454878102463511 4.972166298535516 3.5595593520195363
Al 10.151035813945795 6.952778547545522 2.43361365834702
Al 10.721239844582136 6.178487462507631 5.21029320815708
Al 6.291885294571815 1.4758712799965075 7.30759158555029
Al 7.341174107305913 6.791451123679122 1.75310538819719
Al 9.191872412638249 4.623199358648594 3.452490737051242
Al 5.305779225143766 0.5372208164809261 3.1772005747844947
Al 5.351853831078536 5.282801132263916 0.359303372684044
Al 7.950215212799564 3.388336372608923 5.719585065309257
Al 5.168306661306584 3.0478299566905194 2.034584382704879
Al 7.517633038554029 2.1908370068971212 3.2293806299351546
Al 7.634937866782453 4.0290997516529705 1.2107928363078957
