51
Energy = -163.00988006 eV
Al 5.788010419662012 4.8930355786949065 12.824416042420651
Al 4.545062755668072 6.549507746671814 11.066410836270675
Al 3.2173037768220145 8.384874530237285 9.642136032361769
Al 7.312246871130575 6.686595183205496 11.4281998592854
Al 1.9282974010595846 10.453745066792017 8.404136997340707
Al 5.957602921221049 8.400635833048394 9.768109685881571
Al 4.698097018793554 10.411464850298872 8.453794005060352
Al 8.780967530463839 8.41648853658311 9.917739127662529
Al 4.537698243969165 3.8679625897924934 10.456180778375774
Al 7.3109400394386705 4.02442978472702 10.75399686521667
Al 7.40532348624499 10.396664873412993 8.6846726866939
Al 2.9918863065265304 5.7756029319844 8.890512785076275
Al 1.8834520024792878 7.881189889292343 7.207767408991412
Al 5.912284964617954 5.572733480620655 8.722653541539575
Al 8.690785626326228 5.775627701639907 9.151293958070676
Al 3.3479051041213794 9.994938875244877 6.1182314096189145
Al 4.607652592164364 7.6145550296058575 7.268472408233915
Al 10.889093744902377 7.2982288438294205 8.495248654987432
Al 9.13565071376809 2.9294511244887995 9.169467309897419
Al 7.3057616757373625 7.744060414366448 7.4975700718018
Al 3.798620511076102 3.51644295754966 7.697619179486462
Al 6.230724131011927 10.048285136494734 6.1705970623877295
Al 6.13234450834268 2.5612992245683768 8.750535517026643
Al 2.5534656111787712 5.483917470759254 6.171438521611944
Al 9.587137755311407 9.617518991409485 7.470810870644596
Al 5.398403480599909 5.204007788251863 6.038052745675367
Al 7.302821370971141 10.559895947713237 3.755058504068231
Al 11.184301862974415 8.228345394891816 5.83021753215474
Al 5.884896649386192 7.613105154020636 4.81738328598121
Al 10.813826968048572 4.568626978036946 7.8704007735909585
Al 4.645099127392599 9.89395968646639 3.7933007534715606
Al 3.0732646749519117 7.727947972593813 4.641060516943021
Al 8.043623254052552 1.4518660810785113 7.2108785425673805
Al 9.354519034849705 6.449703195909868 6.50428247276803
Al 7.8068170939725015 4.24183075850556 7.008692040008234
Al 3.581094101261094 3.3016974351089767 4.941285970574029
Al 5.729102503293002 2.320249292870995 6.099297363776496
Al 8.518541451780605 8.664712226147163 5.189593168685742
Al 7.641785972950349 5.638178070417511 4.626257267844316
Al 7.664634252735769 8.001351180512804 2.7744724186397787
Al 4.782561691612573 7.694070974054641 2.260128944860475
Al 6.078878960901385 9.975226082565982 1.4129891383673918
Al 6.0232484443519745 3.540881415227878 3.590491756547018
Al 10.241618333701199 4.252986300482133 5.207970284714483
Al 3.9969467810763692 5.483002549247045 3.5341667008074524
Al 8.22868552599173 2.5763987860855324 4.800779143332148
Al 10.1756848632523 6.597132541662495 3.768394217880705
Al 9.182372804541263 6.423376657486 1.2172440643071598
Al 8.81251666558989 4.1805886212857315 2.7468382696350333
Al 6.438324188962482 5.585504658314951 2.0070690838303045
Al 6.888692659279011 7.566676036262453 0.21226185354403665
