54
Energy = -171.89828253 eV
Al 11.551346004465767 6.952300131422699 9.304250466749682
Al 12.339529523334665 7.121632410646122 6.66400288436489
Al 10.836095709695407 4.866875391137757 7.665529098214372
Al 10.581003910834244 9.356244288310378 8.820911207479261
Al 9.83984804068956 4.958241354147463 10.285602467848742
Al 8.872841103107206 7.52516697671602 9.930486819640992
Al 10.119224251581088 2.7015721417061656 5.902956608054092
Al 9.971505153271917 2.546761736213094 8.73912499716243
Al 11.159603408750215 5.269991494720087 5.042905833412231
Al 9.594953164540277 7.166374158234334 7.199446552282553
Al 10.514853579554186 8.180419491032746 4.843326395737954
Al 8.170749034801684 10.106815890232516 9.568317465116072
Al 7.578008475251284 3.3386066132115104 9.999366379136292
Al 8.575831228494357 4.873731431281259 5.72218634808699
Al 7.995825945685836 5.336243345466783 8.233497099615432
Al 6.755590118955088 5.890561343410534 10.515405876804223
Al 8.717433915097509 9.636710964116414 6.669873087493793
Al 9.298190318104487 5.6962484108227835 3.1927623134906056
Al 6.884655559767775 7.837530989884148 7.953513520778356
Al 9.098809032376451 8.318897225967634 2.56751642280077
Al 7.65229668067886 2.8015770851686455 7.277621867939826
Al 6.155030491287872 8.622918367022757 10.517609981118753
Al 7.844674889311311 7.347592484534692 4.868255820019119
Al 7.6998760934043355 2.433901121490196 4.5602937209016865
Al 6.173600461305926 10.525226246687367 7.928484933424726
Al 6.0807879398386255 5.825302317493438 6.325078060029736
Al 5.290090075046102 3.6837024052028524 8.588283804314699
Al 5.404492025929372 3.1277919637094738 5.793086832009885
Al 6.08509858789838 9.174617533721571 5.631194377877794
Al 6.632642194360503 4.773937790765084 3.7289654420664924
Al 4.100897308932501 9.003698651582013 8.890653832872887
Al 3.244750875588315 2.250597948414829 7.5569916298897235
Al 4.607666908426299 6.326251675897887 8.836164899599417
Al 3.602413362434257 4.944865604427115 6.522321602003231
Al 6.99588113393824 6.660816634794833 1.8146043841778148
Al 2.4848409759591292 4.508028782085551 8.88463517557242
Al 6.584547212110741 9.092427268900877 3.0118245305894784
Al 5.173035651115349 2.535616135214323 3.0966986479343017
Al 4.973041213767282 6.934391025036367 4.0299591951812905
Al 3.498808579833735 4.584024645879765 3.937634834277379
Al 3.0941484261407743 2.0848486341823254 4.8709378838707424
Al 3.9238628361945476 7.692265477186107 6.462843145706136
Al 3.7628727474936254 10.535817441370307 6.349860118534168
Al 4.69108768574765 5.047545192737366 1.622191556743277
Al 1.7800003688220698 9.122043511908442 7.657700128642362
Al 1.1253916404783586 3.7678861707572597 6.5332568210094
Al 0.9240011603934327 3.306639433729236 3.8421746596835398
Al 1.4920609719534785 6.486101438824588 7.230804741615806
Al 4.637168433615603 8.127748465499343 1.47400857761141
Al 3.9446042549753324 9.486843572779835 3.8264030014305637
Al 1.10874455917919 5.838902376465274 4.63720778711286
Al 1.6755419141041958 4.953950377789754 1.9320920677080653
Al 1.6527799503870972 8.451304772743235 5.1245963562138535
Al 2.4977218046036747 7.293571266713931 2.79874336582048
