53
Energy = -170.2369807 eV
Al 7.955336887726604 4.579476110935949 1.2686214467967252
Al 6.676997175375774 8.61802680803636 1.462564490911857
Al 8.835745936921096 7.072008859924154 1.1795056781498454
Al 6.000534170829972 6.255893360271119 0.4734694950623308
Al 5.321152763186273 4.311416764428869 2.4439612202532595
Al 4.452529002334137 7.1824145295816155 2.6488214210726695
Al 9.483034565332822 5.434384549257568 3.559523461003662
Al 7.65597809106388 3.2845034744169137 3.5354896573441663
Al 11.038350593236784 7.364708689687028 4.585306480544692
Al 6.99891010425039 6.357284406280921 3.1622647948667857
Al 8.641171432681054 8.446722509887108 3.722628543694537
Al 5.860830104543051 9.52727406220176 3.731439969233406
Al 3.1923064426766414 3.7814637700000477 4.001868687379564
Al 2.4131748751496565 6.3388957921144256 4.243948973665963
Al 7.7388813176060935 2.228948490223681 6.60307329469942
Al 5.082637557297224 5.672190130695541 4.9572545034519795
Al 9.774248277626493 3.1607373614152605 5.161482886944451
Al 10.144628424135085 5.430646406447259 6.405348273531748
Al 4.109701043530484 8.19582347901058 5.295217262635215
Al 11.83771122860394 7.362742342311883 7.1617127986563425
Al 5.5501543064831464 3.0513352030517686 5.1806487839955
Al 7.676132427919008 10.281164040147981 5.599955421784696
Al 7.586062000948082 4.974819855461724 5.752346562721912
Al 6.763926683814859 7.619523338804253 5.644834910127314
Al 9.280891074803131 8.254588308159201 6.453992942142608
Al 4.866895066477615 10.829530637024625 5.847062642721237
Al 5.367154354162774 1.4083796690483532 7.3361331540993975
Al 8.630993205410453 4.0059709173357065 8.46232607642921
Al 3.1186549354516835 2.0720543227908528 6.053953502753867
Al 12.459121682433548 7.340099730258128 9.726970977732298
Al 3.2665395241303705 4.745125239893121 6.698200839818346
Al 5.927998916445936 4.1920849097859545 7.786211667579272
Al 10.041946488617674 8.230153425594501 9.197935705842902
Al 6.153571633999288 9.29791250243764 7.783345675605162
Al 7.72862906575476 6.601786886663481 8.024181087591693
Al 10.7212425936638 5.460207142354905 9.08506038328426
Al 3.3506787095425046 9.216466206836659 7.6798167486944475
Al 1.9367816912018714 7.195029111131008 6.785460220551307
Al 8.679645910289969 10.315940046241813 8.205635439331266
Al 4.330646356556975 11.5693425979321 8.525078443172015
Al 6.693558302323461 4.084854749868453 10.4961551773867
Al 4.892337740058596 6.785286447161889 7.603833626610953
Al 6.7477481381701425 12.13067583875017 7.387509548616362
Al 7.537349332900971 8.649332052501347 10.127753878411365
Al 4.9838861987453535 2.2399993782963996 9.796479673425697
Al 2.573519696254638 2.7985028616028185 8.569460253646065
Al 1.5470513896754354 5.284565913651257 8.748659819011163
Al 6.686371811166756 11.21865723522465 9.960421800178135
Al 8.505296504660896 6.08599772289851 10.600372421034459
Al 4.739346584062875 9.243953145311925 10.12428792056115
Al 4.081050072458726 4.786233415136382 9.724078627549652
Al 5.795844357377404 6.6717579689459505 10.252370911403304
Al 3.078543688078377 7.266537720716773 9.689392254437221
