54
Energy = -172.10761757 eV
Al 7.655572528808481 1.8984993265768926 2.922787708602081
Al 6.591301881119067 0.06417799353038624 4.787137633043336
Al 4.58817091209215 1.5675646644664978 3.607755346185519
Al 8.150557102673302 2.045310803888788 5.733970412661596
Al 5.454842746386188 3.1215212625842605 1.646441886428314
Al 6.785945727884375 0.3986232302304273 7.555694062288255
Al 7.782304231985378 4.614287717956906 1.9146459398171556
Al 9.12699505260718 3.982777715982423 4.141042580481481
Al 3.965133018689446 11.821438613367937 5.6067469398188585
Al 10.032310456628995 3.8392323749794 6.733925251363063
Al 11.403957947898377 5.490536574786011 4.916940339969718
Al 6.181022533062412 3.8021031579322964 4.204439747841524
Al 2.5522073536568692 2.1744119241410074 5.331958449909063
Al 8.031020862835156 2.720986338845246 8.41335301991228
Al 5.192977954538939 2.194772992781493 6.267176490925681
Al 5.308785433015919 5.7199731471365025 2.0692926445728785
Al 3.5522218623117423 4.189440176244285 3.533871087284239
Al 5.3329192149258375 2.5710358157404682 8.916952393200306
Al 9.722183475971827 6.452063643954165 3.06101382429835
Al 7.504615476331869 7.429579419582796 1.7536136782599319
Al 11.416750223155175 6.3152350357909395 7.508389662198885
Al 7.371001719358483 4.552034969186067 6.382419633595284
Al 7.1349740950236855 6.249686912368179 4.184222799628064
Al 9.096824899194402 6.562095239978767 6.103718785948768
Al 9.087020245559053 5.312264707954836 8.837113366600652
Al 3.889246226420187 7.8616140308633495 1.8608255806637166
Al 11.097827853337813 8.17822252339107 5.214952635953667
Al 6.399601298299525 5.841187179825414 8.361464472455465
Al 2.860973784902255 3.184611053902844 7.786796443417271
Al 4.66623198702455 4.787898747782797 6.472164998952474
Al 8.549037375181394 8.70025048477714 4.08489622324501
Al 1.85103195680497 6.4937604360563475 3.358894016775167
Al 8.241860852888086 7.834655407608424 8.80587088693909
Al 4.348482687765208 6.713772046286626 4.615710631192928
Al 6.849153276442343 4.200563638185086 10.425761315292819
Al 1.898641326976781 4.781394049994673 5.549095721548258
Al 5.796988077169702 8.886895054634277 3.534657266450066
Al 6.676241762357584 7.723110085425372 6.303739703070946
Al 4.230524300397853 4.996256958005093 9.596104063012813
Al 9.053761659764934 9.282969589443153 6.742844462681932
Al 4.126231731487631 7.179466101136945 7.616840077711814
Al 5.711936886775383 7.98186602095844 9.842934449111558
Al 2.730142620693835 9.136775934326234 3.8999708301917297
Al 1.9353377821233566 7.488716586512777 5.913048094584518
Al 1.874930460101719 5.7219858429081745 8.087764821493947
Al 4.493116038551567 9.229924879713728 6.0060365632727715
Al 6.841402522568774 10.5518630976355 5.380883634396903
Al 3.994184825465374 11.436317547631399 4.458147521343963
Al 6.525905018697513 9.914003816727572 7.953056901307777
Al 3.0984079956922623 7.422867765683893 10.338332465556086
Al 1.5463367752557173 8.38026960729805 8.39908066295357
Al 3.904156165247574 9.730293575524378 8.71421573087284
Al 2.1397395599676665 10.46432561231911 6.557871529691851
Al 4.673216797044519 11.821438613367937 7.071241225471262
