54
Energy = -172.89064236 eV
Al 11.322834112861218 9.64687032332876 4.819471442880545
Al 9.967209960316902 8.613900101187927 2.600068950200285
Al 5.9976059347689965 10.87475375874291 4.34589748483515
Al 8.479142688570246 11.623838902876567 8.94040591028454
Al 4.892364439979953 8.601366239511771 3.904945006310378
Al 8.622945867297373 10.213440363474804 4.498340301887922
Al 7.1731701548766225 11.161986928400118 6.675732029335979
Al 9.449190034035214 9.622796819430038 7.174705816551009
Al 11.874283234731456 7.099578336246109 4.069649077234576
Al 11.406138711441022 7.701441075557469 6.861965926661071
Al 7.413386808685889 7.899049968276801 3.128649100522096
Al 5.943411766446876 10.763112966093754 9.005941290475462
Al 9.339044042183769 7.672874414204433 5.099805313178445
Al 2.5159770464716678 8.643824511104476 5.351167855101157
Al 4.709495912813898 6.729367414205441 5.9799350066440695
Al 2.9260838938332614 6.808866071172067 3.4778427944039736
Al 9.603409703398409 5.854710675312057 3.0473022008541943
Al 4.5300033596723335 10.089012603658013 6.637805242778972
Al 5.208315248131986 6.755581529763585 1.9291552793670372
Al 7.929810989341304 8.964928322007138 9.409155522683347
Al 6.811959362043637 8.501188059048005 5.9932317113920055
Al 1.8394443278161647 10.32637055018186 7.245349264486054
Al 8.639916583605459 6.885701328507718 7.579955476053716
Al 10.451702219365627 5.228227423642176 5.601034362139582
Al 3.4962622029519244 9.686021807018582 9.27708759895273
Al 7.1301404567827475 5.049325043521564 2.5204920609114803
Al 7.2404550941798105 5.916878835567235 5.218017190488536
Al 11.1347342836541 5.351989065166693 8.166227977457881
Al 10.377033356362238 7.896284659325846 9.408827722379385
Al 4.730501141804002 4.875519939282452 3.942899126579603
Al 8.551417825129262 3.5868739043575455 4.529813762740807
Al 8.645378655904167 4.079529528122323 7.279419392368225
Al 7.080356518562324 6.590805153022589 10.546499504835593
Al 5.4901573393958705 8.766086702432156 10.941071191587282
Al 5.461510783842953 7.861366585567844 8.313198088072172
Al 6.039908250433816 3.6547072483471825 5.971129811509727
Al 2.309257227370284 7.691257890012425 7.944010494468313
Al 1.7968367228391537 4.297639363456787 3.8923361878938634
Al 6.230540252510499 2.6674722901043455 3.164222451973732
Al 2.0070459670614222 5.893228848281239 6.017246081637729
Al 6.403127138205188 5.375329460675391 8.078686031426322
Al 9.174987963382963 5.198963515666722 9.85241710318919
Al 5.081474037557825 6.583273625878547 12.503892436832437
Al 3.2696546213071587 3.552855841030392 6.271447931670201
Al 3.6469152410866914 2.3380645489711482 3.910106543356576
Al 3.66814915677301 5.383421001262894 8.150864909041502
Al 7.409972597516803 1.2258523314359027 5.104769293770464
Al 7.1781524107550245 1.774435926267162 7.645804825041786
Al 3.4461566242176764 7.080986047129713 10.315078601754779
Al 4.991544710983614 4.764375466548796 10.411768732992927
Al 5.2260363530408975 0.20342590681158215 3.7603885361312943
Al 4.798065923902849 1.2005716207038224 6.259599759848252
Al 7.261094294501824 3.37120121897427 9.778117155052202
Al 4.686446374982936 2.809627868811857 8.457207059462787
