52
Energy = -165.2194691 eV
Al 1.4529492100316546 5.662969734166586 2.4528404591655333
Al 3.8827983444096423 5.959657473542625 4.72814109200232
Al 7.287226691100012 9.115740292960204 3.5231472523747045
Al 6.856449778021791 1.8660813452818112 4.391675834727929
Al 0.8510300578599873 4.088611377346403 7.433671769553065
Al 2.385272146792618 3.2473089274776896 0.9800690419010104
Al 5.019274818642719 3.5929757051379463 5.919529050040608
Al 9.843430499710173 6.303969898101323 6.141403929142897
Al 5.423089817974419 3.713366324095875 0.0029366366353303307
Al 3.450837709603612 8.069847261454072 9.062040019158976
Al 9.167184775875869 4.097972993266102 7.92832670621758
Al 6.063053956792798 8.788375817798281 8.0452110204915
Al 1.0295604651145047 5.234922591071016 5.018696698017031
Al 3.7882827699557415 8.742975583533807 6.490482303897731
Al 2.0909423650810863 6.603093710948136 7.126188556064312
Al 2.687819828266687 5.773932468939456 10.541492367070523
Al 0.4992993357989893 2.5175581645678946 5.211209818510439
Al 4.972974401210534 2.007486938959076 8.494683813674994
Al 7.465072523398535 2.6827382552927506 9.889187850247467
Al 6.298387259165255 4.363724887887225 8.190781028776929
Al 2.8362340515172013 2.216497124870674 6.5828861828437315
Al 2.199806258490113 1.1768176583608556 2.836498721505175
Al 4.12169217580233 4.988019304300341 2.0824453717644107
Al 5.662206921959748 6.60638467593895 9.89309214518809
Al 8.31458745870686 6.423656951118866 3.875691665329822
Al 2.9225536060475066 3.4899352880243066 4.029739343466964
Al 4.278206109341737 1.1053663570212648 4.674683744194896
Al 6.1311636723231215 4.2950418771651915 3.57010878181715
Al 4.623381070779972 2.1871131795328784 2.2040005060941095
Al 7.549438933114207 5.269903293819009 1.4058043263462763
Al 7.594596802884218 4.5631457241229105 5.762897703899975
Al 8.089774064418078 5.299903971240964 10.28426717570433
Al 7.602346950320024 6.625316505407275 7.638487482086358
Al 4.780362898273627 6.274723584219454 7.29056336217413
Al 0.22363164115348447 3.2248958843178404 2.6680725896010755
Al 5.836267863666167 6.902732988273931 2.881223672834933
Al 8.00699047738846 8.07902382631384 9.950204919113144
Al 5.061857230688664 3.931153490143445 10.541492367070523
Al 6.181362422664471 7.491777751447757 5.462838884464784
Al 8.889581264082477 3.7090138998078546 3.326616402568523
Al 5.415429493763548 9.178709897855855 1.4099521707844271
Al 9.441564743305989 2.501395567902585 5.641917830560127
Al 7.227761043774703 2.469116825193691 1.6862293274512261
Al 3.193391610905044 7.6461967871999725 2.054511797459779
Al 4.409812701789128 9.145583016259964 3.95185529378969
Al 5.301510009307663 6.6362413620654115 0.26973909020394593
Al 1.8683734390020845 7.796418293193079 4.558979455344731
Al 7.249527162207792 2.0347301925743406 7.128324289463625
Al 8.516548728429958 8.791057404694335 5.97651099224702
Al 3.375632921247313 4.241711995105009 8.395931810425868
Al 6.085854184921517 10.271018766632762 5.787511208344688
Al 10.113404847766484 6.6138763188968515 8.844401137406358
