52
Energy = -166.80268991 eV
Al 3.2880752376418894 6.008384532379197 10.821479678816495
Al 1.5128946847352571 6.02947283318779 6.829731270116289
Al 2.721774966714211 7.5244829204657275 4.887763594038989
Al 1.6846393820579078 4.596952025100271 9.181287619874002
Al 2.2913316342646786 4.767545020245602 4.484970360041973
Al 2.5408772898243224 8.415166771213853 7.624750634130039
Al 4.564607671092128 8.241912765021967 9.68082683920742
Al 4.280917234457803 10.504732561035187 8.018785177561888
Al 3.844862317908371 6.370786065024363 2.7205392560607975
Al 3.575007464811371 9.988473253823049 5.463745859793703
Al 4.5296472986623275 12.453607533405451 6.0532559327629025
Al 5.848160261095791 5.6652843112028295 10.179764476957125
Al 3.001916500626651 3.7397516745617314 6.965477156012973
Al 3.896379899360207 6.0703653435694 8.166630214399264
Al 4.649141019143073 5.605678390054025 5.4837550631930485
Al 4.274865046198089 3.5809985724005973 9.38969473633559
Al 4.683864408743334 3.8788822489254255 2.9791545537984825
Al 5.204935857036382 8.027633495742613 6.864277812319745
Al 6.718756346324722 9.565898772267914 8.533611651735853
Al 6.601813238525024 12.217776231955334 7.75110789964663
Al 5.208380184790596 8.238249324814687 4.214592505539037
Al 6.247361535585538 4.743388625174521 7.506001099273841
Al 7.105578938813296 8.025740704036977 10.757513693975444
Al 6.373991598647297 10.375005421605168 5.6601018429809935
Al 3.741903981159658 2.2594087865737227 4.8911425324621405
Al 5.238839163806487 2.113852282319441 7.218970238992739
Al 6.899901189756375 2.923219868284454 9.627025998141567
Al 7.610209252966537 6.953291920632012 8.19931464693145
Al 7.754342170964647 5.808659035199656 1.0923968346343083
Al 7.573312932347457 7.716245340720854 5.527881876234291
Al 8.408645762467957 5.5737673464580055 10.887206365884708
Al 5.965998101726865 7.748791371501193 1.683064020456765
Al 6.312995409784656 3.4343913221306903 5.0929032813189306
Al 7.099963625557247 9.877102605077855 3.1042039562993278
Al 6.696923594296537 5.860271519699475 3.729371881077341
Al 7.863537903963117 2.4528029112592677 7.086237485512496
Al 9.22378533315081 9.212051109208357 9.404508375793275
Al 8.550946154358353 5.1611661333564225 5.85083192904641
Al 7.252179152942986 3.4320886944757607 2.478376376468576
Al 9.683799736129265 7.870625227362283 11.782981580277315
Al 8.718144686512057 10.686064894675365 7.078222479998801
Al 8.673408993729742 7.6940898203926755 2.830413372871096
Al 8.981422011998914 4.45738732723136 8.52214436959274
Al 10.33404646083897 6.724204736413631 9.330990668115922
Al 9.779494908951442 8.117849325280854 7.012545862692513
Al 9.397810415556345 5.134787446810609 3.085642192191736
Al 10.494585454385044 2.911059315549565 6.8169638799651695
Al 9.391083328469646 9.569689837149266 4.671865149478387
Al 8.923870340043365 2.803635918194547 4.515979129460721
Al 10.454419709161309 7.003961476665386 4.730550219337321
Al 11.016588714587002 5.650598416553499 6.9940523777912516
Al 11.370617120508758 4.275322240791937 4.597949617582849
