50
Energy = -159.7032152 eV
Al 11.271058177472785 3.838171477803428 3.428315438654505
Al 9.895114523599991 6.190605150543978 3.332726057256272
Al 8.610210674402229 3.670880078892098 2.9640641024501604
Al 11.60919521838437 5.648508112124771 5.468113043419277
Al 9.988053340363532 2.3089084188749647 5.231229537146898
Al 8.456875174819647 8.409833001595684 3.227781262348196
Al 5.938981997669741 3.604041543141718 2.942555383344295
Al 7.186687816043338 5.999563030708559 3.2290600706992043
Al 10.303985271469164 8.003196637629094 5.4107173724602085
Al 8.926814266334395 4.789913068567065 5.545122498566061
Al 11.200252331637717 3.825606244105728 7.363240941521556
Al 7.303117118850357 2.3609481804060874 5.067292278976198
Al 6.880675284983075 10.596682287908713 3.239890294771728
Al 4.3916959280365 5.907969465409594 3.2214820587870676
Al 8.883945667157766 10.212188394078554 5.2509176556845345
Al 8.619164305141611 2.708359015552531 7.490028996600351
Al 3.217866931619136 3.458682949411532 3.0172662518175914
Al 5.614842972084858 8.225609414797955 3.316678837580934
Al 9.977178573310306 6.4118515818774195 7.6037312834156054
Al 7.664895391604413 7.173991595157209 5.619122184578971
Al 4.6307408088163395 2.44676948141912 5.11587524300858
Al 5.146964824684817 12.603782078968088 3.7629057573751217
Al 7.280150982310954 12.350541497758448 5.345829693612513
Al 5.993278592785894 4.9055442187083615 5.438545473673431
Al 8.68792667529345 8.785032521127306 7.627533728863119
Al 9.515909403935577 4.431917656329455 9.386993342996456
Al 4.039732270276267 10.159681672561652 4.318758380535967
Al 6.300842349143607 9.554589769397497 5.868671109216194
Al 8.16726209956206 7.041493936032253 9.637668736013795
Al 4.432223495323696 7.323746595207121 5.561084674814383
Al 7.851197820122405 11.316055785568793 7.696625494202337
Al 7.3122240188757175 5.247364275690964 7.840254450905325
Al 4.818263105712228 11.815306063473722 6.437160337660859
Al 6.026113481667768 2.8765701447505023 7.4554143840529905
Al 3.094992927780767 4.881186364449178 5.380220873613147
Al 3.34343034949242 2.9046470119260213 7.458145130805053
Al 6.059638815292491 7.726736936984886 7.856813215502101
Al 7.289083729079767 4.5044834583890285 10.754703436227677
Al 3.4139307260862033 9.54915353953687 6.882162942761122
Al 4.496607314521774 5.478203651549602 7.646900568954592
Al 5.966376498342855 8.751880544519528 10.706286605789478
Al 5.504636122465136 10.331403967745057 8.58857254338733
Al 7.089125518333124 6.859282599247852 12.096056626385373
Al 2.2274397889280393 7.220489282577935 7.224885560074637
Al 5.341626364789765 6.260005832297094 10.126281845998253
Al 4.7550949376498695 3.6165671940778426 9.783501859503238
Al 1.3922432394769275 4.7856496010379095 7.617042355281062
Al 1.951085585094182 3.2449294166653693 9.787422557843295
Al 3.6901175523570457 8.340249835725626 9.355080177121607
Al 2.740358043352748 5.840453824227386 9.772495750280823
