54
Energy = -172.71426921 eV
Al 7.954504870847929 7.593220187910414 2.9798616220913363
Al 4.944573113765829 5.647208222020953 1.9358910292848528
Al 9.5869967515292 5.512694550512167 3.6871241825561767
Al 7.780289949967836 5.320874420202967 1.4936206356886486
Al 7.7539411256712185 9.730579803463652 1.086140341545494
Al 2.8525255618144296 6.384721357797932 3.5884830300563313
Al 6.389315859188236 7.552078233022956 0.7639743213477808
Al 3.86078463002946 8.19482459791992 1.7515430207033271
Al 5.326942575563093 7.523313766571812 4.031711546849082
Al 3.010769508629195 8.291045621641272 5.598801674729255
Al 7.831094045067075 9.859471854954451 9.500205342344794
Al 8.13729718000157 8.028659163065921 7.310915347507823
Al 5.8287225806712275 9.149639598723988 11.277844556894307
Al 5.069364138372386 10.152873364984577 8.727414890769037
Al 9.4219427699307 10.541696823780104 5.934597897975371
Al 6.976190386786252 11.001689876219178 7.117031690996021
Al 6.266602181639456 7.626491792006026 9.194364513342025
Al 7.1120514297408235 11.78256845592702 4.51988607911623
Al 4.817084386968896 10.296489907925482 5.527164486367134
Al 3.474614935483519 8.120206042287236 8.765441747869245
Al 2.1127395543708065 6.267921402664009 7.17739081732256
Al 7.225132362110245 9.081190971563977 5.049771738367441
Al 5.761333668679611 9.963653376329795 2.7937150289012798
Al 9.066733156131109 10.224136524035416 3.3125780338312603
Al 10.218354179726436 9.537505984226083 8.260221447964012
Al 9.850052356009463 7.953955745048309 4.965360144789
Al 8.718561028686594 4.605010053105946 11.13035215662839
Al 7.595656522078189 2.5271760182718923 9.726278165962464
Al 7.5288025597267 5.311896156833843 8.833173061818327
Al 6.487356076382163 4.066960411321112 6.76726378460267
Al 7.235157271254034 6.803361937520781 11.552324624683827
Al 6.793947422239315 1.3821762144102014 7.153663801370339
Al 4.219225055709364 2.5444769304647465 6.2055880329259265
Al 4.13081030536243 3.79395214653349 3.7352201872597153
Al 4.713396999098887 5.45177689291962 8.469861216754728
Al 2.1246882960552975 4.255244587026265 5.385432031676094
Al 4.458311077222777 5.576122413191391 5.801566738184169
Al 2.5502493648621654 3.54569362158189 8.06436061003898
Al 3.452297568345617 3.8553264168846777 10.576890919081013
Al 4.478167525530969 6.686772059611669 11.058142371699724
Al 2.0425130467254116 6.028121319687759 9.835860131154618
Al 6.015186958235211 4.298749808640053 11.073790382461647
Al 5.070332751648923 2.6181675188851488 8.8027173813013
Al 5.4757164684463 7.94546985578452 6.778479572181456
Al 6.319455158448363 2.2624015392293924 4.57216364493501
Al 8.592327149633423 5.637713488975205 6.283205075772863
Al 6.235009567333613 3.258541653244065 2.1414264535064915
Al 10.834901395549773 7.039744069586776 7.396941919502684
Al 9.116404594511678 3.0576793831515263 7.492785108033944
Al 11.024462834678374 4.519317440683486 6.056420601520748
Al 9.27479028329481 7.408523545733451 9.827444272688064
Al 10.332598090324344 4.897329740300641 8.9710846586583
Al 6.779136588206628 5.170463692273353 4.14004137160669
Al 8.835216540171588 3.1777511720671967 4.881098364706251
