53
Energy = -169.61216544 eV
Al 6.707573554453802 0.4512985432711745 6.776537439467162
Al 4.436552825807267 0.7777786449033763 5.389185369125912
Al 4.380417249582619 0.7252870380834503 8.184414439520117
Al 6.834327405968361 3.035043262541785 4.5929236219975875
Al 8.49042614449711 2.333992387136141 6.706709720863057
Al 6.793220159929304 2.0363413322141475 9.09475106891855
Al 8.79191533713375 3.889199243262663 8.843779360614832
Al 5.525662754662317 3.0359233032734974 6.8606205659143935
Al 10.055589826883887 5.0533264218478635 6.337521384442065
Al 8.252915749083062 3.595933233876435 2.209468203150962
Al 9.58894591333891 3.190111416804791 4.429396467898602
Al 4.1045807337435845 3.1540336383148717 4.30196254393866
Al 2.8138463650128402 2.597394127247829 6.809922244384125
Al 10.858369004754962 5.531743064204427 9.0426156148711
Al 7.848512318417642 6.06654553396165 1.2407760234482703
Al 8.1569656116812 5.646298109669538 3.9662828054297523
Al 9.795282967486358 7.593196958936582 4.984784999919213
Al 4.152855818313715 3.1018581923674624 9.342909103642384
Al 11.602306890874996 7.211576616909433 6.962254315091564
Al 7.314045017729037 5.058143412553239 6.5758272191700575
Al 6.237957778980421 4.813293629710658 9.121212708077367
Al 5.739562530581074 4.3717454042121 2.44670141523459
Al 8.432914112123772 6.2125197429759105 10.220645480171493
Al 8.687935428744694 7.095239624845527 7.594203025647167
Al 3.3572624472633152 5.408368198864 2.9075463382488347
Al 2.231028886941434 4.827031379531945 5.391109377777118
Al 3.7806758342263285 5.397576173025916 10.456345756626337
Al 5.060503456040759 5.655991704641595 5.121087456920236
Al 10.434594051293947 8.116141834651097 9.469455577220348
Al 5.803193564643864 7.054319389591929 2.5188495029592604
Al 6.905842664538957 7.71214361645304 5.1616079814070055
Al 3.70496691386408 5.168536086965228 7.63364434334711
Al 5.867047585596664 7.10693762983281 10.48266977894907
Al 7.82241751128097 8.793202590202027 9.727135050537653
Al 10.106554820717967 9.430188029782766 7.002590915837685
Al 5.7603883884047145 7.154490103840938 7.578041221563631
Al 8.307867946009774 8.2916721156387 2.744826945042973
Al 1.3425789541119204 6.930771154658461 3.9732181376709343
Al 7.242433394317592 9.499374664648505 7.1794466313686165
Al 3.2477650768543413 7.489732998306071 9.011523933228574
Al 3.7666446473540276 8.053746943028859 3.763496385787768
Al 2.928430196739109 7.375067330226042 6.256286325113892
Al 8.605335900916044 10.02298705652237 4.793816831201954
Al 4.837646282287554 9.347522134380494 5.828283571005356
Al 9.79575733852642 10.751201203909531 9.376259302515798
Al 5.26366995890177 9.403073151626426 9.229178870067427
Al 6.024281135436389 9.755691130627827 3.241271264913753
Al 2.9200075884949785 9.709841315662153 7.713602469257464
Al 6.443968061505148 11.532856265735683 5.336926154306186
Al 7.1584982745601655 11.433829748466906 9.136223420808784
Al 8.903428115892396 11.85338208696553 6.876365241110719
Al 4.8333028040725425 11.508031057932993 7.544938423348175
Al 6.73998804897903 13.437231370713034 7.30760900047505
