54
Energy = -172.02485718 eV
Al 8.105647034750753 2.28873949579639 7.61915178611955
Al 10.623947085992466 3.2290968465607035 7.648866099444764
Al 4.938478548361823 4.230063496793911 10.649798409163719
Al 9.94927121100667 1.2149188480829232 5.77430080575186
Al 3.8621938142075014 2.41145099057837 8.773680386153108
Al 8.501355340967184 5.1047603941276405 7.8513426666174855
Al 5.546839097125169 1.6811477695222257 6.883834618802441
Al 2.1018988292479173 3.7493935512879917 10.35523012998264
Al 6.054624133492576 4.098357284603581 8.191491976803569
Al 7.3874351665187055 1.41925416859776 4.972889082047565
Al 11.694379561595333 3.125785604138387 5.037429495054192
Al 5.56036479131275 6.685214513587566 9.423693004764592
Al 8.936559944095892 3.7520559882618154 5.4656688459727985
Al 3.126784774176517 6.2434336047196375 10.908704133881688
Al 10.87241658007441 5.638421227361209 6.184748455759668
Al 9.322780348488047 7.307260939800797 9.123125372590621
Al 3.52762744150927 5.095521352054857 8.382289930452542
Al 1.3615365148671659 3.400828984091963 7.662112645363654
Al 7.06158711587916 8.860067312100739 9.84272808958266
Al 3.4982274933217883 3.27170208412996 6.122968233140163
Al 9.498713464208045 2.408932315501442 3.1862665090861615
Al 4.771266795148695 1.9408052421712383 4.1149854409053574
Al 5.150347687321833 6.142736386304092 6.505483983157952
Al 6.244091974807541 4.0236423188804515 5.204598847826578
Al 0.9130681593987059 5.8823087598368815 8.68746830093272
Al 6.869682643385184 1.9585290475740615 2.348016032903022
Al 2.9255971769342834 7.83614526004488 8.803721340897356
Al 7.310113660983429 7.696971668485104 7.37137257197868
Al 5.051837913394212 9.264995824296241 8.062734157088356
Al 2.0176171380804164 5.608803371665365 6.1240182378044326
Al 5.257339080688106 4.144129117777942 2.1921732880705807
Al 3.6348915908047728 5.100542357860923 4.09565619398436
Al 10.38944549032651 5.0082789477281535 3.487831565510985
Al 7.871725929800562 4.602523530778001 2.7039145036137366
Al 9.01653019884066 9.90010187167671 8.284506810573804
Al 10.025454801513966 8.199324572705704 6.550530979624142
Al 10.633471768037506 7.604160331873072 4.077332877440066
Al 6.008755945211746 6.330070443944794 3.7341551715548125
Al 8.275351672049327 6.3743582721106815 5.1865298871634895
Al 2.3102434534486767 10.145624723940914 7.615927024284568
Al 3.3844255779445245 8.060043799767515 6.040288369504967
Al 0.7702079848748984 7.94980108608607 6.887478945134309
Al 5.909783888286659 8.475228415417744 5.233495766957715
Al 8.49500792041511 7.238025723705697 2.5257959542371147
Al 1.8442280073147999 7.253853333065843 3.9303425735140562
Al 6.398859143761295 6.434293531250779 0.9662527507000864
Al 3.9432955370193943 6.954570871528581 2.0801919096889914
Al 4.357340630118572 10.729776929885507 5.87859268589888
Al 7.055327732213442 10.54783393612807 6.561285756536254
Al 8.448948738516485 9.315205322653421 4.449994841725838
Al 1.5025157900167816 9.92033343596796 5.007674490920782
Al 3.7481932436989798 9.296812599954622 3.5725795521932358
Al 6.2192913383528445 8.761171781139545 2.4301257691283897
Al 6.349178285980121 11.002851599551391 3.8970108009398663
