50
Energy = -158.95483541 eV
Al 2.93232182627617 11.07883907462975 7.337558185301054
Al 1.638505012559396 8.118367248570332 7.769714109643116
Al 5.549130861154401 12.178212614734276 6.501580454299491
Al 3.8151265428720085 8.828171062446193 9.189741724418809
Al 5.4685708022217066 11.00983438989259 9.011489153775807
Al 4.150448453547865 10.849343865334609 4.458701788142953
Al 2.562153508144224 8.959294780766546 5.373085824561316
Al 2.059917871585083 5.599068022938601 8.454966260142859
Al 1.8292378860169594 6.27818627140185 5.605400884821378
Al 4.949118631668685 9.514030923363041 6.722865666370293
Al 7.4887129262527425 10.042531394162925 7.436999305024148
Al 4.047778841759118 7.011692799134395 7.0649336565405445
Al 5.349774601682207 8.892436653406037 2.941376648445731
Al 6.406781096129658 8.384576306538836 9.286801025254768
Al 6.8555409831489085 10.450587008803138 4.825519968558041
Al 4.586772879045145 6.21544474806357 9.799177064656709
Al 4.093689381178575 7.010572726879011 4.342571288943459
Al 8.124118436101318 8.595063237463867 3.22031366636455
Al 4.008791425970216 3.6926457795519863 8.45291625236024
Al 8.387066968930336 7.384666439967416 7.729379950161644
Al 6.5169119307013945 7.739777815115255 5.745457796861801
Al 9.207604108027278 8.995655324922389 5.653726364609217
Al 4.4857032240627435 6.4938901952065144 1.6357259220861522
Al 6.1537385574276255 5.6630827115851705 7.5726186902054655
Al 2.4511511575850395 5.185180782075357 3.1363414781478234
Al 4.333119598504367 4.52286843761518 5.738104677571316
Al 1.8638312136941626 3.6292930296823074 6.62737343748323
Al 6.223449283833444 2.526146153379547 7.17856409208424
Al 7.729599621617751 6.287338655413602 10.119046963721992
Al 6.771815784499031 4.99193860161239 1.2870392600307317
Al 6.5428504095973095 6.348878658107858 3.5301807871447206
Al 8.691417978810271 6.210919208965168 5.173715129046905
Al 6.322680582776992 3.9216847503365866 9.814930996464541
Al 11.188387010417152 5.797379057646665 3.960732153145195
Al 10.927722552912408 7.164302735273222 6.512972926319928
Al 6.923196005417185 4.18742387867938 5.16462357612497
Al 8.404744258593412 4.531245020233707 7.914066035541757
Al 4.94132823045459 4.132227720786587 3.078868533290978
Al 3.7326129598664357 1.657790019874559 6.580000690716593
Al 2.856100188448725 2.698676441187402 4.148833472889112
Al 8.991674701734652 6.18928526401207 2.3783414068634507
Al 10.410973683010461 6.055825982700183 9.002534325497615
Al 9.301274990498085 4.175856508738903 10.704523052037642
Al 7.228684469039447 2.7394702270067297 2.727462554149599
Al 8.159437023914542 2.013206630511058 8.992662250828827
Al 5.4512270573746955 1.8832707952670462 4.524781090436353
Al 9.36667246877667 3.6957454821575184 3.9797452806076086
Al 10.673749433470487 4.424976299270655 6.246685164224691
Al 8.77520750182921 2.3603732524642456 6.289982909626207
Al 10.610593675688298 3.2119836672089424 8.590369092720234
