54
Energy = -172.01508006 eV
Al 9.267477001943488 10.21337646011432 2.0307467229943947
Al 6.713086939438666 9.385208544414935 1.608775636348403
Al 7.4033909693450495 10.507669866329577 4.0412409421947775
Al 9.69775604069092 9.090363921055797 4.519120337137348
Al 6.540628168721895 6.61545726884754 0.9424608107259704
Al 8.286383311310955 10.903396772510824 6.489721392509571
Al 8.879939917995143 7.489603882857237 2.102176089920662
Al 4.336261887247203 8.144509155686338 2.100963902318319
Al 4.940237046639848 9.795762417034451 4.4833691571746845
Al 6.688025087670376 7.66398660726663 3.656636826444266
Al 3.9089965123011896 5.856733654054506 0.6157184715494178
Al 9.672598989188623 8.815193555671554 7.2906253434718575
Al 7.147881930604871 8.441181018533703 6.030348870217452
Al 8.923075352587821 6.450920298279907 4.77542289456083
Al 11.359132330595646 7.231893044233998 5.566080767852125
Al 7.760090039728439 4.944570191544517 2.8878684763923275
Al 7.1552306211962975 9.35757409034582 8.548894685991424
Al 2.5018970194752743 8.865562206960394 3.892660832609287
Al 4.754727784496601 9.425222788517083 7.293634715624661
Al 5.937230573065081 3.9194219299129545 1.124885560600946
Al 2.3537145674203215 6.283643972467201 2.998301252226809
Al 4.375598223482548 7.310406824929361 5.366665121976767
Al 9.157465240514629 7.815908698357428 9.795106757662827
Al 3.35475149141626 3.784709690846902 2.2948262996582267
Al 5.068023357172422 5.636254787090444 3.1573643240730362
Al 11.15996401376493 6.826479870554193 8.1901122231132
Al 6.437887385443503 5.6286064067158375 5.615322522212194
Al 6.5654664242055345 7.721344063478654 10.68024506849097
Al 8.446983139833673 6.112344680100986 11.807796003991296
Al 3.0284263570879313 7.259900414448649 7.990964321812941
Al 5.768244848646235 6.955941420369794 7.9766242932727085
Al 5.855111558005154 2.999240270001143 3.708076782657993
Al 3.6389843915374818 4.570062155593414 5.155356736021515
Al 8.34959412148255 6.3318390715577495 7.55423742903025
Al 8.219603342796754 3.5195375580169497 5.275134307117747
Al 10.347597737787098 4.768603976573097 6.418987477898299
Al 8.376315635312071 3.561278009769891 8.098438481550946
Al 4.2445834323531555 6.586914870641692 10.292317094765258
Al 6.842429153525754 5.184037974639005 9.791714508168258
Al 2.070952565560289 2.327679730493956 4.031238568130503
Al 0.9511668691125305 4.573050305308833 4.753111059902836
Al 5.6323339302116935 3.2435155559951223 6.4480710872959754
Al 1.7100960288060358 7.018714761977435 5.592194462381395
Al 4.210114064753702 4.700636545105004 8.11138950752882
Al 4.306511232801506 1.247984374657895 5.037037556590493
Al 9.797238061540687 5.140102989632361 9.68889667939098
Al 7.370521336290971 1.2841640087809785 7.142696134302021
Al 4.533386216631193 4.015338549476238 10.928989921027974
Al 2.5892870759366033 2.6019027081804857 6.70965967320499
Al 2.1069881326463435 4.966028707100843 9.914510156539984
Al 1.4548273301835775 4.946360480906947 7.3848234421666366
Al 5.989816879739352 2.6926897095182354 9.116839942667982
Al 4.720143761651587 0.8674694072765662 7.628270257257646
Al 3.1142830511893616 2.3808534417975222 9.323496339614382
