51
Energy = -163.11837175 eV
Al 8.725366614809417 7.093833822687608 10.865255730077848
Al 6.020005033332635 2.7026309342015686 10.685177385247943
Al 7.521757496135469 4.824709835165709 10.809492279036242
Al 4.285669058974689 4.758159285148113 10.277804184906703
Al 7.225778185427461 9.264638181580954 10.774948229655005
Al 3.7732573398776803 2.0699703204892854 9.188945082497222
Al 10.023360361864619 5.158948758237933 9.049739647371704
Al 5.867538922770571 6.947967076342056 10.294885177321389
Al 8.291226928581537 3.1122365622171984 8.706215348706694
Al 9.529979402865546 7.904453430579971 8.493548147925804
Al 6.924070377689279 11.228772450868098 9.074424690912055
Al 3.050388009942178 7.019435456108842 9.568881226606496
Al 4.633260516227826 9.298640132829068 9.82138532877062
Al 5.683073103348465 3.7428792536216253 8.109693675714732
Al 6.5519773152011505 1.13121776091942 8.643646459960804
Al 2.9376263466528547 4.415206648341414 7.9580252086415095
Al 7.514584764837934 5.909165927059329 8.242500863535607
Al 11.028253106819204 6.247908598418401 6.598241515376244
Al 6.832476610834159 8.498384776386398 8.017580928048663
Al 8.975495795261006 4.349232844972927 6.451803628984522
Al 4.5917153851547 0.68619401959294 6.983622650175925
Al 4.9579178958700485 6.375678896769906 7.690124951344711
Al 8.976224607694837 10.45168270341513 7.587236743532198
Al 6.92199947499203 2.3334980022115532 6.177289253168127
Al 4.227580942545431 8.885820749030577 7.087118143218278
Al 4.232114139635477 3.050030582612165 5.952064946546561
Al 10.199244275218739 5.205401312488229 4.207723121800586
Al 10.809566764512748 8.97274026463299 6.265588058802969
Al 8.502575948244456 7.127985172912065 6.027941817671034
Al 4.382143396275792 11.475154607753923 8.169597037115626
Al 2.1369437662308335 6.949884962312337 7.043326718457973
Al 2.164417065297495 4.75109424367035 5.328684793786275
Al 6.289409719076005 8.13850066275233 5.104539065711886
Al 6.481014047328705 10.685331070854607 6.3979663380567215
Al 7.777744227012064 6.135125927030924 3.5028698507196925
Al 6.32008012764709 5.133054372949662 5.694434219208373
Al 2.1214859261983774 8.961839335412437 5.28899108210597
Al 8.022965459992934 3.4435430320340426 4.075781143029923
Al 8.525663329148863 9.858062962522265 4.90081102941055
Al 9.835329328401478 6.780558271232277 1.6270850683411826
Al 10.134755341563453 7.930452868088713 3.915543959668648
Al 4.023841928035352 6.76824371680364 5.05514223085511
Al 3.9275248518532435 11.054971606589202 5.509936210864788
Al 5.422753107122872 6.951194223645897 2.534641929962728
Al 4.06053210665305 8.979177545811098 3.471769985426467
Al 7.7202681065185805 8.637600012628639 2.5268079897497286
Al 4.4337627221960965 4.496834609458064 3.745283446558906
Al 6.18827766830246 10.583841014146618 3.7224327823573606
Al 7.3790526391335165 6.447320120271468 0.6399582726776231
Al 6.339293748101233 4.336507591798435 1.9736763255547627
Al 9.014761600082048 4.250388419884969 1.6759210323160485
