5
Energy = -9.68623379 eV
Al 8.101161704007346 7.060403497307111 4.774429448947044
Al 7.743721899757284 6.680759526652744 8.618598780646355
Al 6.129568688943019 5.121387562435471 7.186215282813669
Al 6.2556660610463855 7.6388496171390665 6.604088927314863
Al 4.386225045418661 6.114943195638304 5.433010959450882
