53
Energy = -168.2499948 eV
Al 4.418418769603818 2.6656417871748963 0.25676821562973373
Al 6.245967727565323 4.708373529704945 0.5973782164121295
Al 8.012157984513161 6.866493836674244 1.052523653153885
Al 5.261686140100689 7.466801419132514 1.1253758752567038
Al 2.5351385553313617 7.880541431415376 1.2478392601774333
Al 6.7132703550519315 2.1010825281398064 1.784347820400909
Al 2.25215864466731 3.0103916453629425 1.9349390948953273
Al 8.636980589623656 4.322865715347269 2.104237025036577
Al 1.270674067058036 5.736111598110028 2.446966904352468
Al 4.724485623048982 3.8718978595675075 2.698066609259244
Al 4.306911921456386 1.0862310847139693 2.5907030706983365
Al 7.05767523157499 8.733862620621684 2.950647178514112
Al 4.147909618429818 9.217862260000958 3.1364731293570483
Al 6.440337584165312 5.908022486296848 3.08339870667015
Al 3.8101657574854726 6.414566883426929 3.180145039537917
Al 8.99997848861978 1.7904188871161044 3.2831669726744015
Al 8.993731562510956 6.742138760791552 3.5982968359271568
Al 0.11486720217455651 3.489187523202691 3.7172522748142587
Al 1.7503245508043657 8.169512497360513 3.934605798255243
Al 6.959404705426861 3.3998532443922977 4.143363209229433
Al 6.635443631492179 0.4473232071912119 4.050646688321983
Al 2.6574313566400463 4.2868683219401795 4.358448585628501
Al 1.9847106124021852 1.48142765636053 4.352513526567934
Al 9.608304473239512 4.182215448274999 4.644795902224903
Al 5.901096429730517 10.371724325943593 4.923961393357443
Al 5.417292364696027 7.675137795070934 4.957760535228889
Al 4.575517415217603 2.377516825674171 4.9471290809101625
Al 4.069228201182051 10.371724325943593 4.951832280449125
Al 0.398569604820978 5.871626738534144 5.179229666176786
Al 7.333236016173169 5.764952099150915 5.533202975377576
Al 8.013468406923549 8.599206132368423 5.49360605384313
Al 3.0340948536683614 6.646326963994726 5.758540181952565
Al 3.328642919723841 9.595910825478075 5.791879009743848
Al 8.266776793489397 1.8015080561147878 5.91504797211362
Al 9.88663264898471 6.5667143490800255 6.168575088546351
Al 0.9922682277735746 3.307804677230161 6.300028502935528
Al 0.9700268263863856 8.25011645310578 6.575661766217127
Al 6.194737375561843 3.595327202443796 6.692900921221603
Al 5.8531144408102165 0.7677419042804342 6.729910405645989
Al 3.5454185413556343 4.142471791565816 6.811677190736283
Al 2.8912132148133605 1.3080363311596759 6.916880002306054
Al 5.245816675742096 6.221695262517092 7.194140026559469
Al 5.6430444219301465 9.042790932001214 7.300718723122844
Al 8.732759533576662 4.295618897812208 7.417583797299991
Al 1.2907601413807022 5.719478674867674 7.755302440925389
Al 7.731002227947566 7.060100366977853 7.949401153933116
Al 3.227055146512978 8.008711559793607 8.1058473089135
Al 7.478271648832536 2.1162589366945506 8.611797531695691
Al 4.73801073704396 2.5971365179754193 8.773495344315714
Al 1.96194253094844 3.181181344717542 8.845986306667852
Al 6.57885893939534 4.769223283842734 9.311895398247383
Al 3.735196750644432 5.351199164656216 9.299213864820585
Al 5.5423018957200005 7.445604849495002 9.628385567713726
