52
Energy = -166.52038262 eV
Al 12.847095488861296 6.539234595339563 8.832323474942259
Al 10.620257923029211 8.163484245866764 8.826201970581904
Al 10.445306594687143 5.609594079566859 9.711565861268358
Al 11.859228380947648 7.250109261138434 6.424965961431445
Al 11.608699048995291 4.592954408764563 7.404624183432466
Al 8.447871838225337 9.743176039021572 8.821929616248582
Al 8.16840540824036 4.635859823872324 10.647254183016441
Al 8.074421408278988 7.095366548843347 9.429624753637967
Al 9.879227127713106 9.067735302963651 6.412795484985329
Al 9.308188546815176 6.188225677432108 7.199970128221927
Al 9.318326401500167 3.5686312683732537 8.309006496882386
Al 6.136417228879969 11.161844773425916 8.84646600943006
Al 5.727757113488176 8.480020935102097 9.285711362596247
Al 10.046816936201353 6.734764795310399 4.567314055058826
Al 5.988093967483626 3.53473445397992 11.753385455969381
Al 5.893368003571309 6.073808857837054 10.700299993134673
Al 7.813164487122829 10.672867658643662 6.4326342269225645
Al 9.845297750441159 4.056672441412499 5.5257324829198256
Al 6.923289968095264 2.7303506722459066 9.264018227561271
Al 7.246492892929407 7.9143308538501635 6.910386994242483
Al 6.5434158668878215 5.232168123418512 7.922081838099148
Al 9.309345393956827 4.639430427053367 2.965145813071995
Al 8.359672832803717 8.849726789126947 4.295162978424558
Al 7.5732887204486925 2.9053403842093717 6.474553918270534
Al 5.67541697339615 12.280200697786588 6.355615663346625
Al 7.417511417872474 5.655200836985257 5.169865397559255
Al 7.624647168055951 6.662237131559975 2.523505312261806
Al 5.11637344697272 2.0230499543920866 7.47351172707169
Al 5.823097917198944 7.891116111820054 4.288182348399942
Al 7.215017434875191 3.197352069368356 3.5930580038819686
Al 5.196741072892713 9.530129807613202 6.691692517177363
Al 4.404210913734424 3.869221683482706 9.586092353199064
Al 6.188135306778872 10.672677734307733 4.287560968598536
Al 5.953801413800126 1.3016312440437114 4.973590566284115
Al 3.5532391429339656 11.508738166773842 8.044146846365894
Al 5.283944925143535 3.921193822122589 5.509720692931077
Al 4.712915021710141 6.477808196834845 6.119568803625554
Al 4.120753480732806 6.349560579468213 8.685263908588045
Al 6.845646907529711 9.293602488440982 2.1421336921579894
Al 2.9726213303531086 3.707600583166048 7.117627943680631
Al 3.5819269121118746 11.194957577534707 5.139808376564582
Al 3.0918376896001982 8.77218368553823 8.224553284636084
Al 5.100330328311548 7.302382786911455 1.3318577830956775
Al 4.084607838073576 9.592147319019517 2.888886725562264
Al 5.347143944005649 5.2624401723174055 3.1015976545609667
Al 3.2304163397561516 1.8370646998680602 5.200075796678229
Al 2.8344887122459532 8.694224091649259 5.563351061800955
Al 3.3126545656901696 7.039671446753767 3.5649913761115517
Al 4.532416761492902 2.6735486107169435 2.9851021637450663
Al 1.8771666385438441 4.900362108627839 9.161671024229378
Al 2.089287227134069 6.38177533483149 6.845887744653118
Al 2.889643493287934 4.6269322951042655 4.52736844671914
