55
Energy = -175.64724244 eV
Al 8.17386626264699 8.475068135682847 7.556759423914071
Al 2.7887538174469966 4.361772325254792 6.641584805562615
Al 7.854205114151596 4.137307007722409 10.103524876808255
Al 3.533109593830804 8.324881261507604 8.983401869568718
Al 7.057849994198018 6.7003686225161125 5.735218385341433
Al 7.888744099961576 6.880406171985685 10.16137213330658
Al 8.170902420065229 11.179572194817819 8.128702041703788
Al 8.780447170203777 10.77055460821852 5.531661219059251
Al 10.241566906858012 10.928074361068361 9.921108762401724
Al 8.381881653575192 5.6295354122687264 7.769385011645409
Al 7.92666175018691 3.993877007795201 5.618051038245521
Al 5.483146348644873 8.223277745751236 10.912484874404587
Al 3.556696740149704 5.544751331775878 8.861740474967993
Al 9.912632044119016 8.357321128760695 5.176851482504361
Al 3.1497807635585677 6.801495811949275 11.219416984727072
Al 8.121683068468032 2.6045474740841894 7.869797902766064
Al 9.90280247129621 5.687454839864378 5.1122349154107365
Al 10.390713047313085 5.5182999502777115 9.629760855849673
Al 5.930865296084753 7.04869044579218 8.296457019674143
Al 3.1433166167558 8.424415765587778 4.190263812487013
Al 10.265750006837044 2.7868655442713877 9.520289103790473
Al 5.819009980641154 9.71495665119752 8.524288251403938
Al 2.6968705436951987 5.7417150600912175 4.399857773661923
Al 7.806771396504543 9.61271155687116 10.353446070514991
Al 5.923011729012341 4.350676437473241 7.9899374936650425
Al 5.328766361473127 6.841582847018086 3.451644817364553
Al 10.186374732724438 8.225732703461482 9.640600596622233
Al 10.8796677708234 6.9888610653235546 7.29288891939894
Al 9.918229656169759 7.0900773799159404 2.7315040541272424
Al 3.1503752917660743 6.329143335194208 1.779293667582414
Al 10.590240669261513 9.831342128733928 7.375316701735022
Al 6.7482769891382235 11.163031070219537 3.855519929226895
Al 5.0934164336140455 9.507566509139188 2.593651536035202
Al 10.653449522863902 4.21005973225429 7.204364776733418
Al 3.9413035809587886 11.080051765185173 4.474137901962328
Al 3.959192667592602 3.906948110675583 2.808464547844531
Al 5.731783067783338 8.928267042575 5.336970984532742
Al 6.4627117629104225 2.9122495111533127 3.499508949306628
Al 5.217344109450299 7.6588201652667705 0.7241787163367573
Al 5.972990854760732 11.337914144933215 6.453099865599238
Al 3.621314427875138 2.4940784854450437 4.952972476569302
Al 5.893622949210429 5.028463942666913 1.4170537273245838
Al 5.218375602832861 4.728184703161303 5.2089804287371155
Al 7.684510916867944 8.454670322844368 3.61894983232889
Al 7.732425453363684 7.040461398982768 1.2528559224915674
Al 5.989749787620221 2.228781301439806 6.221329865583571
Al 7.807500613807512 5.380591918792191 3.3646917784986208
Al 9.954092232419931 6.74225179120243 11.982251200870826
Al 4.101250451622439 6.929443577867885 6.386287745114658
Al 5.536201804038862 5.461257990626693 10.784891937589112
Al 9.812669288419086 9.474497670801512 12.138175773130687
Al 3.5810787961622323 9.700001739025566 6.752636664398639
Al 7.516133763573065 8.04554438727058 12.70505625380445
Al 9.984388838945026 3.9611023273765995 11.951546742358158
Al 7.593579894848285 5.282481207963615 12.595634232509848
