53
Energy = -169.45852215 eV
Al 4.802130670784086 1.952931982208418 2.306520091361217
Al 5.01899631581682 0.5115887665377493 4.914229793934942
Al 7.137788681286126 1.3891798972858818 3.5275119022651973
Al 2.9387770293588518 1.966523939158952 4.245303062045936
Al 3.934524369720943 6.921876559971937 2.0014736451644937
Al 6.4703887842375245 4.099432676192099 2.575443655275895
Al 6.611531745513574 6.569421329977725 1.4783574626499818
Al 5.339418521583053 3.382129437949151 4.910032274662459
Al 4.039561025461667 2.0553997065129783 6.948709777549338
Al 6.7777706678545115 1.7354395984828577 6.555481901501541
Al 2.7044742838191347 6.580704966113331 4.567057159344898
Al 3.685134905961142 4.415829201953944 2.9877857259539176
Al 5.774894460139561 8.798436894228365 2.9009791031498007
Al 2.594721143447365 4.114696114322783 5.594937243283639
Al 8.157782803430624 3.3982385021883577 4.760875857344911
Al 8.223106399463273 5.873345859244014 3.68290616398249
Al 5.472181264809986 6.293658960416443 4.198277935878911
Al 3.1958298056966004 9.006756536655589 3.615954070366342
Al 8.5317996349737 8.330143556544726 2.270568571673389
Al 1.3585469877659087 5.976810563700467 7.072348505275035
Al 3.081811191825382 4.133452588733238 8.329583522350816
Al 5.753058233582999 3.948309536246735 7.876437446989821
Al 7.112119131955136 5.726470081775018 6.269890747200881
Al 8.473104554252366 3.569418461704744 7.519906412379922
Al 2.5343761821984248 8.358890874587296 6.742133143221773
Al 4.387679939981901 6.104965241776935 6.710556410143738
Al 2.923201243077339 10.734070766420377 5.594816140453161
Al 4.567754167443161 4.6747855275904655 10.522695248763604
Al 5.048192119471464 8.688244159642773 5.720649774441536
Al 10.036776072210394 5.118274757832414 5.554753811945917
Al 11.617900949422628 4.484432993569768 7.645178486664261
Al 7.2186629207025 4.271605649511026 10.056820605526953
Al 9.866635650494949 4.184869871144536 9.710951630872069
Al 3.0727719419204154 6.792154150432338 9.095841067860178
Al 5.961101742176336 6.505493726744787 9.009993579116083
Al 10.19295324722396 7.595777912779947 4.377264224275617
Al 7.578450560251899 8.229304601573883 4.89466314681076
Al 9.159132214540799 6.1830119002721915 7.87283837501589
Al 5.090664447201225 11.147365453777068 7.153145644907415
Al 7.708974645587622 10.722237914002264 3.273300931367247
Al 5.198909649290111 11.104780772022108 4.2908319944511115
Al 4.359780876343222 7.92006394425633 11.11963575074985
Al 11.462579610731515 7.2161860677900425 6.85061860396886
Al 7.248012402264901 8.275126449424715 7.5239160808307135
Al 6.424855828195763 6.411290988160102 11.813598018961102
Al 8.671899811014415 6.572246308288562 10.499027515357808
Al 11.450688808184935 6.458666986939705 9.549922909063039
Al 7.4703460525919905 10.851477064853016 6.0211266278853195
Al 9.603453718660603 9.302346309507884 6.469519620100825
Al 4.69300099695064 8.963418971931295 8.538068488158162
Al 6.9847769746035855 8.781536593926004 10.24246455940322
Al 9.772126903561002 8.563255208424746 9.002174812509422
Al 8.145071839622316 10.666461857983178 8.657290874766124
