53
Energy = -168.81270842 eV
Al 9.253781750620055 3.1741797300932806 4.7532445594820345
Al 10.87084780996657 4.085671680599482 7.210104899495443
Al 10.470981475782942 5.659999861114063 4.830960434517352
Al 9.96622553057512 7.65477428257806 6.553891519506245
Al 7.638158042968055 2.4770722313478255 2.6012211330993202
Al 6.813649802070928 2.0350814208479897 5.292020557427319
Al 10.058809372546616 6.120204278539507 8.85900017687041
Al 8.731809663356165 2.321498943401972 7.254197269860865
Al 9.611225025740543 9.548915823644785 4.37815746244584
Al 8.423742555901473 5.082829479445673 6.680600020358493
Al 8.897488096481888 4.884472077082813 2.6574249564767287
Al 9.388049379604368 7.511796040648652 2.5752755058227637
Al 8.540227624326278 3.898215657180688 9.502240154672212
Al 6.655680093162624 4.44658065597911 4.1820204939123125
Al 5.0178402339532635 2.2634663332442493 3.210154385889536
Al 8.635298597496726 8.386443729145492 8.850909603504805
Al 5.69227634671056 4.157525620382824 1.470705563511402
Al 7.178512260854394 10.99584270902657 4.513949917726512
Al 4.356761614963191 0.8092693336895018 5.3453223653736845
Al 6.767754561150255 6.471533054508708 2.1528015695468943
Al 8.394615847540527 6.267866158683951 11.01602245823055
Al 7.783266623797231 9.240899489935913 6.469697722557452
Al 6.322555126519763 3.201465511959821 8.05840692693339
Al 6.115359891636739 0.5124466812356644 7.455052774754046
Al 7.025238344891847 8.95724320781582 2.8744501322868845
Al 7.913348738424939 7.0111029076493745 4.777302999575576
Al 7.0741456411166395 6.173478319632188 8.689959104346121
Al 4.551179906257968 10.255582090322516 3.633832721400844
Al 4.419744783574381 5.655191798903834 3.5561097314116354
Al 5.9450035623541195 5.857996877253385 6.372944896645082
Al 6.954155953919539 10.524152391042781 8.95924399043289
Al 6.001457260416232 4.501803482769982 10.482131303236411
Al 3.0605871960810087 3.7434230262885944 2.066036686926669
Al 6.733412936668199 8.333750541480123 10.69776464485316
Al 4.392613929653566 3.715908354909419 5.534018695262801
Al 2.3464925624875437 6.2766334961859505 1.7829669796828163
Al 5.478926377090176 8.159890000559649 5.063506520535609
Al 5.504822736863834 10.763657338801442 6.605417150897188
Al 4.416321425176807 7.999015146322504 2.1515026824008547
Al 2.3212630317048704 2.168174245638974 4.2094676797729775
Al 5.688203756469692 8.261074184528837 7.8845254038659425
Al 3.8154885029129995 2.093285410652057 7.663741290538959
Al 4.214283271955603 4.6978885919986135 8.215463815909882
Al 3.4200390802834497 6.4484236017362 6.20526385875249
Al 2.4304086016813304 7.756957753746132 4.008723564423936
Al 4.480170016842641 6.7559465528441915 9.911336564107957
Al 4.578676111858794 9.622470613690883 10.001235862258941
Al 1.9254855711366006 4.989117349960661 4.34054993619892
Al 1.9246040214031186 3.9063674706085187 6.910036647674782
Al 3.1689899253701657 9.588923948368242 5.857985068873176
Al 1.9074781475784572 6.041964620770939 8.523831753413134
Al 2.974263155809408 8.5221605160491 8.320252749887256
Al 1.0751612715221062 7.859679510109938 6.4319835282153335
