6
Energy = -13.19459198 eV
Al 7.877344381193194 6.45081269054228 5.436776933231229
Al 8.989567766050753 7.711818032811883 7.584247271683094
Al 7.003308948627467 6.060027749866187 8.093903538443975
Al 6.58861581545883 8.50261907830158 6.627680032624967
Al 5.735906038276112 5.039465986278056 5.830872656883086
Al 4.559791286856907 6.988828599328415 7.179536433000454
