6
Energy = -12.67879928 eV
Al 4.8534485192960535 5.969708658160689 6.768789254823332
Al 8.973565691697083 6.741934982666354 5.144872452940131
Al 4.458981141489198 3.8533025478810314 5.117183987046419
Al 6.738030072366742 5.3224926127330985 5.143412208384981
Al 5.208759055359624 8.021557854921086 8.405781158732323
Al 7.165906634995083 7.489694693013841 6.8186522874493924
