6
Energy = -14.0183752 eV
Al 10.461729892349418 10.176734824946308 8.821460376527895
Al 7.972632244025751 10.367182445374356 9.896865026310843
Al 9.839560177534764 7.685003999438337 7.872844510264548
Al 7.332842194416775 7.893535257316447 8.960147208569381
Al 9.358732075748954 8.0859527941558 10.519256891605764
Al 8.463021951618584 9.943905086629849 7.235986151156675
