6
Energy = -12.86890282 eV
Al 6.468600689227968 6.468600689227968 5.840045641310006
Al 6.468600689227968 8.938148000000002 4.837104025549958
Al 6.468600689227968 3.9990533784559377 4.837104025549958
Al 6.468600689227968 4.085472134447481 7.425543736764216
Al 6.468600689227968 8.851729244008457 7.425543736764216
Al 6.468600689227968 6.468600689227968 8.446262969429457
