6
Energy = -12.97837874 eV
Al 7.769121993735567 5.53896194429711 6.955269795078771
Al 5.115116267068388 6.400564119789528 7.497605020087507
Al 6.313563728192653 7.882350190907097 3.7197076883892572
Al 6.9027079335933195 8.030481047988445 6.222107844682015
Al 5.8906735193230455 5.677261524645464 4.979133347144959
Al 6.5104541334220665 4.978168930088087 9.133561027080258
