6
Energy = -11.31585605 eV
Al 9.757767263306455 6.267208143905079 8.767544513341807
Al 5.797528119985562 7.831142754196199 6.755122619699634
Al 10.758954027136049 8.557720012980552 8.094190339118999
Al 9.22445994841369 8.852442061917419 10.131642310540567
Al 3.353007246381347 7.500978887529269 5.6035343108598505
Al 8.101356505532067 8.188852244913644 7.707572787477911
