6
Energy = -13.1140717 eV
Al 8.750391743213497 6.681316271059515 7.554529622097995
Al 9.341536031680349 5.5279241360169316 5.356431759781582
Al 6.75937949472597 5.730895416129896 5.594325547481556
Al 6.483563258869464 7.725366879375227 7.397440215695089
Al 3.9266685086391497 8.185498314023857 7.384787096263738
Al 4.407865573284912 5.866686252070786 6.43561413447535
