6
Energy = -11.20059458 eV
Al 7.747879348331567 5.57478990224206 7.63330290572283
Al 11.554663583474124 11.948570712790398 7.884296054806556
Al 9.690977845973476 9.970106410954207 7.754259351580165
Al 5.538216157217648 5.021682388005858 8.965460299346104
Al 7.986608985810602 8.086671500274624 8.268380437704327
Al 5.64420533117936 7.232470702011741 7.561208560752036
