6
Energy = -12.97259759 eV
Al 3.7053852361524617 5.088579766460725 4.007772055161853
Al 6.5315469076588855 4.944151003376269 3.945189297976836
Al 5.2268319022027825 7.038855838486489 4.757591169239583
Al 5.010020665745653 2.775559854677561 4.516812185518624
Al 5.162287974397917 4.431769309425509 6.449332536012391
Al 5.41200635496411 6.769163268695377 7.3713817972122655
