6
Energy = -12.97567948 eV
Al 7.607842785040812 6.188351155698575 8.872676854225364
Al 7.877627478673075 7.9678013492802515 7.117511184110583
Al 5.491132090667928 7.826146667229075 6.116439113664626
Al 4.176703137449142 5.719862668252763 5.373208150780217
Al 6.025135988253478 4.718440088966994 3.9987430406791655
Al 6.743416397132377 5.5012559477887795 6.443279533756982
