7
Energy = -15.97075203 eV
Al 7.7256955442730275 7.888547708228427 4.315512444950968
Al 7.826362259311812 5.714015734289308 5.790237168864346
Al 5.71903748364085 7.843460118839351 5.856648680688967
Al 5.48246695526542 4.862346494705568 5.976580751138552
Al 8.69397023232652 6.1122896362073655 8.224648189403343
Al 6.199977176171512 6.5621312059128964 8.22611309460489
Al 3.855730578395926 6.5204493312019 7.113499899734132
