7
Energy = -15.75995963 eV
Al 3.940036071373369 5.2868616154360195 5.595526198476762
Al 5.906752384326549 6.014000681064946 7.110636640362385
Al 7.694109571632924 5.2129776695982875 5.424104961210582
Al 8.2306534193281 7.344048393236398 6.9676654310833115
Al 9.772026084192621 5.186620519061409 6.964592349663466
Al 5.975975676190858 8.617132739907518 7.4003135702349745
Al 3.984793122751195 7.84270471149104 6.0415071787646735
