7
Energy = -16.22421036 eV
Al 5.951748647270919 7.260761237016654 4.242119114772139
Al 4.593090197516941 7.282776519528481 6.505499666162235
Al 7.119991091040967 8.413161514236814 6.296436847086596
Al 8.125052572754742 6.078303527304458 5.342819254527858
Al 6.738046401221827 6.024089668902701 7.564640823124785
Al 5.537457682474661 4.9224276794631265 5.533617415033
Al 7.436259200761405 5.520125646589225 10.016512672334715
