7
Energy = -15.41193763 eV
Al 4.256904222611456 7.699489603470503 8.33230921334988
Al 6.6718526927719894 7.3476704559214525 7.390211657433333
Al 9.115849814161608 7.20637773377156 6.430947442358014
Al 8.652251204123889 4.945776938795267 7.420021480101166
Al 4.400122751017513 6.685725550603486 5.979529653263627
Al 6.7957912062531545 5.372980189186636 5.605419719438638
Al 4.986066301312988 5.624624267527391 3.7274757034551986
