7
Energy = -16.17737092 eV
Al 6.47423101340837 4.442020085580048 5.236922227092844
Al 8.204764286517436 4.420772048869729 7.185893504940957
Al 6.177217176713657 6.967240854527364 4.946277119247012
Al 5.866136238783974 5.682566900115254 7.379371908556616
Al 8.386957898883601 7.00435749736408 7.509915232813489
Al 6.035305378718671 8.209670521268743 7.582792793336693
Al 4.357489360662532 8.77547344596302 5.660928567700508
