7
Energy = -16.24620027 eV
Al 8.16246177394819 6.668277451179431 6.568504199770885
Al 7.434932925680801 6.173619207704732 9.041731188232816
Al 5.272067218462205 7.471815306750726 8.408801068416661
Al 7.555556783082657 6.83987175789235 4.028670242282802
Al 5.729166081080011 7.743137614920621 5.8953742546161045
Al 5.922184037872169 5.1741071460798045 7.037346599588744
Al 5.423631179874471 5.429171515472834 4.519572447092231
