7
Energy = -17.80935784 eV
Al 7.574815808059924 4.587624281216171 5.066205024438013
Al 8.2174944108138 6.892772387986539 6.213821164411545
Al 6.264300678402658 8.589317944161868 6.151688027937824
Al 6.9467955533924295 7.25518711977478 8.440442786927512
Al 6.344448137976284 4.969981855021212 7.387475179079622
Al 5.61864885379559 6.378401659787399 4.963432483623088
Al 4.533496557559231 6.82671475205219 7.276935333582198
