7
Energy = -16.09022212 eV
Al 7.67418895685145 7.514262183799978 6.195218962222634
Al 8.213717492989856 4.855264030234139 6.049561597866009
Al 6.094129712633582 7.685386655917864 8.445131233759493
Al 7.898440647867922 5.81453848333432 8.448582254361657
Al 5.672238566056639 5.546281157252476 6.73755527107699
Al 5.908144254892486 6.709278098637349 4.29118321865722
Al 4.923587274098826 8.20439987694319 6.181738159232093
