7
Energy = -16.61249101 eV
Al 7.221011845108816 7.937439299227932 4.195101135129883
Al 7.300822092315367 8.54236333724528 6.698729731846278
Al 4.978845389440526 6.918276664761314 4.980233026348545
Al 7.226626910237602 5.941716092052619 6.048534856071912
Al 7.1206113741979635 6.776472215869272 8.584077326832006
Al 4.802850368295915 5.134692302984654 6.849642293764863
Al 6.8492320204033375 4.249040087858699 8.14368163000641
