7
Energy = -16.56875208 eV
Al 8.073062332870363 6.776235061871351 7.0243512716778636
Al 7.17384854480624 4.359410538456523 6.86172482093914
Al 8.202910900967154 9.055016967465088 5.647864757370173
Al 6.206347250532643 7.39391943688784 5.310883349523539
Al 6.089654731910362 6.301645458720144 8.629598950606493
Al 4.292153353906769 6.689295002910335 6.921297146685296
Al 5.464126995130338 4.926581643812461 5.106383813321492
