7
Energy = -15.72225598 eV
Al 7.440044982604755 11.62538274206826 7.741271461501756
Al 6.8037723606011005 9.10310743006852 7.602730313314004
Al 7.155453016592641 4.753694299686669 9.298606822458549
Al 7.2798711248243935 7.356847525796168 9.30625400755445
Al 9.283270898480753 7.871209223250646 7.462975026423198
Al 9.497833014591976 5.717212611534008 8.847545227805407
Al 9.010236485467207 10.164925623136222 6.311745017730782
