7
Energy = -14.9114654 eV
Al 3.601604631022362 4.319573413403684 6.494758386101157
Al 6.2136071560163835 4.4643131125901085 6.494758386101157
Al 8.850683858820048 4.646586223558315 6.494758386101157
Al 4.767675879525681 6.714892556109172 6.494758386101157
Al 7.448676143921626 6.9162971972307465 6.494758386101157
Al 5.978039270081037 9.057919354818708 6.494758386101157
Al 8.60302173497327 9.343726816650193 6.494758386101157
