8
Energy = -19.67275474 eV
Al 7.773553084384379 8.264298417158525 11.503343911405532
Al 11.148182170611856 8.242382060348366 8.719961872282395
Al 11.799233850548466 10.378591129479238 7.482463268377302
Al 7.803647601423491 10.463064470300028 10.025421195947317
Al 10.14270953763192 11.113116385596067 9.290138161188402
Al 8.839029482252604 9.307533930682347 7.701705380112658
Al 8.987439577734271 7.11787907560748 9.445702718286716
Al 6.790589024896962 8.371254520443777 8.863564317852243
