8
Energy = -19.20552312 eV
Al 9.285389747553857 7.030980679111475 8.135083536214632
Al 7.448637677303861 6.0956339079940225 9.667557472234545
Al 6.490308439090001 7.38815423977179 7.410126482793742
Al 8.531805526520243 8.14749149404762 5.978016961064555
Al 7.314047216570306 4.83240322132332 7.436212827244632
Al 5.657551254299113 5.542342922455274 5.616428354015691
Al 6.167894925410799 8.335917994192519 4.8993328841444885
Al 3.8932995960377075 7.4110773174247635 5.649546214077929
