8
Energy = -19.09927363 eV
Al 5.009016121721225 7.601469805971116 8.9499568590029
Al 8.42208715004335 6.350008259529355 6.404455345702926
Al 5.892943013196737 6.8825726562311 6.646073054842147
Al 8.61421681541353 9.978648818621478 8.952543335675795
Al 9.997249949009776 8.154735147767484 7.730272273895916
Al 6.474996406408383 9.278474945525774 10.186472065308392
Al 7.676949377478838 7.370425409309392 8.728403754176547
Al 10.616073998416267 7.268018872471185 5.3713813788881115
