8
Energy = -17.9773628 eV
Al 9.008838609280371 7.635980474927397 6.245137490518844
Al 9.007958740144248 6.667664159339272 8.662682113952323
Al 4.021909657260014 7.715658809436717 8.496395961542797
Al 6.444080114651277 6.909222528706187 7.889498986136553
Al 4.452124297491331 7.004010240677079 6.068460498598423
Al 6.941749180842298 6.243153745307146 5.289081898236991
Al 8.544946475165851 4.839732393744896 6.876526733847759
Al 4.882662710679894 6.242030718058413 3.6234509855805714
