8
Energy = -19.50447987 eV
Al 8.154994144520712 4.432258063330335 6.165632664951637
Al 8.920210005103765 6.627800605236903 7.198401087400971
Al 6.186966193046528 5.164747950004567 4.596263073755405
Al 5.97258694881673 5.5802305154422065 7.306992544904222
Al 6.916328498471415 7.570835748301788 5.654886774930249
Al 4.258659364958752 6.731682030467162 5.271126688267275
Al 6.985779965258195 7.832398907342129 8.425266019690534
Al 4.607517884133133 8.063089184184264 7.384474150409063
