8
Energy = -20.09777058 eV
Al 6.665317044478486 7.597541860546132 4.3172342324443
Al 7.902718475636933 6.072847986037806 6.051354425478828
Al 6.922625752019039 8.358945046953789 6.849194434832884
Al 8.168259230839698 6.7621943779090135 8.876239028973089
Al 5.50160103658788 5.412495178584041 5.240074772205973
Al 4.5458495978636755 7.822703317187548 5.816686280154662
Al 6.728748435719939 3.6809534871272938 7.153343840632167
Al 5.564561847055179 6.292000165855197 7.69555440547892
