8
Energy = -19.15112173 eV
Al 9.599800824502214 6.974888133235406 7.126430658932759
Al 6.335017800077704 5.596048273446427 9.245936398932312
Al 6.836091848080523 6.853965650617032 6.837232343193251
Al 6.445417641986413 8.869666303862694 4.920545286890199
Al 8.63924979321356 7.625407535262639 4.890052149049082
Al 4.411044852328294 7.943889182160131 6.066459970367352
Al 4.307618327823311 6.2110403969503505 7.880557915471535
Al 8.448287267814248 4.934582262299945 8.042751415674605
