8
Energy = -19.94338925 eV
Al 6.663854271040775 6.789972999510476 4.41069757108581
Al 8.501376653762744 6.938880424692224 6.4686110401282475
Al 7.07668120006491 4.808487245499975 6.035531746687259
Al 7.106898334348975 9.193333098139876 5.639347733136322
Al 5.80964157886759 3.012494215288262 7.747165334373901
Al 5.283468061224434 5.736451174821728 7.706171257852862
Al 4.846735975548782 7.628918003710193 5.983964547330252
Al 6.711343925141091 7.891462838336703 8.008510769404785
