8
Energy = -19.6109017 eV
Al 7.550422924312683 7.550422924312683 7.550422924312683
Al 5.578730165863066 5.578730165863066 7.550422924312683
Al 7.550422924312683 5.578730165863066 5.578730165863066
Al 5.578730165863066 7.550422924312683 5.578730165863066
Al 8.142379 4.98677409017575 8.142379
Al 8.142379 8.142379 4.98677409017575
Al 4.98677409017575 8.142379 8.142379
Al 4.98677409017575 4.98677409017575 4.98677409017575
