9
Energy = -23.58521166 eV
Al 8.368133690050724 6.41055067946522 4.340704545692255
Al 6.6987878764932764 4.481388168667912 4.918548908229716
Al 8.344263858945224 8.579281766149807 5.8672453408084335
Al 7.648427322223438 5.95029906325392 7.064698558192948
Al 5.810011213585114 7.0462645165199245 5.42777044271931
Al 6.542361337716367 8.375220164688036 7.7352891575491025
Al 4.985850466454603 4.563538432762619 6.835268586689408
Al 5.91012656317993 5.99833864571245 8.921250465486636
Al 4.192037671351712 7.095118562780379 7.389223994632583
