9
Energy = -20.26200406 eV
Al 7.888859378141585 5.424350992411839 9.66877303787429
Al 7.671256057000082 4.3624984342907975 7.352278977117176
Al 6.709416522790105 7.548409094896187 8.867313560796186
Al 7.52162993513484 3.3789338476294173 4.994810451618886
Al 6.502826966125787 6.505802103945815 6.515306096696286
Al 5.457075112535284 9.616741525564795 8.034538244222361
Al 6.372529604788011 5.498668347634343 4.142348982249032
Al 5.2938995915562534 8.627031438143845 5.680868502088679
Al 5.147819912730143 7.5987977661567 3.342965242857929
