9
Energy = -22.18381684 eV
Al 9.4960467187332 6.551291244895072 7.155640266660127
Al 7.997068683357737 5.531757189929353 9.027461633542396
Al 7.6015409550646975 7.773066415087315 5.784983439752683
Al 7.34776582256332 5.074135398726794 6.451848539627447
Al 5.878697958655101 3.8295435001168308 4.689422923376971
Al 5.739288471463202 6.603260373529975 8.162518042721592
Al 5.269557770599701 6.260636036698147 5.432116903829144
Al 5.360936031689917 8.91450344433888 4.970954858207084
Al 3.895271646954755 8.03439237257491 6.935615899163799
