9
Energy = -23.20584068 eV
Al 6.073957807685043 9.844113617781217 7.964371297191537
Al 7.128915808106262 9.294192002568177 5.748167102320197
Al 7.397101299891301 6.9942934094795834 4.764748871908207
Al 8.08624904654724 9.533573246610931 9.46472101624502
Al 8.817102447443938 7.877173930432389 7.471726441694794
Al 6.3525600864155924 7.157235227867401 7.528701174840522
Al 7.442615922516398 7.1669703091695585 10.04149595566576
Al 8.855996328839527 5.384481530072061 8.946583728575149
Al 8.227101618935711 5.357139089706609 6.504571354459233
