9
Energy = -23.34372915 eV
Al 8.460090467905438 4.492337029681422 5.985756312825504
Al 7.687924304861914 7.349820681947887 6.372850106540327
Al 8.15773761441279 5.328395300175995 8.459521105311339
Al 6.64639610130733 5.810244894811889 4.59845094524105
Al 6.163264322873394 7.0643692819517705 8.430435092937541
Al 5.965374758121511 4.6362711891276795 7.053154733084445
Al 5.606283952400307 8.23766395706245 4.441232075666068
Al 5.3233039946992635 9.035515254554022 6.919593694815635
Al 4.48962448341823 6.5453824106868055 6.239005933578261
