9
Energy = -22.87415818 eV
Al 9.361084428266405 7.464946573358181 6.947815600674056
Al 8.256577350378546 5.164902432645811 6.150428199484876
Al 6.9632698341598935 6.687420193026316 8.119385030901167
Al 7.282501982189515 8.154455480775948 5.635779633381538
Al 6.538434357089487 4.056120636019453 7.726486153845019
Al 4.999489934348053 9.312779239046188 5.310111408141643
Al 4.743142670595331 7.189150253986034 6.890213680159259
Al 6.080106840230592 5.843317910475724 4.957933423841394
Al 4.278300478096888 4.629815156021444 6.764754744925886
