9
Energy = -23.11943133 eV
Al 8.090392904695651 6.596021475734922 5.412751616079376
Al 7.862238501163977 4.569746680136399 7.00239930103333
Al 6.948716064049355 8.598844414455565 4.181172237119176
Al 8.151780149980317 6.907380981689236 8.181884035149725
Al 6.195941458069722 8.12237324704644 6.733062818512426
Al 5.584216934457335 6.384047014620972 8.513389738827506
Al 4.439214405674971 7.838550312424211 4.56607900004362
Al 5.6118343162686335 5.654969512705199 5.886932753567402
Al 5.61566526563905 3.828066361186192 8.022328499666955
