9
Energy = -22.99007266 eV
Al 6.66178352447939 7.965682929283398 4.306704714272586
Al 7.618720446531849 5.725874264070808 5.01151143654311
Al 9.475982380209235 5.842045361146098 6.721586957708778
Al 6.891622820267547 5.0821840082345675 7.507969098867705
Al 7.310786880927078 7.7216437408331675 6.954220227268238
Al 8.78971257452505 6.4929705615843565 9.075836521407364
Al 5.010377582353338 8.857672067017411 6.036596132296924
Al 5.5243308342516855 9.04783827768478 8.531688705987543
Al 6.308351356176556 6.819287053654036 9.44316823479617
