9
Energy = -21.06352593 eV
Al 4.609399387057006 5.177436676168255 6.559523764560629
Al 3.6034113174158695 7.555867264570641 6.574387287613643
Al 5.050107167728068 9.671872417705224 6.547959718564369
Al 6.207981032471765 7.291588204915071 6.565032345299305
Al 7.330786906114531 4.9833528667285645 6.570115871749466
Al 10.073205530238925 4.875781809162087 6.5550254022645476
Al 8.858364592028424 7.243624774774877 6.558491852983958
Al 7.608110425185685 9.503244473597636 6.574728227639278
Al 5.721489577852325 2.760087533512977 6.557591493765074
