9
Energy = -23.37282331 eV
Al 10.998442181608292 9.73980324008931 7.045891469335232
Al 8.783905685363703 8.94334470363037 5.936946272814204
Al 7.4153737730843705 6.758302138710906 6.532358209388315
Al 7.566467361709318 7.993049313058002 9.716529513530375
Al 9.483466531718419 7.3341371902468175 8.046867270345157
Al 8.898518260774699 9.968598431465505 8.563448261672548
Al 6.460156338644099 8.947383594946855 7.563121712982
Al 5.317232480304248 6.608631448096525 8.521917223385962
Al 7.678054399472225 5.489354275098078 8.84991921571948
