9
Energy = -22.8185448 eV
Al 7.810187381982001 7.465848408871723 5.515750310054621
Al 5.827127902174553 8.804398369039934 6.4965371722210286
Al 6.1622678260865875 3.606451709081744 6.886609319642856
Al 7.84282068146125 10.267279836816153 5.377995999535899
Al 4.791691406680368 6.339104126041983 6.152543932658732
Al 6.597552738376657 5.230851857332465 4.731777828620411
Al 6.6068427492972495 6.698702448111326 8.085495830286758
Al 8.267094866667316 5.205080172043934 6.829535251573262
Al 4.604539091543022 4.892407716929049 8.43387899967516
