17
Energy = -76.35308402 eV
As 9.15131276861341 6.792979973135787 8.094797138021649
As 7.736170695393608 8.007625424225497 4.308875372076217
As 7.750220669557989 8.80331312894869 8.433414701358716
As 8.044711358431831 3.0575057630772973 8.158229080375158
As 7.7795821920016355 7.018155656013477 10.137493534880674
As 8.329075618380811 4.97668092632294 6.57845262960293
As 7.100324118873249 8.273393831687434 1.9296953478047316
As 6.715602981232605 6.112618796813616 3.0799542113120917
As 5.923340850102189 9.42151492332246 5.25721970134023
As 5.927555520598271 4.916667966387552 6.00701583561054
As 5.678130318353987 2.785607759238742 7.319154637200876
As 5.412922371198467 8.66350915909206 7.590244178747633
As 6.114531766899467 3.4878318214079123 9.640002190406914
As 5.549651057504529 5.8875435563188505 9.828374335622705
As 4.641435307918778 6.319013302431934 7.58572540719232
As 4.761552088858731 7.442519539826395 2.2988451756492077
As 3.9006914910454946 8.550329646714244 4.269317697762007
