12
Energy = -53.96841103 eV
As 7.06090210231189 4.279081736212422 10.63167406745737
As 8.963511670395071 5.8928209268846725 8.292879856982823
As 8.584782028020681 6.259220223643616 10.745906148170558
As 6.120946694988911 6.542918993741624 10.49340502891487
As 6.533961165355987 5.268599648121531 8.389773896945464
As 9.15308156472776 8.23023609886012 7.434155990969391
As 9.053525260655059 7.506383659048713 5.098885131735188
As 6.975826767163363 9.282505414119019 7.805241468777911
As 6.709404860046379 7.2614537182038275 4.4117135926710045
As 5.353747193504402 8.458308627032887 6.173884293896848
As 7.976812755528856 9.371497769903293 3.95077005079413
As 6.628976084193571 10.576938027332835 5.758334354199535
