14
Energy = -63.27999729 eV
As 7.824485053800773 6.174885526836655 11.222599154783335
As 7.906532720036466 7.675646693469748 7.691456315350987
As 8.326928111801744 6.247574020474956 5.6626219144816785
As 5.852957295809219 5.334475516370637 9.958510393775057
As 8.051314993028013 4.197708576670962 9.762554481580253
As 7.447520168983252 7.813965274924745 3.948019526277491
As 9.263238153359639 6.285116866655547 9.211921837052657
As 6.1408531393682 6.20190110823061 2.6168729786186113
As 5.4236587489532555 9.034724905504829 4.6970831551164896
As 5.637681260531919 6.661209347502272 7.897868194834934
As 6.366467706195006 4.8405365484958764 6.3337196997499445
As 4.364763931704216 8.047161295327193 2.6511316309403794
As 4.765018146930197 5.182384209560565 4.428418084802671
As 3.6510867110260916 7.325216251503849 4.939728774163807
