11
Energy = -48.84924845 eV
As 10.862944269644567 8.224984081025568 7.347259203566672
As 9.417892510594939 6.282403299140655 7.901188964440733
As 8.024310400539383 6.406983826646894 5.880067583385206
As 9.837687650911706 9.564796485250627 8.90668485202971
As 8.25338802955686 7.772175067504506 9.582725429701995
As 7.078036645541509 8.670275838049271 6.029697981305464
As 6.315275064455686 8.673532147735383 8.366828001027288
As 6.3081747528586405 4.998011506719367 6.976627345599406
As 4.900688434443051 8.09541645714222 5.081093732471108
As 5.190286902153206 6.478220799208729 8.599087412623247
As 4.182066268589357 6.130972136510926 6.347888655594287
