17
Energy = -77.06376406 eV
As 10.260478595874318 7.211276320435005 8.369263718770815
As 8.746235795887559 5.671009126792286 7.201498322846249
As 8.234887984825994 6.7843980412668765 5.013552639186539
As 10.292707532496813 5.651845082078387 10.31362319390531
As 8.867722719359993 9.101791182649661 11.435639109964793
As 8.820232343320287 9.12895681207201 8.99613005211425
As 7.63140507352256 9.137694800139363 5.442625131058886
As 8.993121135288217 6.77725269707965 12.107139971195473
As 5.616359286285948 7.073044594084217 2.671615941416708
As 7.881914236195368 5.081958101622931 10.643711647437488
As 6.483603199002128 8.28893598682966 9.13017840996678
As 6.271457668179944 9.36840866287951 3.371250658960233
As 5.6498529683568295 9.1164997054171 6.889411328138395
As 6.720226155572467 5.90744845036864 8.60347434417756
As 6.041842140278727 5.756052655396815 4.749389369209599
As 3.9953957062079613 8.522793025317576 3.9355729786932194
As 4.423378333153754 7.196667597275016 6.015656486310752
