15
Energy = -67.98319607 eV
As 6.444637740356592 7.446156428142532 2.478946351077491
As 7.755288341644738 5.948505274790787 3.9507559153067575
As 5.345226530198706 6.312362280277941 4.394316745648574
As 7.512202902888632 9.413698747922272 5.697769919352353
As 9.05343298847542 7.492549085871149 5.3769896697114055
As 5.5368831604056306 8.782279186462933 4.356410196597514
As 8.80407886142797 6.138937015531693 7.426657943987089
As 6.441255865833884 6.541036987062589 7.992636887853399
As 6.4279664664148495 9.002850243035937 7.877808254436076
As 9.934341134671055 7.6441232315683605 9.024694227927423
As 8.341696342869435 9.550138479361372 9.337589526999443
As 9.187883183088239 6.051603293600409 10.766083355046998
As 6.699890715487039 6.343964796585742 10.501788777892994
As 6.927338557852857 8.750032085256704 11.204377500170498
As 8.583830620044866 7.5777162761894985 12.609128139651743
