12
Energy = -54.30277542 eV
As 7.23722995401531 8.686348237180432 4.39236109656441
As 5.646374741598817 8.427223191533498 6.297143912725236
As 7.993944702761272 7.59765450802759 6.454396067523164
As 8.120821373178593 6.360639424722888 4.282604359494871
As 4.171918398777611 5.695184817287979 3.818798359412402
As 3.9542274113024067 6.593104317874675 6.078283816266688
As 4.882431949481067 4.796454044113596 7.437272092815869
As 6.402241006809665 3.472862325256878 5.952120129736441
As 2.9690012711781013 3.320516932219388 6.7832516466949935
As 2.9024495802740824 3.61526069827132 4.310212133455508
As 6.3761066975510605 4.630138398896448 3.812710369805393
As 4.497825264797454 1.9874262051195946 5.302634692097481
