16
Energy = -72.07032777 eV
As 10.90849493458491 9.445658428298879 8.415385808718929
As 11.362929641947419 8.377476243933508 6.216199531444137
As 9.645359669592757 10.184858058763064 6.404961277447854
As 9.34780650913427 7.978787150517741 9.677699646673995
As 9.700945882215438 5.775848719850169 8.539567857521709
As 7.171754651841034 8.836054369489664 8.925970587937389
As 10.11414304792044 6.23624854222162 6.142287096045113
As 7.371042977744868 9.070190303406088 6.463262633101145
As 6.260775490556884 6.692488765624339 9.741944000343267
As 7.3666168812218435 4.889617415948385 8.461103304568159
As 7.998621907631755 7.056142182330324 5.171628299248461
As 6.637337890663907 5.211323774862806 6.061431944173144
As 3.9951944850230086 6.4204407611181 8.781073917571977
As 3.5996287208415345 8.834091592451824 8.312526753190012
As 4.389745605317572 6.2791716928194425 6.301370750698887
As 4.518592563896699 8.76180680955248 6.156670564117873
