16
Energy = -71.8222131 eV
As 7.989259841056351 4.052317792799013 10.270529777939057
As 9.612612106214428 4.025924982095506 8.33467391705737
As 9.823249446299139 5.722672151451445 10.144984017973593
As 6.198938917914734 5.107269278062025 8.878444797261583
As 7.663273743236428 4.579007398128216 6.910575817612179
As 8.914974442319647 7.903744086542156 9.484466548493266
As 6.561167549505727 7.285058616011752 9.986911680613156
As 9.60929765208993 8.02502125910115 7.055004444308227
As 4.86425349141051 8.861570175860317 9.173157663331336
As 8.328913679081468 6.547412250270227 5.5272630367863025
As 8.286585241446652 10.10285246307013 7.143733642610453
As 5.9559601860675295 9.231904875793148 7.134823994689029
As 6.028720788714312 7.406847798286273 5.421509738186567
As 7.842345344739643 10.883916520360328 4.833428488270014
As 6.340376791485663 9.21279611937143 3.75248728664426
As 5.383888135891168 10.918844494372841 5.311947301249744
