18
Energy = -81.08784562 eV
As 7.43882939275174 11.691692093947 4.70386342871517
As 5.952006408753448 12.130084375261962 6.633284230718542
As 8.403652303568107 12.526904568043024 6.825327997147929
As 8.582804623795365 9.47536741253349 5.2155481607584475
As 5.186368664321001 8.504135227920196 6.927739206924732
As 6.3632089182166744 10.236271349869984 8.214743578192145
As 8.761609928712149 10.076416452963523 7.610759462288808
As 6.478816144456921 8.267881255885762 4.818163121992547
As 9.679642437296312 6.511291352399323 5.707046918023279
As 9.834856673586739 5.353361512116426 7.830171102994124
As 7.327504615105985 5.957230106589601 5.5530510868257394
As 8.129463658326426 3.4855621044153846 7.984491533500763
As 8.612263240133329 7.033171548080475 9.194238390804504
As 8.41833207073168 3.3314728927629154 10.471058113689054
As 5.816669174310567 4.344107895454306 8.389696415943229
As 6.567207292740108 6.625481573847528 7.856644175997894
As 8.077879725431501 5.690805587278637 11.216429085559556
As 6.104178937049723 4.265271850946256 10.8559097417256
