16
Energy = -70.10496411 eV
As 5.775139885111933 9.901607827035086 5.473457263222067
As 7.669123362012984 9.523885663406759 6.780372493781772
As 6.272165909428506 7.7046396268824315 8.435074410945791
As 4.412943324150024 8.710336272321676 7.154662046133715
As 6.1340946291210265 7.234139662953922 4.193557447341268
As 3.0310549733448804 6.571238938261656 6.7529846128296205
As 4.306355091383708 5.6401315775729195 8.625427102688386
As 7.321575024681885 6.86351345867087 6.3429773806365155
As 3.9220163709934264 6.1566573603319545 4.448569343105791
As 6.715071273803005 5.027208711548925 2.9470830549387386
As 9.129986412701896 5.006258778589465 6.502257865246036
As 7.992557003274983 3.645964982503895 4.63356101488995
As 8.102076726032823 4.118401473752195 8.452889304803746
As 4.655892759843833 3.8464118176902744 3.782562485003245
As 6.065461342441219 4.721857642209062 7.244607039730866
As 5.928291300137193 2.7833248835655358 5.6898211599041275
