18
Energy = -81.01796907 eV
As 9.335718366085036 7.556354904475838 7.349123707854158
As 7.0179515973519395 9.481979511379858 5.231339950652176
As 7.410006673737218 3.692944258223201 5.648765360085787
As 7.724901850838413 9.571055659578606 7.58882536040864
As 8.964446540552132 6.4936688088644425 5.16593966740271
As 4.77253623711271 10.454764448375762 5.372648508169843
As 9.067584913853945 4.130659322736132 7.413629398109287
As 8.055538908091512 5.952771766498105 8.799331369809535
As 4.700193342033711 6.651119785463723 3.9582263992117825
As 6.647836258822856 7.073549215312135 5.445068481938236
As 3.6480501279171555 8.870416197114118 3.7434854192437026
As 7.9405540636935426 2.0903928791283897 8.506168561869345
As 5.864496850809822 6.273943374866821 7.758925321711579
As 5.83240747086028 2.5208729699933263 7.277983540930539
As 5.704879178340775 8.528049085615292 8.694195865850816
As 3.771755615339659 9.138732991536163 7.222086259370372
As 7.571731933596019 1.2043458930575544 6.212794917700447
As 2.9816777680618833 7.326646624879141 5.623729606779808
