10
Energy = -44.30184815 eV
As 6.412597257992546 7.125319167296042 4.034501124163502
As 4.7578677602046895 8.658733483188866 4.2572352310140165
As 6.914839389931225 9.119099296271278 5.400746615420404
As 9.243692355360947 5.60820526078852 7.783992010449853
As 6.83606610296863 5.8841525518830124 7.432070983576232
As 6.211703929672469 8.2400776532609 7.6492037088629345
As 8.053311370880222 9.216789420326716 8.920525205916244
As 7.625921058953989 5.351907329492699 9.682962625402814
As 8.464612572159666 7.562555574022357 10.666325146015229
As 10.045479884671941 7.799251946265655 8.738529031974686
