17
Energy = -74.67679046 eV
As 6.168046225503147 8.629878803449774 7.6200444046222975
As 8.174909568495588 9.169896520341705 6.378810104079219
As 4.715969637779025 7.423384415742548 5.720133674360493
As 8.293739812289331 5.357258381113819 6.163557199268545
As 5.073946726539514 5.495672062661948 9.227318396080745
As 5.19327258769939 8.961085119171804 3.67879120540509
As 8.123763121411189 7.221649559685837 7.926923431932125
As 7.046415939064422 7.659786317639838 4.631508085571061
As 8.30784306106542 3.783715973041584 8.011069174271908
As 5.006267331678324 6.911013893586703 2.230658000080195
As 7.237851493557883 6.0191276282087856 2.679752361693667
As 3.283162523778286 5.925502467135566 7.814776254290536
As 5.910154158085796 3.3611444800312267 8.507549332911475
As 4.540562114444773 5.265448030385747 4.2715959423380685
As 6.714670706953967 4.16637899140692 4.557411591364693
As 3.085467013295904 4.127007023804245 6.147438711612472
As 5.037702186771534 2.7277932006153986 6.357837445128652
