10
Energy = -43.05295254 eV
As 8.716013542528398 6.010598026330273 7.857949273561054
As 8.160040745225505 8.335890040939457 5.395499415314845
As 8.927659768990749 5.958124525682738 5.366630813527286
As 8.310757340244528 8.355590972491632 7.767781212269921
As 6.670780371260492 4.9059977495693134 6.619923911141221
As 3.1301897863132986 6.616011226176959 7.289935007776225
As 6.277796197994838 6.563091814104874 4.847462921409063
As 4.477804929055752 4.463466712804875 4.957126175527503
As 3.6506271579794403 6.820977922688197 4.979772095028167
As 4.203079993699803 4.495001095824706 7.442669261057329
