17
Energy = -76.09020616 eV
As 3.3071897917143342 7.736079927904647 9.367809645684593
As 4.378341991446334 9.511513432391949 6.546760856073103
As 3.7267447846893087 7.113443204307648 7.084699288218765
As 5.487049797737482 8.445108339048804 10.144507619930847
As 5.762513676585361 10.270942085149846 8.463796272772683
As 6.528668712962067 6.288819133222232 9.555779856273446
As 5.764018334292957 5.696588198670323 7.247371832856949
As 8.885641323211876 7.00841984584575 9.34623239119994
As 8.772537677707636 8.069952193397695 7.126902991833877
As 7.432469449981188 6.6024674095367075 5.655847532338581
As 6.388962049520023 9.585457674021614 5.146278872547598
As 7.82830667024933 10.37853560665841 6.982802805076096
As 9.832988972277537 4.928233385892374 8.47732344210027
As 8.957224413080821 4.7033891014055325 6.12650791915501
As 11.168966882967206 7.926459827577876 6.371221154991072
As 11.965736204080303 5.929294175364685 7.5916941669535225
As 11.079304337573374 5.7315294788486755 5.23698094522444
