13
Energy = -56.67634023 eV
As 4.32503035357736 5.799533537988819 7.299897444714194
As 4.784128275830473 7.33958789038166 5.4357132686368645
As 7.903129434533248 5.4218744900343046 3.443454667549718
As 2.7110117456115517 7.516372474400424 6.698420091374712
As 6.6666305330766775 4.018122732483008 5.096868561627688
As 2.8700402364158353 3.785957250243957 6.860936475519326
As 0.9643611826288763 4.149023779297739 5.337296096630397
As 4.040830939918351 6.357475088814618 3.2675469646901996
As 2.7821225888518004 2.6252614587365426 4.658026225817001
As 5.666548550412526 4.479805409793665 2.8719958331751743
As 8.825279048337622 3.314806879887971 2.508448810961775
As 2.279058195187291 4.629577791242496 3.2604647103973288
As 7.668317115020837 2.0113229577376233 4.028864285904646
