17
Energy = -76.74360742 eV
As 12.578522707230805 4.767021702689981 6.386177283410529
As 12.154777917144914 4.874099712989256 8.843876862534183
As 10.91944967017333 3.2423950401944865 7.458814369994912
As 11.128734741557373 7.075026970772636 8.340601492050133
As 10.740931767465788 6.524058597840934 5.962029283242797
As 9.232370459396504 4.581782774258974 6.233989035097671
As 8.87756890588563 6.943077612714376 9.368217068950713
As 7.644352773440306 5.276942360995754 8.003766500197386
As 5.622157921266941 10.932223985845448 5.880267378199499
As 7.662476981515703 7.660644985281706 7.325725516052987
As 4.123180486312954 9.240099678635607 5.077998623145549
As 5.622048714160705 10.574399466910815 8.283442393932953
As 3.9709231452113194 7.472610975810874 6.846065626279583
As 5.552976216201475 8.125799208323008 8.586397107203826
As 2.2537503548858937 10.498705598799488 6.213790631056249
As 3.160539599839897 10.910856066607678 8.499986076268943
As 2.1253690171448385 8.726559019732338 7.985555138340259
