15
Energy = -65.24918238 eV
As 7.083102001951876 3.3510266061256395 2.6271178846823617
As 7.011358746162203 5.577945827944046 3.612911247421866
As 5.284208084070855 8.145599884619285 6.815225020540324
As 4.928693453844282 2.7022887103573336 3.691411841309424
As 9.502222416082116 5.834779849006335 3.9424581201790088
As 7.319114896161682 8.560329610042432 5.312654878731739
As 4.8027860429848594 4.2365985932944294 5.666402672673417
As 8.139483699002595 4.665507271398357 5.633811206019077
As 5.637506911176326 2.129595733562324 5.970846406128594
As 6.939951645206675 9.876871900282126 7.387524334215874
As 9.046698605139051 6.967492068986543 6.115370936596159
As 6.891486466753018 7.7565734913543904 8.657610121983597
As 3.390599144287368 9.13369507214971 8.862944413789897
As 3.412540283369465 7.096558910074936 9.928525612646254
As 5.262243420116337 8.617132287111636 10.427181119392255
