18
Energy = -81.12881552 eV
As 8.262052258296404 11.446588060062963 10.405123748153533
As 8.707904624693361 12.724337980897447 8.346286964716947
As 6.48452599423638 11.748668886743776 8.68642100809254
As 9.833777357308948 9.749411222906167 9.477535685651114
As 9.44484405266121 10.355113947843849 7.115972017144244
As 8.836347097756486 7.441964556925054 9.333520187626956
As 6.986626045960277 9.94410962226852 7.0212399310885445
As 10.060845397744375 7.525861524158722 7.196229363310158
As 6.573716655233564 8.343937360244626 8.847657010557313
As 6.185982023654231 6.289778383677159 7.444722467560753
As 6.564987936655962 6.915316434993602 5.126148270407327
As 7.539576056782929 4.267054845395601 7.996806868352111
As 9.047303815933683 6.456021102310709 5.296907342143351
As 3.999853252423103 5.063043100264704 7.473305953804681
As 5.373293205256303 2.9734503893001576 7.813348743752939
As 8.48844613762979 3.9675579591702514 5.775630555831943
As 6.5215964703030505 4.549192960251827 4.365236183624069
As 4.554396230423306 3.584906633563436 5.570820901022828
