16
Energy = -71.61823096 eV
As 8.33421490954076 2.9554203386580613 8.709621810600662
As 7.870553918163956 3.3357110874763425 6.290401500353969
As 10.141569946167754 3.8502174580796247 7.205483041040077
As 7.965576996275109 5.202682278696994 9.725653709999776
As 5.798248211505181 5.372978639129289 8.564623350873452
As 6.624737943662283 5.4687882072953675 6.204940336918667
As 8.779520688144071 6.678284741528002 6.113635599967069
As 9.780103262591618 6.0966149801665575 8.255556114326811
As 4.572241468325056 7.408834809886355 9.127539331215502
As 7.610129652159126 8.806960772212367 6.789108059777614
As 6.492234996711356 10.072494159576214 4.876550349892807
As 6.552427521766757 8.67922405922598 9.005758155738315
As 5.4947168368413895 11.699278058162907 6.381100354703983
As 6.47580577330089 11.139330558532448 8.693738552058333
As 7.853904958751241 12.00401487339268 5.630833480079027
As 8.762571202854327 10.787073820636376 7.73944367589547
