11
Energy = -48.78883636 eV
As 3.3222630467836516 7.032174593667173 4.507558801761841
As 5.233875628314247 7.587736697265549 2.9386915306885864
As 3.596077667545559 4.634459251336175 3.808618537368971
As 4.321849095760588 6.500924239657441 6.763696077232936
As 3.788315362330514 4.12723892454108 6.25475593984182
As 5.839568893895678 5.125469284341871 2.7733974350854638
As 7.228833802746783 6.704699340727352 4.036854016831936
As 6.228716359193904 4.01970833603728 8.821596253819544
As 6.738880563962934 6.834666144222879 6.45312256560929
As 5.905399832443833 2.9136854354124817 6.671689004559791
As 7.695522277944879 4.594832162162989 6.970166074612267
