19
Energy = -86.20838628 eV
As 11.27506955777696 8.45744016623281 5.214991957554508
As 10.502683323840595 9.230641475870476 7.439805198533399
As 11.33610786491784 6.877544212900085 7.134748708240829
As 9.215219526075588 7.914970881960351 3.9548535014009727
As 7.590338419722928 9.148322711821024 5.343990881328527
As 8.974255653953218 6.007975485811393 7.247324761557016
As 8.16084880379251 8.323635551809248 7.589136822509139
As 8.962137194218558 5.625758113404168 4.805120778418542
As 5.2544710643222325 3.9397300685661585 4.917799017413695
As 6.692063957723501 5.654879527778518 3.8051851507998986
As 5.701029812201257 6.159223889537009 8.012522606002083
As 5.665505027746518 7.841321929253671 4.4401064930387495
As 5.489894111644648 3.784132612765518 7.432374409880074
As 4.145539857379645 7.241194905957347 6.438195520969605
As 3.17699360187756 5.314115386284187 5.219154417433466
As 3.0394627114071326 3.653682072767238 7.0575952456982085
As 4.000077046790942 6.2421017877900375 9.894104472965687
As 2.2180147364195957 7.237357255806609 8.509286251157762
As 2.1204944057553643 4.866178641251227 9.063910482664761
