16
Energy = -70.93169533 eV
As 6.992380233447056 3.908172094944271 7.317520383882463
As 3.734335527956481 5.812097006944837 7.614880396068374
As 1.7907001875600501 4.427331786435341 8.34163503770878
As 7.264706335493891 5.879641423653901 5.617000693040166
As 1.4110361593295246 6.243149452431991 6.755160837530364
As 5.1708641191989715 2.4389564172573297 6.6536994690293945
As 7.351086129282482 2.1597454511488654 5.530791845164433
As 4.018087198964284 7.101856753591256 2.888111747396818
As 2.9604098966566377 4.839347420707358 2.8219123666124237
As 6.3789426803315905 6.803032870689563 3.380558677728869
As 1.6437455146592375 3.9160546098611753 5.89679497803423
As 8.183088186164401 4.081258867981407 4.152963853110778
As 3.747784730551924 5.877968866844681 0.7172620085500645
As 4.133649581730402 4.4138465264298405 5.581735434362946
As 4.800159058315338 3.786266748352437 1.5371720751200753
As 6.977452086259995 4.80884036315364 2.055916604248176
