14
Energy = -62.88801967 eV
As 7.309734447689443 12.406340399584792 7.173340807279384
As 5.4676904761283 10.728886619269348 7.134271537990227
As 6.323167781987564 11.648483531094667 9.288999526908182
As 8.515888105466729 10.720820029949522 8.55798391864799
As 8.133251531051298 8.437422217678684 5.020778393604418
As 7.286674415453383 8.986610885060138 7.179571802022091
As 9.588121622593619 5.265473342528003 6.677026941309417
As 8.813789910390298 6.061850061690344 8.906104739433216
As 7.858684690698535 6.0333568658193215 5.102200592111831
As 6.583620446134028 7.02340265804894 8.530691546774651
As 5.849529581127076 5.824866123671891 6.519196877827104
As 8.592791478028143 3.019843454796145 7.111959541514906
As 7.787728896769886 3.825014490676401 9.363028094749128
As 6.192974811038066 3.565732174352232 7.4672637008297675
