10
Energy = -43.5201386 eV
As 6.420716956061335 8.484601146713182 9.951390549961356
As 7.804002570404746 6.384878838457559 8.217755279740638
As 9.455176326280915 6.446150144083836 4.965504788840386
As 8.819161822674491 7.985141683072692 6.749449311551984
As 8.466596148477082 9.819514470337797 10.191757859193855
As 6.425135301893892 5.192091634522336 6.565315785876745
As 6.6975986587324545 10.563126410222432 8.662936185333681
As 7.127943461317126 5.898359054522793 4.25578870689951
As 8.399274591397054 4.197850720893864 5.432665775276539
As 6.367929356910309 10.742514516965649 11.093669717816237
