12
Energy = -53.62390199 eV
As 9.629768621179654 6.294838995261865 6.871325164195056
As 9.865597974873989 11.042596760153128 9.321166303679076
As 7.143057798852354 6.23351229107287 7.2369433655170425
As 10.768333481199601 8.74169081325715 9.726235772532718
As 8.698307328128752 5.531365794230722 9.046873159776716
As 7.372887421876564 10.973536075566969 9.718621076585944
As 9.49613897246106 10.534884836114108 6.864843453574803
As 8.88511697080977 7.4425389718154324 10.626316698622231
As 7.023616767712595 10.48178354760396 7.255476731834847
As 6.030399317785767 8.278803145216814 7.965412987223189
As 10.783233730660609 8.407901119306336 7.258196511547191
As 6.75135513836059 8.624336491217232 10.324454830063926
