19
Energy = -85.55673814 eV
As 12.28782818242474 6.326806565390238 8.535686497802564
As 11.590624497935504 8.542081855095297 9.490400290720372
As 10.532233420412313 4.731199552004204 9.214518533882611
As 10.569918197385874 5.685378527232196 6.911511424958504
As 9.715147879169821 8.00942236171023 11.057715370932115
As 9.99854261184683 9.42043470630893 7.829186372596109
As 8.682018107769208 10.001096170527836 9.847402312034593
As 8.575139953530913 6.19741279793117 9.857980668416422
As 8.61681867504612 7.292332434205733 7.653546719620915
As 6.877357343860204 6.123588793009442 6.149765867010462
As 6.716509183145854 10.613951720250654 7.061490222092449
As 6.67720262590208 8.962839796261509 8.766473614331177
As 6.329303515424096 7.842467591971233 4.48988729492848
As 4.971531613918036 6.196944207669292 7.661052061155857
As 5.002240505804508 9.582755632258467 5.628246250145235
As 3.6297205682351597 8.221195939105208 7.1224325989649575
As 3.8631124021170375 4.965591302323838 5.749518469033131
As 4.438792836161884 6.387209112701386 3.764513049093788
As 2.5321347139637793 7.019663706680422 5.207873427354924
