14
Energy = -62.16079245 eV
As 3.786976479383659 4.424705103368464 1.7324267681017564
As 2.220694361082604 5.261450706691964 4.838274842692855
As 1.8028800511495235 3.5869514958397564 3.068092547329942
As 3.890081288938221 2.3047049182842616 3.0086566394087693
As 8.822844747059838 7.462330970675701 5.840633813646037
As 3.5514528115621187 1.6797288639980603 6.837650903107133
As 5.248674355145423 2.088569427570835 5.067055052311443
As 4.027705838660077 6.270755117121917 3.371556497681014
As 2.735996527477612 4.05649671093439 6.951783142157274
As 6.85901496813415 8.384862358047279 4.604668974089833
As 5.143704442553403 3.5454119295079436 7.117223831964654
As 6.482014396866505 6.1189795793661546 3.571855373219134
As 6.642274667159595 7.553165113562465 6.9493995278746254
As 7.333582326402981 5.430312338447252 5.840561130956699
