12
Energy = -53.70539387 eV
As 5.816739579575491 8.438802900962223 7.244596274527049
As 7.9113653405584135 8.081532901965257 3.905677293643233
As 6.4588173664622595 9.650812137208556 5.159066770212674
As 7.540778656973263 5.16549145679811 8.749683996913886
As 8.621842855145346 6.482943656686632 5.687610345492089
As 6.376854292969532 6.148805474183146 6.599218493110816
As 6.27193412209484 4.176899335190918 10.591189291202744
As 9.608434606004465 8.375986934330943 7.010600666718973
As 8.91143109189318 9.988260649800555 5.2196338523193635
As 7.973531452634062 7.209874102397188 10.138168084324027
As 5.6437654379792255 6.378268585450173 10.010308185525682
As 7.832791969851448 9.098763731203366 8.521090389635377
