16
Energy = -71.9663473 eV
As 5.1889970533727245 10.654888227132556 6.593413157108599
As 7.303824534102174 10.641494854030961 5.2797310909895705
As 7.348688977943706 11.172362899773235 7.699224036484606
As 4.613792390997869 8.266161200885668 7.0539879790656475
As 6.020023090186291 7.348724413486177 5.260381953525946
As 5.8727083220421425 4.837563527399573 5.516830147822444
As 8.211643801372105 8.31961997261954 5.749298562115471
As 5.259279180627033 4.2282645036175035 7.837054117310025
As 5.872698424161316 8.193495447398638 9.150282337472975
As 7.546057278076257 3.7450150002040514 6.9559996030104845
As 8.130536648787473 8.75522640639429 8.163983501214103
As 6.2777811062651825 5.7850752736075135 9.565902879240943
As 10.846720543643587 8.115409770912983 8.918980885249068
As 8.284244044769599 5.887291506975889 8.081504262869437
As 11.389491859900376 6.612532228290813 7.244944491948395
As 10.440752897328979 5.687808975642133 9.31269851666095
