16
Energy = -71.73625505 eV
As 5.293949929720166 10.512386397876941 6.915810120085719
As 5.2624576501737925 9.538911339994616 9.180176729760614
As 7.657540947703065 7.8448813527461185 5.299999650294852
As 8.732857027707526 9.005714577851647 7.1266784162282475
As 10.790114179006714 7.758356979522797 6.471865719766412
As 3.119943957062877 10.09623346522716 8.062719751364156
As 5.385110285933593 8.598240900607017 5.361727316690485
As 12.023557511642766 7.066812247204788 8.504227058474264
As 7.796222341023491 7.310893210011198 8.716074556609204
As 11.997821784486558 4.813012201941767 7.4306608679997215
As 2.305275245966847 7.92431551379158 7.2537457815858435
As 9.912605791777999 5.487224568900781 6.033493625639799
As 5.360248562145891 7.093200546503855 8.78276477332235
As 4.225631728970771 6.733515220227298 6.6019295974597
As 10.703820794197654 5.232343692654339 9.518965920404323
As 8.656188727441155 5.074256925263549 8.117688094897153
