13
Energy = -57.86622838 eV
As 10.241417923942752 7.481690804716334 9.19779171984068
As 11.043783654508148 6.379756070434934 7.133552311128967
As 8.735631259483744 9.330336537108213 8.404359383523744
As 9.171971124954403 5.348884582988016 8.454620944369749
As 6.765521223274378 8.199295462571067 9.355362018693032
As 10.409336498860691 7.771637052880746 5.2688639518965905
As 8.476583912887559 9.100606032760664 5.937544580539899
As 6.926817670605584 6.254828084603593 7.843114406276455
As 6.890920719267505 7.245999366053847 5.5621303927559085
As 4.952683139019855 5.0004193702099045 8.09497958293462
As 4.788944588833131 8.459111318045696 5.908176155344807
As 4.7577627998328955 9.137670743771281 8.33360824733464
As 3.6361772578489684 6.982648315458536 7.57434102816992
