10
Energy = -42.12551686 eV
As 6.175994714761239 8.38128358741383 6.106840220872011
As 9.16484024283037 6.524519096559591 5.492246820662779
As 2.552954653044316 8.955991133639516 7.317638657970089
As 8.094162523833198 5.018940270661463 7.132635658188787
As 4.585125676685893 9.977935231167232 6.648458513208125
As 2.693882822857008 6.648685844010521 7.221099624215578
As 11.096125595395172 5.17450634264681 5.759706798076915
As 5.8937839042801565 4.244239537303004 6.374955445769752
As 9.70006747539166 3.3491000375034896 6.2995743591772175
As 4.915785575346873 6.42415800644212 6.469180861198763
