13
Energy = -58.21311431 eV
As 8.349993914367984 6.565058282965215 5.278514093905453
As 6.973828099642034 9.991711290261975 4.806813012135881
As 6.180729707061852 7.662444287264304 4.848540010590838
As 8.172227050084311 10.138254427405101 6.951150944941835
As 8.87662989183927 5.031376515500029 8.848266091935072
As 4.992731433132121 7.782365009747618 7.015826275261336
As 9.655109871636402 8.186146342218537 6.65739526606596
As 9.695272924110094 7.395134913491491 8.980023362612139
As 6.297979054212046 9.4091983233096 8.392489082097706
As 7.570849731374091 4.746210687613252 6.729542945271184
As 7.56904621726693 8.156535054355086 10.072475116915783
As 5.457548156537212 5.520804743660952 7.838296626990572
As 6.7151735084926365 5.801098170479032 9.987943684792185
