11
Energy = -45.94265994 eV
As 8.803577710386056 6.557398860162067 5.7743359907152785
As 8.244931311217968 10.319705291851806 9.867381599459959
As 6.247287522113275 10.62735986109862 8.687953483120232
As 9.08011365503031 8.338176553112518 8.594953434946824
As 7.332856222799702 7.019218396985158 9.6898970687145
As 8.07830550945467 4.398184391438785 6.665083719316775
As 5.84547866639408 7.61163048804033 5.959301685726455
As 9.382580870038222 5.837208016458124 3.704330382425332
As 7.341926344226753 9.266169835896601 6.840245016468122
As 7.136735563045554 4.794677931108901 8.710548024662598
As 5.417552837955453 8.134341562002993 8.252310290701224
