18
Energy = -81.05997957 eV
As 4.771554055981994 9.199089523499254 5.669188631562815
As 4.8494978205956505 7.923888149462208 7.788372150134863
As 6.863937615990369 8.829659356679675 4.398275050850017
As 6.6009299752541715 10.91474812599602 5.862414666074071
As 6.114864378975287 9.653466805660686 9.031428811438987
As 6.837243356893738 6.515170088974983 7.359940450560342
As 8.436792229680883 7.7634560366543335 5.948932774839411
As 6.737868633402743 8.022063835842449 10.82452800681352
As 8.065453590381422 9.99279011653394 7.61140021684846
As 8.43180152808918 5.812130890581524 4.0740682919211
As 8.745401274249467 9.183975379781788 11.65602505666845
As 10.324335023730765 9.260143439360467 9.754543534893681
As 6.296222005534393 4.253638373656845 6.559970475582473
As 10.121577628100033 6.854026678040531 9.247484613842637
As 7.790338356506469 6.109112322032647 9.640141812034845
As 6.3856649205175975 4.4165080530271945 4.080317768552342
As 10.621867196983066 7.552888766261271 11.570494307959494
As 8.394685586832486 3.6827834369030805 5.288546227542589
