13
Energy = -58.34316725 eV
As 7.180560233307784 8.73317210436681 6.428663648419302
As 8.225307349301463 6.024240017581911 4.45626069133664
As 6.0356287123708405 7.178538776275746 4.817006154377218
As 5.106542546268708 5.00980107503724 2.7156457216742145
As 8.54337553034965 7.150161854048476 7.766419802057944
As 5.22942436558015 9.174714683123227 7.872451651502602
As 7.26671819560041 4.017655223833462 3.2648598472302806
As 6.154934730097537 9.144961794212415 10.17036343968147
As 7.905187504774718 4.980423392783185 6.705651866204272
As 7.2706655766359285 6.948481909538954 9.873045674425805
As 4.871100081196952 7.194563688447216 9.315342329547356
As 5.45425666620761 5.3812143944879836 6.443920758633573
As 5.269734955845407 3.5755075338008107 4.683804862446912
