17
Energy = -76.44911906 eV
As 11.410349314573898 9.443964920930581 9.670049697681238
As 9.490301988963312 10.467525440247979 10.864755823388583
As 10.57157606523587 8.915345593344634 7.391769829579271
As 10.077087626798104 8.038032233114055 11.225418451491938
As 8.650494109421444 10.452225427186681 7.424471261913818
As 9.546547269573775 6.759380560015373 7.956851769326148
As 7.348589370589371 9.344995173557738 5.616637189099675
As 7.521351464847562 9.771502954009522 9.476816124042989
As 7.97662438722946 6.830272918766333 5.994642592165812
As 6.065136436428512 4.038574174418706 7.506011007251541
As 5.944607719618879 7.759830087905352 6.988110026006479
As 8.10451189415209 7.369444376415012 9.832327529821569
As 7.064304659595441 4.3333934607540465 5.362488487660865
As 3.87155011006692 4.728042614968283 7.457200180337069
As 4.632642623195525 7.481149864829354 4.8780027043406395
As 5.366960275094937 5.306265385921772 3.868465885058336
As 3.282954685702136 5.381038551190382 5.1767699305982955
