19
Energy = -85.66037331 eV
As 8.102920214355862 7.054738089592498 3.1718606654017236
As 4.934667090550525 6.006831421820153 5.445413863785991
As 10.546951014796955 6.376989618766483 2.773860382150862
As 7.966207894654588 4.7245264488822 4.001431855348785
As 9.151682284340728 8.39610541946017 4.954149236027596
As 5.600465983967068 8.342391893992227 5.974587694104188
As 4.2669400967639755 7.060207862810706 7.606070246656998
As 6.795928232839997 4.55047949369784 6.194028861231051
As 7.794535231135084 8.289252316145102 7.071669172044021
As 7.9824709424394715 5.967127064838714 7.831377905738901
As 11.091663914878083 6.8794727093251264 5.165846201157522
As 5.856441259709646 5.773107592539093 9.049667128508226
As 10.368391627045602 4.600898060726574 4.52826535362188
As 8.017126983540837 10.534351832545724 10.114336929014708
As 5.722450395635071 10.966871780625938 10.981753598804323
As 5.981210284424693 7.212948167454934 11.14709706976526
As 4.467125552676272 8.963143252851719 10.461816574023908
As 8.19361923724081 8.321238038506339 11.197839794554103
As 7.576227621029118 10.312732181074203 12.53114152545731
