16
Energy = -72.78411596 eV
As 8.303845676095202 7.588538758067876 6.061222756343819
As 10.162384242130498 9.106378493043746 6.8358135533934625
As 8.58049595260756 10.172787549254144 8.468394891631581
As 6.7422073822040485 8.638143377368518 7.692936966127981
As 3.425355276198923 4.463679173077154 6.380439581774247
As 5.534197038266199 5.781404436292981 6.290304656185487
As 2.231720882345668 5.877905468359847 4.726855382006196
As 10.339077620043634 8.625563578025176 9.247915611010342
As 5.332673557766043 3.6099980797813562 5.113851051907808
As 2.5866304130397744 4.804385038694914 2.5195791649706365
As 6.806675739692697 7.071187836394798 9.582070693771081
As 9.19702017397724 6.446332420831095 9.566709287643148
As 3.934811134251775 6.773789006585889 3.164756543219204
As 5.030366528752589 4.577124652876867 2.8497494918926534
As 6.784385840480261 4.912175461818483 8.252542297806285
As 9.024071203474202 5.566525330853017 7.2627767316413365
