10
Energy = -41.94986659 eV
As 7.636820799704652 5.407031181547707 8.969636156620997
As 6.839929989582041 7.670687623154969 8.057846273525994
As 4.951305549083204 9.253269980237 6.41808565875211
As 10.041308621144369 6.467111476706546 6.286478639914777
As 8.182707967901221 4.795577297108595 6.624241473837227
As 5.592075955533681 4.210940841717246 8.61298524252927
As 6.5094582824569684 6.531946384598557 5.854914159673057
As 8.475862910904342 7.875998845022475 4.942172434900677
As 2.9204792376705515 9.529289672528707 7.0151542086523655
As 9.08641197850675 8.50966821329131 7.282592665598758
