15
Energy = -67.92790486 eV
As 6.829072526545311 6.027410212532264 2.3396782683165624
As 5.690190259847287 7.7288173319583935 3.733523281937295
As 7.784962164988796 4.829848454365285 4.287230559555016
As 5.355753986444152 5.315442622544077 4.191824861202369
As 7.423283108578374 8.565076998113314 5.264998176934838
As 8.834765622228737 6.561861864768939 5.681796360579218
As 6.100034278869176 8.093594200319759 7.34170230895564
As 7.497179003521258 6.019626813414121 7.731728211586729
As 9.477627959017399 9.084692733051186 8.819797363375088
As 7.137706496948143 9.817695301662985 8.765319518203574
As 9.1892717864265 6.7152016259063565 9.382381514652383
As 9.931031189910312 9.84469108062042 11.096181741665058
As 6.1871740214181505 8.808623333316 10.8142994620561
As 7.529103665819994 6.772459116542896 11.215008922125614
As 8.099360571544514 8.881474952992884 12.401046090962305
