19
Energy = -85.28646935 eV
As 10.472628117658752 11.142341356951974 5.0264337866275115
As 8.994323055306555 12.040355794437213 6.788980344695907
As 10.848701471960913 10.524754526931256 7.3797613327890215
As 9.359480943218463 9.140351743750777 3.988073967130676
As 6.981418813770824 9.398543607657162 4.622703288276786
As 7.435526611535762 9.990347386705398 6.988079604024301
As 9.249233549704762 8.50351627760043 7.765332420350224
As 9.661054942005157 7.305582100067783 5.6585834274570255
As 7.611556669712303 4.312124993668252 9.161242376026593
As 7.329235615184322 6.919185612970144 4.713442559438248
As 5.455363394022501 9.52536262399539 8.355872853786984
As 6.507955285088247 7.3836262173590095 8.319105126120153
As 6.774377780035718 2.253627418533852 10.126222432044337
As 5.615839123434911 6.147565773822552 6.348458912211768
As 5.9721060942852535 5.820129790723085 10.197467871577187
As 4.222719628861382 3.449965147367986 7.526715283807839
As 6.579167134715847 3.9223655335184695 6.919152836162469
As 4.3590596602056175 2.3799356370448295 9.76910146783941
As 3.8151775563192434 4.802934556060902 9.550240140355118
