10
Energy = -44.32052268 eV
As 8.918014395152433 6.215192844582821 7.60447448837281
As 9.418108394987946 9.210616185192006 9.350842398865039
As 8.850529280036676 5.6533571901960995 5.200063615573094
As 8.886565580266419 8.636104150859751 7.007724829335389
As 6.562565301824263 5.810789168065533 8.217351994965266
As 7.662242941336638 8.609379340505182 10.670719571809
As 5.469341005367282 6.927418165819504 6.2732439629911
As 6.844954584720199 6.313639289147756 4.346857084179672
As 5.842596739638772 8.03744726091618 9.140074122845192
As 6.4678609030088206 9.123438767168155 6.983610774676745
