10
Energy = -44.43465072 eV
As 7.6245773854659715 8.537106531054091 4.761618937488507
As 6.811797188312276 6.209665962871714 4.645235794177817
As 9.162428305540786 6.666970426436285 5.243027475562751
As 6.287606605330264 8.907097802383852 6.844197869945957
As 6.336753944571052 6.489079720379641 7.25245078044956
As 8.706467499018745 5.958351833525345 7.599681180077512
As 5.288490262130851 6.176824876524035 9.363754974433807
As 7.6348938150682635 9.601141459809686 8.746252784495029
As 9.202679842311667 7.682181576669803 9.241633485023833
As 6.89763104175632 7.724905699851746 10.255472607851935
