16
Energy = -70.68183645 eV
As 4.437845901718255 5.64830009778377 2.185153055239331
As 2.8670262770420427 3.746200794415688 2.5166105463815085
As 9.308299896777559 6.968546326710268 6.067894671178492
As 0.8568146190306424 4.682522237973207 3.692411836134155
As 5.832947879838417 4.6647563621556305 4.137629780501313
As 3.7648706749202447 7.460963440061847 3.7205006570790684
As 1.7049086748455056 6.674982215018599 4.809319240418341
As 7.976054299928027 3.1822716738498795 5.723202358152811
As 2.1241490798519234 4.510700641518887 5.913211656892497
As 7.115948612350288 8.020615643451784 5.529855863860856
As 5.1420043989590845 6.473904323552016 5.690764050299391
As 3.889006947898388 3.1539305646892704 4.715795244994428
As 7.266187472242199 2.0372462013854205 7.568343818094975
As 8.597632973202561 5.722189190992944 8.110151037830072
As 8.07241300762852 8.145031364158317 7.83928871295532
As 6.589821865080458 4.453771503596573 7.325800051301548
