19
Energy = -85.58926756 eV
As 10.741858365745227 7.09743703450211 7.899908436100594
As 10.99415269699079 8.172136249639124 5.5983605953915925
As 8.858260281553465 8.266135021764331 9.022816021623706
As 7.121301087909694 6.541518444273323 9.320403913804007
As 8.76724387814215 9.045676785638404 5.115717211870746
As 9.710492063629545 5.256326015909415 6.615701013738959
As 8.06100772620996 9.89446566841525 7.356618118556589
As 7.62870309275658 4.615648201466798 7.791228309315173
As 9.170850740373679 6.673653959022318 4.61732575727556
As 5.642236067258461 9.752926363986296 7.34871935042598
As 6.407272890791249 4.523747807418676 5.632780922395476
As 5.078440591787649 7.874753515675921 8.804545215914967
As 4.508113195611403 3.2010198940541175 6.402690683929413
As 5.369139303900223 6.6926351315010395 5.100645407240014
As 3.708397777025667 7.094686782802778 6.852393941221533
As 2.8362381133681835 4.843215416592249 7.288223061609582
As 3.45200376882398 3.2982051880330805 4.140254882448344
As 3.672316901467502 5.705728935388481 3.5761293290817835
As 1.7812814759304065 4.959393603191788 5.0248478473318
