14
Energy = -61.41590555 eV
As 5.636556778014138 5.493794858954352 2.0121442923226645
As 5.819655712568052 3.038157274268254 2.4755493620638185
As 5.789297679423695 7.024752918283941 4.42154709450276
As 6.64011866318952 3.194861463608399 4.794439188179795
As 3.3037305935337575 5.442348229304247 2.8070297413006498
As 3.4528329693123303 2.968977066669267 3.287486959352581
As 3.782010854175992 5.857173369541659 5.290319641552538
As 4.365096698012708 3.383004890414768 5.625228112689375
As 6.727377658213818 8.554453306076564 6.319558784762067
As 5.346729956138474 8.14826592785103 8.313289210338889
As 7.735718601651506 6.381204972166057 5.8376771065147075
As 6.836066939053547 4.913793388795677 7.613185925448105
As 4.587685236372889 5.7902491051931655 8.218551708478902
As 6.581521426429039 6.413362994962117 9.58839263858207
