14
Energy = -63.36059403 eV
As 5.192709134286439 4.830803169088499 9.808634292455725
As 6.5951185918219855 5.739531314963118 7.906171243615975
As 3.0910871116336396 5.803461592397976 8.870844446113587
As 3.815100246923767 3.5786533659117334 8.149243328372489
As 9.940836188533156 7.1102073755998525 7.757822973661878
As 6.354643798965021 8.148421599028053 8.401111084229615
As 8.70782960535619 8.672589105782096 9.188738155331706
As 11.705008636223386 8.715474215269246 6.944902639614978
As 4.368254421864996 5.568308185386476 6.734750549209191
As 8.245675403666034 10.486485849114237 7.5727236758360394
As 8.742133518295715 7.298230541570119 5.589692036870647
As 6.996645320297242 8.951773116382043 6.083697798387895
As 10.414261222528612 10.746189509907 6.3972104878485485
As 10.493868558749131 8.90943856281367 4.751519435364706
