14
Energy = -61.59509582 eV
As 4.514964274391518 7.24694833639016 3.0506471461555624
As 3.006094758860206 5.325072177558807 3.010218377483508
As 8.349512518645385 5.329913254584497 3.5877079270631027
As 5.82685419654335 3.093307976669325 4.909212950291137
As 5.752442976049243 5.615219365796623 4.68376144242391
As 1.809564319214369 6.364634470082431 4.857138603545621
As 3.397589300538978 8.219489417569639 4.979604888404289
As 6.951325366233861 6.404125453784168 6.8276604796196265
As 8.35476511980494 3.25644001731632 4.933036290512232
As 9.216310079252874 5.421306197087622 5.780382300156997
As 3.734289697308734 5.55452413037214 6.306356398522475
As 4.649754107709922 3.2033125496102945 7.031109418275071
As 4.809606448004945 6.801247511661183 8.12917996601069
As 6.132959389863467 4.670491693938724 8.420016363957574
