14
Energy = -63.29507932 eV
As 5.4435584884901935 4.725414120831542 8.321418239805839
As 8.873109232616743 6.547113293532279 8.100655007260656
As 5.8276803275733124 3.970828445370355 5.981401107719323
As 8.924202485287982 5.4169194516639 5.888416513192141
As 6.541627199849426 6.874345780527968 8.891430444873844
As 3.3286306290555574 4.020338754912583 5.808487690107381
As 3.2098982905204627 5.642955888801295 7.799594371126787
As 4.747037681412152 5.651846205433334 4.54283971643279
As 5.5576338771022975 8.573268510117877 7.343795270309161
As 10.242559319775609 7.42065862716971 5.166216748135511
As 9.286264006515493 8.78617936248737 7.1249176467987505
As 3.7933371289406357 7.344394943094188 6.092814017591607
As 7.9251558325258795 7.019596781587097 4.306642236887404
As 7.315988163336615 9.022822497472998 5.648053652761731
