13
Energy = -56.22507072 eV
As 10.204683606709764 5.170591072932971 3.795345452562567
As 10.34363025645316 5.702979008024516 6.896602875774438
As 9.339974615508881 7.065280929002841 5.084177893585416
As 9.103281235046921 6.73744702683717 8.881761342737775
As 8.500495434158065 4.775285538507668 5.51517875999625
As 5.110813433713766 8.748508796043227 6.273846770364696
As 7.202672480286466 9.728514448218943 7.240182657316603
As 8.036318960471243 4.7116608099710975 9.710249043359209
As 5.439571886422014 11.157721391179154 6.359727743634802
As 6.112286278360458 9.788762073351 9.522227937704951
As 6.825269184578867 6.151645697599946 8.13909373381098
As 5.566968687694699 7.3995509263246655 9.897169545225585
As 4.013123541369235 8.798253980651667 8.555373582541074
