19
Energy = -85.50492496 eV
As 10.733979511150878 7.063403761997826 9.379585438288077
As 8.341586766646238 4.810778191094377 9.094614740774073
As 11.708654222600037 8.757949730658916 7.8379906689168335
As 10.431716151589479 5.195959370538479 7.757151366074474
As 8.259013119368005 7.206695094490829 9.885953580074561
As 10.707809816700921 10.86447749329929 8.491704542655711
As 6.746942295020268 4.718851166067123 7.223528627610426
As 10.87941333216381 8.28500983335487 5.558626203260482
As 9.337555168974129 11.55869840034981 6.736922163186175
As 7.140764345376832 8.405993278335867 8.046874251876693
As 9.27274877453969 9.99126475393479 5.0015941896609135
As 9.489076397125423 6.1941422240895765 5.670488927254704
As 4.807768481068546 5.263334080662281 8.648765211382234
As 4.975704252676767 7.718188391674473 9.041112408747903
As 7.143296839920734 6.889086780084122 6.115151397183815
As 3.171985739047832 5.081234025549116 6.810073844776935
As 3.5101467805175144 8.6592777282645 7.285365495179013
As 3.4172165096829255 7.0855709277567 5.374067733873318
As 1.6606215213577709 7.0197915976706415 7.120006441016755
