19
Energy = -85.51465478 eV
As 8.254797163674649 9.443209244834293 2.864133272840836
As 9.277331122216241 6.917583474871729 5.253700677810691
As 9.662270609668795 9.306791491653517 4.96497779235632
As 6.545168444927537 7.705184807585559 3.1263914730929145
As 9.440379177168497 6.866106462143148 7.746140187330946
As 7.843412599407527 4.979358015830694 7.597604062714501
As 6.884095811166621 6.277867160031799 5.284021392190059
As 6.208349310006547 9.84984547674332 4.265443726132953
As 7.783789994122805 10.239737723572391 6.270015098777372
As 8.075302092627181 8.889631437354954 8.360689540565911
As 5.8471582788136285 2.5787781859469807 6.254949195729558
As 6.557198899988765 5.723400707475941 9.524594728596119
As 5.1476718350947825 7.614929198333434 6.49948010183877
As 5.797561196247173 7.981844407454936 8.832174132581526
As 4.097202032331028 4.0823871888581005 5.359368949843261
As 3.441253986649459 2.0080668432452837 6.547643242515658
As 4.865248910390905 2.4775666729474772 8.526036502464317
As 3.510466314989929 5.791796432752834 7.051489918039031
As 4.276755186640634 4.781328034496021 9.186558970710907
