18
Energy = -80.89275624 eV
As 11.266851844553637 7.926874850180339 7.475971173411012
As 10.004737143029603 9.933112391053196 8.19824835722377
As 9.877828191155066 6.339293208463086 9.329346546688102
As 10.123518910986647 6.939123625063746 5.599639659921345
As 8.441325551289568 8.608662283459363 4.768782444454842
As 8.73112947200151 5.682854249765125 7.314352652127307
As 8.376562502698873 10.437406452351953 6.432077068244796
As 7.836083989073974 3.4007786202028454 8.18749802592085
As 8.895401819682936 8.577325780991801 10.01016869095056
As 7.779670303598929 4.6289972793182095 10.237582310949335
As 6.528036941406397 7.0561375630493455 5.042303506097214
As 6.571048067831232 8.409393602849164 9.37971308504288
As 6.280640262435113 6.723169724470628 7.524704277020668
As 6.485431937418399 10.46414184489142 8.074384931745824
As 5.745666339362846 4.587070998538266 8.77578445262449
As 4.435158768184439 8.395970786924964 5.00840962942679
As 4.311079727494919 9.965491156232625 6.925256648348309
As 3.782640831932287 7.600496561433747 7.270518888496093
