14
Energy = -63.30226039 eV
As 4.705760825450198 10.621046770085197 4.9308461820055856
As 5.374649611511053 7.402836353012392 5.917754533198506
As 5.326218375792293 10.78086454650651 7.295038212449357
As 6.793836449554423 9.471042888222412 5.760024507988567
As 9.081170442867956 6.391872977826196 6.317998289275991
As 5.755582412465068 6.246161252026198 8.072452221137757
As 7.596226736056447 4.714166966442371 7.31866135684619
As 11.225798280205321 5.569816956765063 7.338989295984333
As 3.6352888511356367 9.086863270244661 6.582414237424253
As 8.104005641482381 5.035180286808594 9.717583325905439
As 9.01910300079807 8.257013578336739 7.964695242805972
As 7.398861407560067 7.419107450622527 9.597600125533763
As 10.582301230330899 5.12531325347104 9.685344257612906
As 11.150884197062238 7.427783116568644 9.032183569852844
