12
Energy = -53.92299166 eV
As 5.387908708454346 8.94265586977382 9.651969919764344
As 5.2888344154903795 10.271898732891954 7.624670400929769
As 8.814127929522156 8.798390745539137 7.7676954241693394
As 6.879435752324148 7.477409392399892 8.555516972681296
As 5.521243506835578 8.865310827363025 5.5211291041290504
As 7.477538086879189 10.250228532259463 6.334148829798506
As 7.781815146296977 5.670878053835738 5.5190493860921315
As 9.730325021720923 7.051270406075596 6.321265533360503
As 5.7699616983691815 6.648455832634127 6.5086394808085934
As 7.9475137398212885 5.434287074178474 9.475701436867416
As 10.095342288315837 5.4426380615948196 8.220622051855779
As 8.134730080394304 4.054872777457295 7.4147483951933975
