17
Energy = -76.99499204 eV
As 12.398999800891328 5.499249036082956 6.903627290689183
As 12.796620746158506 7.838797987455198 7.766787886031923
As 11.811098825089227 6.109355446709484 9.235167862479075
As 10.421639564344364 6.325023302067334 5.615995214465513
As 8.856927682752486 5.318275203768465 7.202807264562011
As 10.82010761502747 8.65294296834261 6.458403042610889
As 9.360349880532372 6.583696059577168 9.261818229587075
As 9.4251862539081 8.87827298116085 8.429164228645064
As 6.999565863801911 8.836112014507469 7.195479843906436
As 5.972210640844613 7.802505608372645 9.209995696322645
As 6.934830346171445 6.496250719532065 6.18491521538314
As 3.945326885513053 9.13979186605044 9.702112002507416
As 4.774864661118588 9.325795109147233 5.866591032421704
As 5.071626183502107 5.976794241227111 7.803326577541778
As 3.514747486650977 10.489209143596996 7.665215377462944
As 3.5266314153791694 7.235903728047926 6.3419260553380274
As 2.1992474864165703 8.380566331635388 8.127329037975317
