19
Energy = -85.05980366 eV
As 7.327568298849869 9.573210232132402 10.205779854448844
As 8.88197261402979 9.386764428725117 6.597655016240308
As 4.303537049642042 8.53352070940222 12.190627091973301
As 4.26828136762696 8.859674147769004 8.42770945749783
As 9.396143353839104 7.460202118739804 8.046726212121516
As 5.3213288887174395 6.502404785682335 11.453213212695111
As 6.795148173372752 8.832159352209036 5.337527499729511
As 4.903584833923212 10.211914667814124 10.485586454751708
As 5.444928047175456 10.332130349555033 6.881499614312096
As 6.10812813448028 6.570006827078913 6.018178829427492
As 7.574130092101251 10.890691927026943 8.157428052861958
As 6.14210035265489 7.517665338412001 9.449626297655852
As 8.418719938767149 3.467073272114721 5.071581527197048
As 7.493752013272195 5.57462912503015 4.1854213197851795
As 7.4403722054263906 5.9560301054671685 8.004175689993927
As 10.467496487431054 4.006536543901535 6.357350469072143
As 9.716657786331758 6.667647323948695 4.037145438408919
As 10.814773551423823 6.44550083722876 6.250990513014184
As 10.479142755558957 4.22233827236972 3.8606058829401784
