13
Energy = -57.89873238 eV
As 4.424468545158418 6.213476921901412 7.571435123790543
As 5.489809304902746 4.103475739590865 8.316419095670078
As 5.645175590587418 6.866320035451474 5.410963221796128
As 7.322166407832225 4.634575921940671 9.71358162361558
As 5.70498437253676 7.970417058999845 8.77446363380938
As 5.536015522436115 9.077501859624837 6.5688961274803095
As 7.761955328199352 6.621347859514996 8.430227155598658
As 7.919598910983429 6.112888358788709 6.011376466558857
As 7.795853397318298 10.045623597924356 6.1074443109716245
As 9.731763119891967 7.961092616429301 9.105699655422338
As 9.08661893152477 8.131338183904996 5.200211489058441
As 9.27244679355677 10.195067250902273 8.131994883244513
As 10.824283614267099 8.542313087465194 6.993586629511498
