11
Energy = -48.70328217 eV
As 4.5140736845983565 1.685367946940428 2.8152339437414757
As 0.7114113968515432 2.528893463682705 2.612566602773235
As 6.304986753166296 2.0157284170275194 4.551639884817825
As 5.18604623353275 3.9590892361128653 2.0753766930280566
As 3.862888895250448 1.9094342729375324 5.180980237513156
As 0.9541049716872612 3.5870952612996954 4.686695731968017
As 1.8941588075016231 3.6416650078547694 0.9430735033661044
As 6.163273868870726 4.543331915948228 4.276026625409324
As 4.1380080826001215 4.339412283156894 5.682216331197002
As 3.1615596495283578 5.424408485934567 2.0020165170641353
As 2.3701469860807167 5.532048534224639 4.357727084697904
