18
Energy = -81.08429926 eV
As 8.140751934165728 10.794793203767275 10.653703207109757
As 10.35741866421561 6.010940566109233 10.764510621681005
As 5.939921704041709 9.698315874628086 11.067434625624637
As 6.01118344102253 12.103438620466868 10.583426335336164
As 7.9630057330915935 10.556541037357249 8.158188907749661
As 7.062642802951344 6.627927952493758 9.04167909987674
As 10.84373799739613 6.570922703659755 8.570561353172767
As 8.604635242005518 8.159809965850773 7.817751296668533
As 9.009691366806035 4.94932983602309 9.039965814804066
As 5.524336831815912 10.468815306289349 8.735718133289406
As 8.0138099100099 8.082349988531574 5.414886711094246
As 8.87695444140925 5.86156814584128 4.84105953542887
As 5.740635208816491 5.624837084641193 7.184367730140072
As 7.361291819367664 4.24130798406221 5.972126567988328
As 5.630841162022514 7.616806104592478 5.763049644752493
As 7.452981015201365 5.764168211101911 2.7839479235214113
As 5.90611012872179 4.128642252224585 3.9316258110954316
As 5.213004621530692 6.480930616081574 3.5864304075751843
