18
Energy = -81.52849981 eV
As 10.453061341545798 3.5765437490611243 5.712513710696054
As 8.520378833947662 4.062313114109881 4.225518013563202
As 7.902834495072839 6.430742603252489 4.622793675879496
As 10.040950130794414 7.142546872185255 5.658637410541073
As 10.28084509933969 5.439516044876175 7.378936744869691
As 8.14504225934456 2.8735980211959253 6.3877128533641985
As 6.367655876186651 5.822492983487981 6.478195566991775
As 8.494603777600178 8.713367670503132 6.8670346393123545
As 8.809206463671961 8.013661812671309 9.193496115018423
As 9.464379417853934 10.295964506897086 8.522284455800165
As 7.945327311720194 4.770735703621706 8.015441736320145
As 7.2727386010572665 11.479089040192457 8.15485823002038
As 6.4072453648690875 7.622397808548838 9.925266911234594
As 5.183157953248849 7.691782223236693 7.83011924114577
As 5.59542881247701 10.030233686054574 7.018914376280996
As 5.9361923935706 11.728502893881622 10.231739706427675
As 5.063952662667069 9.511911184131252 10.832631242267361
As 4.0514844365203855 10.722356875445174 8.908817916950925
