16
Energy = -72.58118057 eV
As 9.99226021351507 6.542908778651992 8.466884130590378
As 7.903287745571926 6.156460315066 9.67191336900655
As 10.468295395022382 4.25574961306672 7.6288846829285255
As 6.950312797199039 4.157729724783774 8.570680740762512
As 9.642162527669162 6.0209001133202715 6.068864843705449
As 6.01095319959127 7.700560464062713 9.01300455065001
As 8.255280247454914 4.010739342237032 6.484370606898971
As 4.804870473712664 5.514087572328862 8.610323796590285
As 5.666066253748007 5.467991137883639 4.743028016665772
As 7.078373197139305 7.495197951718695 4.999981363579044
As 6.059067583776012 8.8186407068715 6.794623626155299
As 3.835356921449152 5.754948544438776 6.334611284801934
As 3.69055193762962 8.20664433013083 6.485524687158826
As 5.807355680398495 8.662815794067255 3.173495830381248
As 4.368432514970615 6.611638442297303 2.9249037761717234
As 3.487502420720249 8.643116278643236 4.049033803521215
