11
Energy = -46.15203923 eV
As 4.906017350180017 4.857122983816871 4.875663932838446
As 5.508149278485799 8.434232316011215 7.625205279987893
As 7.156397334344455 4.549750979661628 3.6766124132879723
As 5.883278817301406 5.056223462001151 7.361901219467947
As 6.592133628351767 6.933585005918892 4.762681837299417
As 7.397194045410388 6.95514920150353 8.580554351414127
As 6.609856692350852 3.109009777105556 5.670248472735702
As 4.190170847715335 8.007145072876435 5.448893992643465
As 8.165169611429492 5.133756222040586 5.966515647511639
As 3.6749676888085987 6.641132718032203 7.336658812669152
As 7.912996741640649 8.319224037195653 6.691396076163378
