11
Energy = -48.73978819 eV
As 5.044538352086901 6.3431671964107865 8.699446189951317
As 6.71460867914517 7.964331689598169 9.542470467937337
As 6.708137818585425 5.621977478762018 10.36701779311579
As 6.544759956740987 8.315462681996713 5.726207784616886
As 5.965155391413003 5.6731594105541125 6.457932818287292
As 8.430503736779507 4.439593312630121 9.111047001580031
As 7.526949107654079 10.903386835935692 5.961410698229964
As 8.17089193919924 7.82199911033396 7.477865701285653
As 9.575018166308325 9.871632494957764 6.701328093923267
As 8.316859979682803 5.36444112895052 6.898778711974088
As 8.586655433124758 9.306988434896404 4.490569170449014
