15
Energy = -66.16361359 eV
As 5.083773343167082 4.5154277075662 1.6280358717903178
As 4.492859745221597 7.492575351150569 4.008953496580196
As 3.8377970255630314 5.224385000306286 3.53089774372505
As 7.350278391590594 4.461761406991194 2.1137219291361924
As 6.98189720450757 7.5796328007260945 3.919642934235717
As 7.735913301711231 5.291026722331469 4.317612581457857
As 5.538162994977829 4.747651365139949 5.799408939314874
As 4.286403716973589 6.747408473064372 6.579768718995124
As 7.235038920103191 4.571915272777113 7.62734332913801
As 4.059926915654409 3.1761144539609756 7.36579020272957
As 7.655580792858236 8.520731793238772 6.163697176062243
As 5.8174806855302625 8.273709379674512 7.792105450049709
As 3.384826379813489 5.217360794252943 8.549438852814838
As 5.406305766647152 4.012941984396689 9.26988846400117
As 7.883265081256277 6.916867759998858 8.083204575545421
