16
Energy = -72.58301789 eV
As 3.8017310997171334 7.3207815054785295 7.290128480481136
As 3.5799773690943164 5.8443194122491535 9.036889955455864
As 3.6839785244145897 8.24966085683462 9.573971769119566
As 6.752163985537826 6.84341714025214 6.894540389219865
As 7.092017213000398 5.028918056421946 8.516884310173062
As 7.267703232524678 8.870081872057936 8.214412528978785
As 6.098769925455436 8.454205569631066 10.325280834523717
As 6.507882681736767 6.051184625650757 10.721418878858895
As 11.125436177584213 9.654173955169238 6.343950410875799
As 8.87629080891934 5.8700280647268315 9.999966397449912
As 9.07103567160223 10.47376353334291 5.230404798637566
As 9.383866770269107 8.180160641038702 9.244403543138711
As 10.846229590399261 9.380324960195095 3.896840935200568
As 10.669517235870673 7.40400206805255 7.262618139921271
As 8.620599824112064 8.311844947377192 4.1010249912243335
As 8.962539639747497 6.4906611642292615 5.733783815569945
