18
Energy = -80.9050908 eV
As 11.865100556823782 5.9551253649380955 8.650741405248228
As 10.383002479088423 4.42595758832658 9.95779630861926
As 10.430340374568765 7.052568714690293 6.890004744210505
As 8.659371709847864 5.3249721471481735 7.084113710083241
As 11.15918203995406 6.576551636978001 10.974750627702477
As 8.109136452302911 5.335199221773689 9.443700107189393
As 6.418286876551327 5.977966847162841 6.146375413048862
As 10.077138180922686 8.909518504444273 8.48427178059085
As 9.021134701627295 7.62867315759789 10.19169428391691
As 6.687488315503961 7.520940488355113 4.288349039926714
As 7.925924169089349 9.644659154231078 10.958407615841567
As 8.06031343332104 10.432411018864812 8.641546757469696
As 4.227281865130093 7.247519910576399 3.9716615872250984
As 5.277403724099289 7.353920242661591 7.832479090059417
As 6.325156322144836 9.85837985039044 5.160359816589074
As 5.933834958035831 9.706408517784293 7.558078985744831
As 3.352257052471299 7.634261247629257 6.27774345071703
As 3.8689407405942107 9.59100562698174 4.829123837610354
