10
Energy = -42.77159801 eV
As 6.976742073462047 5.435649990903773 5.530157290340373
As 4.923421233967818 3.6264513039913084 3.3538614927736563
As 7.054010957759406 3.3475438688912154 4.025803059000366
As 5.992995613095313 4.0511053022517 7.769168059556731
As 7.565929511019714 7.8599567484016974 4.773405135079341
As 4.455181991380369 5.329666815975578 8.99921459363615
As 3.7007233231070904 4.415002772736267 6.939448109900604
As 4.689717948164762 5.755651406498377 4.7722698376421935
As 5.224795200698136 8.239737006511273 4.105392991202049
As 5.917224149614273 8.544953194570304 6.359947216144246
