12
Energy = -52.36507404 eV
As 6.429560219732362 4.174746009089765 3.635802685066453
As 5.959102245441604 6.215915826898046 2.2878435369873515
As 6.412790782981324 6.363252733702689 5.706403836251078
As 4.77580573039898 3.057791251706124 1.9339919628123932
As 5.664408339358235 3.6870082486403994 8.310057563402147
As 4.508304570992129 2.3983857417510306 6.521990393226236
As 5.07494810219182 6.039815801792485 7.63780963854827
As 4.798616386211011 7.384305613871498 4.174754205756473
As 3.7307505071443456 5.329597127159722 1.6084140937366829
As 3.2916372106509644 4.11449429816708 7.759682714308025
As 4.12814224612778 3.6167918265890107 4.312197396028024
As 2.9055819832458956 5.750984412047517 4.010134783756295
