17
Energy = -74.86000139 eV
As 6.916691457672473 6.7244445291704364 9.217211410908668
As 3.7630575232451196 7.536887768425137 6.876256004644292
As 8.515820875328943 10.562677804762098 6.083847941938264
As 7.101397007665568 2.8242019444558903 8.031757094816456
As 6.4294180861698536 5.168053943083815 7.31039396453085
As 7.6237859339449345 2.3910566560464743 5.651367672388445
As 4.920712771269868 8.162413046504224 9.07957259920639
As 8.929847612488368 7.793116808060588 8.203681403056446
As 9.167227647284152 8.130410036154437 5.6905727402330575
As 4.099426359649265 5.173321591594199 6.677883507020871
As 8.207643693653738 4.8878708259765835 5.565756657830015
As 9.37689076507927 3.0715253014301895 7.181791529861107
As 5.865372839989754 10.412598928433278 8.487341620312897
As 6.039189542151666 8.033345538042958 5.973122388599053
As 7.427600395004147 7.228703785367079 4.167890807042029
As 6.003679339115242 10.479741284700323 5.956158548517069
As 8.367802241437717 10.175194459609964 8.600958039577739
