16
Energy = -71.63903692 eV
As 9.55290145439971 4.257241706818929 5.483903808964026
As 10.122746649495175 4.142072028928735 7.901035709264302
As 7.196168135866231 5.100432423038668 6.0881307902643265
As 7.747557027918547 4.983207829629515 8.473844109587763
As 11.060396083802091 5.927996082105732 6.489461466729814
As 7.890671585377308 7.326045865111212 5.316917773337914
As 8.768550020334011 7.137761750744448 9.066420975534784
As 9.631066219919122 7.95783185342361 6.92415741757447
As 4.711064898696201 5.693645875384145 8.01934479233343
As 6.4272797690306165 11.119692007886876 5.779587749615562
As 6.849213913937789 8.710554099523838 8.888476716565552
As 3.93784924075252 7.716699128284683 6.994752582386576
As 6.2660906176874684 8.813093474326141 6.4758412702992905
As 6.751789023026508 12.244646070761528 7.792123399998942
As 7.382425069331468 10.94802767991716 9.620745845658234
As 4.516900503746556 7.634320283886622 9.412222923746082
