14
Energy = -63.04291376 eV
As 8.408417218787221 7.104811784610832 4.56838955452792
As 6.56604736702688 8.670981375110966 5.2286919034058705
As 7.757533655522354 10.001812236799699 6.934837852565817
As 6.720567859751651 5.323435966038651 5.017877602849989
As 5.383751534138558 6.845272109364634 6.494157452429575
As 8.652127994625353 8.253918562471195 8.391372083472618
As 9.88855128960176 7.162178550703126 6.573444192952282
As 9.870307139656097 4.835231661520033 7.459956450057493
As 6.807441420804118 10.576143502336711 10.567872140077107
As 5.8049533556663455 10.768867940933642 8.35090614910972
As 7.859860455645956 3.7232629551085523 6.528047388092038
As 6.637237377355114 6.85590794974972 8.609209648429822
As 7.789150344406402 4.6293530308000355 8.829618157973824
As 5.2680291344372785 8.950574306415907 9.983626002041294
