11
Energy = -48.69996316 eV
As 9.066076972221426 9.432207859377082 6.026071865468256
As 7.460307150685188 11.30038910252411 6.130033233901702
As 7.700057959009264 7.4548985699901475 5.452053911232862
As 8.228387406541772 10.26180883924405 8.220329831652087
As 8.945608183572121 6.06801627658066 7.122430285708009
As 5.837189607997518 10.042310061533593 7.558272689047864
As 7.587477737997724 3.960731278372113 7.093467240920977
As 7.737837525239865 6.37612449214265 9.300981483002952
As 5.56881463502732 7.866171795097617 6.538621751246599
As 7.850799996827947 3.8871700887735043 9.58003782585149
As 5.8427540939802185 4.918290801583897 8.596401174160107
