13
Energy = -57.95459926 eV
As 4.902038549242905 5.571001639503649 9.789470052392849
As 6.0650926079096195 5.2727412406529375 11.717533479779199
As 6.194352699032178 7.502337145723033 10.636080423071993
As 6.5396487675219985 5.939388130200638 4.017818607400557
As 7.304556655718497 6.340971969306806 7.26303222618149
As 6.1138487049626615 8.429265976232843 6.757736368180223
As 6.387720185621426 8.35947497127964 4.271406506949638
As 9.459547317694973 6.722691128930695 6.1508718412414725
As 8.317465464038346 6.938819646690624 9.43366518686323
As 8.584734024538689 7.25858887203166 3.875621839145997
As 7.806992731009568 10.16634633473087 7.156656640085687
As 9.138223550958688 9.24911690292142 9.02650091606773
As 9.992907903820461 9.074809765066698 6.711669965783757
