16
Energy = -72.23743249 eV
As 10.570054706015668 6.062487752881973 11.25371000776918
As 10.828603786379272 8.402014912639052 10.442260802210768
As 8.788929580740549 7.7833420593768 11.729718472212964
As 9.112930570907157 5.048472561045976 9.50067560978887
As 10.335335411763396 5.9539103953396335 7.562550619127314
As 10.205945282431532 8.36660431311955 8.047480813490186
As 7.799378424519905 8.613313182247605 8.454239095727507
As 7.3441018416669746 6.736432258906808 9.976234356959528
As 8.79651593476905 5.779917033312668 5.705419251815936
As 7.18781678717716 7.413336884998549 6.362513648330164
As 6.894678648578449 9.131823066293695 4.564442872155041
As 4.8486001012920115 6.6325262925980795 6.865672557052307
As 5.065669975367312 8.286299356819088 3.204151889977722
As 3.7518348469880816 6.649182715328774 4.696799222800031
As 4.695979462067058 10.112698820018554 4.871709095527246
As 3.359630549638163 8.478056607180614 6.358908573161437
