14
Energy = -62.80246875 eV
As 7.48531474886241 3.4755984177912365 3.3871549572920627
As 5.52588029374768 4.82123427855268 4.184703332866388
As 7.514204003936705 1.7859168845578883 5.1813431460441395
As 4.753121025091494 8.144838452578362 3.401194114872907
As 8.474464875287827 4.066267573604692 5.587420393657726
As 4.053235111228142 5.888248241820574 2.4883897378183786
As 4.851847235786975 8.05956681798956 5.877160039051055
As 4.050500900563207 2.959036517648973 4.707382712056638
As 6.580230039195932 4.39631293980697 7.287046742715781
As 5.469546304781387 2.2792130117342886 6.616134071315273
As 2.0902817755561474 5.960936204964093 4.063084151975321
As 2.7621475843528565 4.634496198544376 6.060301442896937
As 4.565507264008305 5.9604666549011 7.190490308781857
As 2.6593739711062074 8.307247149560743 4.809912952182435
