15
Energy = -67.74353592 eV
As 5.891665408093517 10.250649014482438 5.545321717083034
As 8.124341562013024 8.057514810115787 7.2547537979371635
As 5.680758167957653 8.267237671623644 7.095935210354582
As 5.385038690881686 8.996272816951285 3.483867080925224
As 7.703140650207593 9.617017168083105 3.9531678186642223
As 8.637384512248682 5.736260945715154 7.998982638200377
As 8.73407645000218 7.550225889086228 4.930345768292495
As 6.928064618085751 5.40051093991927 9.750111678072615
As 5.012071801075631 6.772582395462155 5.26325186724117
As 4.556641040348759 5.537210001016871 9.09054316191324
As 7.9727778035647265 4.243619477797285 6.092991881026508
As 7.099985447187791 5.789066974512627 4.370603965326906
As 4.121909251319397 4.870494205852113 6.723109360406595
As 5.7903669875688415 3.2995032386942005 9.23574129859193
As 5.8648689664774185 3.1149258077207738 6.714364112996295
