19
Energy = -84.43813922 eV
As 8.276178493620266 6.4063321136733515 6.986714579019624
As 6.532683956024202 5.058613798130332 2.022534916473249
As 7.083334030397279 8.125554513790643 8.818667628561169
As 7.882968615805464 4.8898152514561195 8.805352677986082
As 8.218660038254166 2.8096579182933117 7.344406878708792
As 5.828472083286352 6.204636752657443 9.623606468723837
As 5.488943495889162 7.0292963185764865 7.306539291881925
As 2.251451225617287 5.831523973747475 6.305901194489943
As 7.432386331510529 3.070890642643102 3.1365291725617883
As 3.5342289470729553 8.611694768618547 4.653661246843162
As 3.184728034336055 8.054060144719267 7.027206053347419
As 5.142567424047519 3.029026279445042 2.1374066328891663
As 9.762609730912803 4.268951967531495 6.147203304700508
As 3.151735502215037 5.932537551006212 2.5123039784714774
As 4.3644134589406285 4.756259550123257 5.5228827760022305
As 5.158633664184542 6.51867095957103 3.920996127883167
As 7.41287799138088 4.16687120468097 5.419913034975485
As 1.643790492481507 7.069140081572927 4.193857514712044
As 3.172470754652956 3.6911556052276153 3.5684423687859455
