18
Energy = -81.19029999 eV
As 11.427468809933787 9.632720142568058 6.48164527368809
As 11.968723113800882 7.200216726064435 6.457455589726653
As 11.708202331501486 8.42327084277249 8.644118763936948
As 8.957039145418646 10.00028694224238 6.187292126733998
As 8.64102711554936 7.848586010698091 5.036352762106979
As 9.610589993200183 6.435073841750207 6.774994630269416
As 8.467930000247286 9.736990685625488 8.61318812208668
As 9.393984710052676 7.5405384557559465 9.052486123493942
As 8.902136244675155 4.202585219777301 6.52648983829749
As 5.971924978913085 9.432106618112238 8.734333887223816
As 5.770511429386377 7.455386881195603 10.149332693771454
As 6.3010640923416545 6.970432570190909 5.191597066677961
As 5.2228990232674875 8.820825486836377 6.462187456863341
As 6.569126296229879 4.864000864683686 6.538935373111528
As 5.87043671005301 5.260109919586349 8.893605069732686
As 3.3038772416938547 7.505064843463598 9.715957809209108
As 3.148507577659648 7.733389933596633 7.249961830678244
As 3.5008943226301286 5.4723637841483415 8.230464252847954
