15
Energy = -66.38460464 eV
As 8.719471107968545 9.068191061855062 10.350369078787256
As 5.254535146007058 9.056051449579746 8.543148658050107
As 5.893482985590046 6.6634462866670985 8.834053842032315
As 7.092306717549781 10.560687069511763 9.220908504412646
As 6.400114602052632 5.797336249536297 6.587610458602754
As 4.732714182782132 7.172278868274302 5.37418150836608
As 7.770817863509768 9.31409077653159 5.5045947333006175
As 10.430882164505253 4.305856941903088 7.726068881802714
As 8.151860257484273 6.466611720239864 9.797121614897012
As 8.470699590934299 3.9241041331914146 8.686102472805135
As 10.331827185045567 9.361294927804915 8.517575865208212
As 8.459996082459387 6.946896855191955 5.826892005339557
As 9.743584310798145 6.880649900105666 7.95492042610703
As 5.367528537587326 9.429610242830782 6.099030325621996
As 8.66981158489583 10.768470993745186 7.279304869418132
