11
Energy = -47.34130345 eV
As 7.51926945449332 9.065427646710106 9.199884136326109
As 6.682542828411247 8.639549350918305 5.281461940015655
As 6.2953618011065995 7.08447340934227 10.210842096692048
As 6.053972389332549 5.253583646173558 7.267547719592228
As 6.899214763338932 6.135205568013871 5.149711931878589
As 10.64897130677197 7.261421520869352 4.3140978296017884
As 7.874294065245327 5.492745538947521 8.995616379330595
As 8.934870123581362 7.458756807418259 5.786642647529462
As 5.692648996835665 9.148001028519564 7.424695921403775
As 4.658025370720713 7.0462468648456715 8.243759910842977
As 9.19470703392851 7.480647527624893 8.343851282402897
