16
Energy = -70.86984819 eV
As 2.712545786554851 7.54615310903728 6.925312876414514
As 7.620013047349306 4.588238012776102 7.684347231094006
As 6.699890566214134 7.830495469239281 4.16924596236895
As 8.007633357317104 7.685174348027242 6.283781445796041
As 3.8793391918947653 4.196762050292387 7.829952600257146
As 2.288217835727262 6.431721403803319 4.71423632715425
As 6.43815574129337 4.485911140189496 5.452613990816279
As 4.334487706533166 7.290970382157121 3.5124897157945987
As 4.859769774359898 6.310179776575925 6.82646459963061
As 2.847053826677565 8.823928274280455 4.785228110647054
As 5.873896918931422 3.1336190583375947 8.799399371906592
As 6.762120661215254 6.795937956174836 8.33845812530809
As 8.395961474314278 6.324652982584304 3.013308974920923
As 5.207701057557687 2.5078269041997427 6.4840570442034
As 8.586556125024785 4.1725073067928 4.190158504136589
As 9.691102914208875 6.127572201238604 5.185259139397692
