13
Energy = -58.16742725 eV
As 8.866837958744027 5.356446751489812 8.229060853156156
As 7.544983682237582 5.006976566030992 6.165785191635075
As 8.037618225994015 7.071223611806705 4.855002404183936
As 8.668109589220999 7.765015992725386 8.58526173715302
As 9.678267606003596 8.116678759118107 6.3849269115663505
As 7.086964863723589 4.584874372956873 9.842463366102487
As 5.886477889807546 6.823980037391251 6.081366864658481
As 9.035554492464284 10.538371507607327 6.005062796216558
As 6.264707683286894 8.13943086386696 8.117378431598434
As 7.210403566113446 6.4655696411000525 11.38775467275885
As 5.388944567178305 6.380348805382129 9.81919999774706
As 6.923048193540389 10.17776571367934 4.809328491521929
As 6.80768798913866 10.724429919131419 7.063276541919995
