15
Energy = -67.84406983 eV
As 6.7748515725333425 8.642557691554664 3.806731999453563
As 9.14348703157927 9.261716560067548 3.716327498662018
As 7.420238396618192 10.843829964367172 4.653022828423604
As 6.52235838226959 7.11352054933048 6.0829196625698625
As 8.923712436638086 6.524123482423138 6.19558458502346
As 9.932301144030287 8.746568106814172 6.066804299919831
As 8.217608846951313 10.325267186692523 6.993608152860645
As 5.662769649664641 4.9752856457269035 7.394629276933223
As 7.698535707471107 4.2070067296668805 8.579800509773847
As 6.371730036841881 8.904158911516546 7.760010661807843
As 9.151101836720661 6.202298672640676 8.639346625810775
As 7.800980700488788 8.064984036674574 9.60508639320459
As 4.549183207088264 5.621394603081348 9.536868353101482
As 6.452433911630079 4.451154196848152 10.743097729859851
As 6.129580206832302 6.867006729952883 10.977034489953194
