12
Energy = -48.99419217 eV
As 4.324461326382642 9.417908894746168 5.137980295441731
As 11.194219649402967 7.440886473554741 9.94373876301352
As 10.233366240764383 11.36938302379923 8.455271015435095
As 9.323930422105349 9.962769487880653 6.982670977031894
As 8.207859258620156 6.625362243227202 8.87347947706741
As 5.367060301116692 6.963960788899259 7.29102186435262
As 4.415747361587323 7.041359485090738 5.019939903515103
As 9.924673179300484 5.522047905467088 10.234952620550661
As 10.136662772075384 7.685974903527501 7.746956973392748
As 7.226508043515253 5.293588722037964 6.978302540403727
As 5.992524511242182 9.749271963903873 6.724854725848189
As 5.224494685840291 4.599585523345896 8.136225324389553
