13
Energy = -57.11771202 eV
As 7.204065151753757 6.246828644188776 7.849542611363835
As 5.390871855564827 7.784039134363386 8.64266728275154
As 6.629893525744321 3.9824929512460567 8.60792640717823
As 6.392713563911905 8.334083146873402 3.326911123403153
As 6.431712158241879 5.573355385415073 5.5811292752653525
As 7.616358307129412 9.200712855800179 5.32414679730715
As 8.486751527281713 3.7453624705589164 6.902887923183122
As 5.35491700354335 9.032468660323124 6.447363055347485
As 4.680861563165422 4.162773099114251 7.066604283781146
As 9.605434165921734 5.664280613226903 7.705743787543834
As 8.183408466217967 7.036893985582787 4.2933226765657
As 3.7299100066780912 6.32384455636784 7.566620165263098
As 4.587305502137109 7.20706696185561 4.979337075962795
