13
Energy = -55.75313001 eV
As 7.741100593803699 4.683501911621916 5.1313933092492
As 4.933828938040153 5.7802425316711075 6.628995649507383
As 9.536410811709906 6.262227435011225 4.485756387966139
As 6.094547608971771 4.795977536125609 8.712981779075868
As 8.111423922614364 4.002380804307193 7.472839374584151
As 2.7117530979703712 6.384495243261117 7.20680622192736
As 4.271558856812679 8.183957450341497 6.843963757607455
As 8.0977586252032 6.135052005067189 8.676572217269714
As 5.09886458352813 9.228042852684606 9.002544286682038
As 8.316626203963684 8.391464089614853 4.375508648421066
As 10.08456641124776 8.138421327401847 6.067171027290963
As 7.1886257781653295 9.891823573759766 8.405489621956304
As 7.724107325124002 7.989355990912405 6.84490555619087
