16
Energy = -71.04044853 eV
As 5.8885039928316765 3.5375900493799723 1.603600309774799
As 3.8330599827337517 6.300954419310758 1.2572670365346756
As 3.412221902486084 3.9027152086340373 1.739037837678584
As 6.140175973200325 5.973306905319162 2.1453484477452682
As 5.713091352611642 1.2651720987816906 5.0463289485199345
As 2.668177915700073 6.821354423780843 3.4803117086495683
As 6.920680603320802 3.20380046698095 3.9260049184939185
As 3.0644490790306635 4.568919902260342 4.343423478767396
As 5.483072745251003 5.1182488902094105 4.4368396888982415
As 3.6122576870726903 8.019510968233481 5.4795494958679605
As 6.085352919720798 1.3829011546308643 7.495039904221938
As 2.485626270516158 6.231717502700086 6.734491298613201
As 5.835313907376724 6.999769382940801 6.124548408934935
As 3.9414849582397373 2.18010354396915 6.511099369417629
As 5.673695070583325 3.8505473910473964 6.978739649602515
As 4.567682918596319 5.96823497109267 8.023216777551207
