16
Energy = -72.27014305 eV
As 6.7763516590371715 3.4795705493156195 8.05947281213186
As 8.27668192940534 4.043533251144991 9.987436750182944
As 8.62425980355127 6.486736012664724 9.942050290586351
As 6.6570156735526504 7.311744264421204 8.70547866889093
As 7.952767346335086 4.232513526252429 6.030119506426561
As 10.607424215767427 3.8924047117422536 9.029085105860895
As 10.624864284180507 6.371804712806189 8.444470505191406
As 6.130124822909797 5.6338295013240565 6.969538966876975
As 10.298340228093215 4.664530146560751 6.723227232444599
As 8.002000675519094 8.959180993102688 7.372896640337594
As 4.510438569231839 10.276149001721981 5.912307631215503
As 6.533748824525817 8.99036162151863 5.413235384086488
As 7.3089288864953295 10.942214574977324 8.63347666467327
As 6.991983793332651 12.646829711635688 6.912856141645317
As 6.467329131395085 11.34960791997224 4.77365864289979
As 5.022806826755899 11.561743428634399 8.023901654231036
