18
Energy = -81.43150417 eV
As 3.3601113664083515 9.152472841067626 7.806758547226157
As 4.78040294921024 11.009810295836878 6.806240259541336
As 5.035238460301061 10.282715445796581 4.407389159550955
As 4.062188046623251 7.0896038380879425 6.67913726928989
As 4.972481305791262 7.589401829738259 8.927170110792865
As 5.128526840475414 7.838458632447079 4.562556665371633
As 7.145778089522941 10.371424480618026 7.075726605806849
As 7.217601962254333 9.042010626836083 4.9273899021546335
As 6.698203952888889 9.310493035077629 9.233880224628278
As 9.19758184455531 6.6993314909800015 6.503257773902706
As 10.521620474165823 7.85426797806857 8.201422726684449
As 8.806738329126864 8.202142269890315 10.01957629347645
As 7.7435571561719385 5.20130794303681 7.855912803346187
As 10.765746203594027 4.783263932098159 6.032275847723121
As 8.459696621816374 5.7103045364804625 10.144511614246408
As 10.904100109756715 5.983801550658057 9.7902127340307
As 9.310967774648487 3.275730874775578 7.424010877996751
As 11.470310434062128 4.09115107289474 8.29863953138887
