12
Energy = -52.20608054 eV
As 9.143289225257845 8.55857487695693 7.0355140746216085
As 8.181854763110454 5.378897936836786 4.968966652965836
As 7.776258202315179 8.85017500988203 10.96007290418047
As 8.052985897828126 6.614591471294713 10.081485802804691
As 6.324068893703014 6.216944445475417 8.300720709475591
As 9.21022915785726 7.606158092154749 4.707579266593701
As 6.665517488332088 8.294289920858033 7.072494852230248
As 6.599871057457562 10.156843079896907 9.410545136311821
As 5.6370188922035105 12.104331825931546 9.401451433671452
As 9.858553397550804 6.579023546617056 8.275863254426156
As 8.24507398410728 4.916383461326812 7.403177957817207
As 6.7137073107953915 7.347127356447297 4.710367541715876
