10
Energy = -41.58896091 eV
As 7.933030713542703 3.914076716106848 8.136851761672292
As 6.312758687081467 4.455332324339216 9.558919289979137
As 7.560538408276332 5.754953557479248 6.434905925414312
As 9.46321007897854 5.599142179909357 4.913627129930171
As 9.688947796026318 7.9034733691210475 5.063087412416404
As 8.659670706966937 7.831814584034925 7.2788802470709655
As 5.16798999035438 8.215762382473748 5.768681599865926
As 3.6350533078022997 8.742615377269766 7.494618912066279
As 6.831072783401065 9.509108487298736 7.032225127662032
As 5.458851523765447 8.934340607692642 8.992941720129087
