19
Energy = -85.54541074 eV
As 8.858395778806807 6.008752260005984 10.391799020036672
As 6.808133658505063 5.297649828458146 9.16219911401277
As 9.05181947465178 4.379231551101532 8.552744600531454
As 9.315434897927144 8.41188275815281 10.02202557811812
As 6.554633284438302 7.077753799433928 7.404368642299181
As 11.302726599944414 8.88875454986128 8.599195739967923
As 4.126419723585946 6.547779650843056 7.148283317256158
As 9.778582973297487 5.509787854738182 6.473817730461895
As 7.4404943241744546 5.626833574500505 5.583462620787129
As 9.039725811967497 9.49587688118177 7.805403841981565
As 10.416630705642046 7.902184326013858 6.488348188475452
As 7.332828313536012 7.717650685304652 4.295549659836541
As 3.676038338535981 8.036126068860925 5.241919689608448
As 4.1487067266406505 4.346453646601327 6.090043789888671
As 5.098322150326433 7.1572297268892076 3.423690344533252
As 1.6181685279059335 6.84352278825585 4.5221359046837115
As 1.7300558225812142 4.547002531856043 5.479030841947342
As 4.809004753344967 4.7410183180143735 3.724666470470006
As 2.391413940499336 4.962045006238188 3.0888507114154984
