11
Energy = -48.41822942 eV
As 10.641290909490936 8.495401647931924 6.790995774779392
As 9.109459718923953 8.789498149752367 8.743329941853146
As 9.749097057171648 7.025235280473237 5.2133077847993405
As 8.23809523974513 6.507874738139998 8.72869986451762
As 7.628625916111604 6.701571001148355 6.360723295178958
As 7.150204759133885 10.117224986403166 7.871827020527882
As 6.192616905710032 8.74057808865826 6.076375440957835
As 6.305766169092763 4.7121448350635795 5.906365695467461
As 5.891295836811515 6.626285085457417 9.39467025521184
As 5.091101194582415 4.790981567692024 7.897861986953478
As 5.131353057867701 8.763993157134792 8.2920972192025
