10
Energy = -45.15020761 eV
As 7.366290537204406 5.408201170563317 4.5401557975115665
As 5.347860566842742 6.010496505576373 3.268712367327942
As 7.081714280660308 7.327646716789039 6.1402610705147085
As 5.320610135476295 8.190687430023035 4.555396017726574
As 6.805200880433907 3.2032315219223593 5.5060754901064115
As 4.514714937875755 2.6253279433897796 4.830689432099182
As 4.740022819202132 7.512064221807745 6.8443158449839325
As 5.02838283921876 3.3542902931744076 7.1893547609352755
As 3.4526037023005745 4.866634638128761 4.323027567392904
As 3.5583159051074666 5.343773410277958 6.7345293156970625
