17
Energy = -75.58714522 eV
As 1.8685160025848948 6.59038751564885 4.548178308557689
As 9.612721630573752 4.476853956886871 7.976557232115618
As 3.4515344983461196 6.092653635704892 2.7767405913904994
As 7.029989946181879 6.590285893638466 8.223955919186437
As 4.101218159415273 7.60997488950795 5.648448981568415
As 2.2583202957559756 4.407639026988826 5.587442461297112
As 3.9183225741577696 3.8725144119832424 3.853182018899257
As 5.651247296908687 8.562975233535003 7.511584850708366
As 8.8349195883439 2.731176657306577 6.350323306573794
As 4.696598652903862 9.586846544145041 4.256009540129034
As 7.559726572636271 3.1459162807647107 8.466843563241435
As 7.896998155861788 4.489593596092854 4.8446697337888525
As 5.7392095567482135 3.6242295859032665 5.608356619921516
As 5.612715323405449 4.580402784429006 7.898874886650697
As 5.638233191736654 7.359699398510089 3.7132397060063616
As 8.690049319787303 6.241953943718175 6.466507083493371
As 6.834411079533568 9.048043764750187 5.462345130303437
