16
Energy = -71.95351055 eV
As 9.572125256144965 5.84059516565462 3.83084494405133
As 9.53259594352148 4.135730393018416 5.603449057818423
As 11.711195079313182 6.724955080265227 4.720261750372398
As 7.974102504483232 7.5905916283167025 4.47077674115294
As 6.424400674102741 6.25506359551282 5.892919348289238
As 11.410567118440458 9.17471583571502 4.906117457058844
As 7.770635880398538 4.529033950108885 6.980032455257833
As 11.191557410835923 7.7502518577177915 6.9183276967472445
As 9.227672675620534 8.992142694399458 6.067547546454421
As 6.243376672227913 7.800070080042857 7.869574375936513
As 3.761268269512679 7.833359461434934 7.98483400454569
As 5.012960308811912 6.232210739897684 9.336820811979598
As 3.566425492517766 9.814455054786736 9.459234463440682
As 5.613477230291766 9.87330309909478 10.851629521610226
As 5.480981300527583 7.471907731482425 11.436020731930489
As 3.5200087327314202 8.947150833183192 11.781593690273183
