19
Energy = -85.74847305 eV
As 3.209723917078164 3.1778396383686327 6.964347047207653
As 2.175443275835949 4.93361581028822 8.47110975338989
As 5.265417215247294 3.288297316453642 8.400846591564292
As 2.645443082708174 5.4261207754244705 6.122108355982648
As 7.069538677018702 3.7945336360157507 6.779378818073201
As 4.400615993641323 5.293208411078835 9.61220630193359
As 4.748319509633423 6.953440760725985 5.966481142049144
As 5.976680963334346 5.055416028492678 4.970655823936805
As 8.240435730942313 5.612466775972784 4.11324841119683
As 8.236438298202591 7.7145878733934685 2.835380150661988
As 4.996367819864174 7.330628179190808 8.416391228970172
As 9.773813505592283 5.995042629419014 6.055671412987617
As 6.072708070101664 9.419852073643487 5.922939243761197
As 8.551209874275182 5.310270737834421 8.073984390958291
As 7.2131719529426395 9.813871832607523 3.8259174351008385
As 9.64050725134851 9.332691960691385 4.083178739322033
As 7.3959505963142 7.36446686168801 9.01844870480536
As 9.963711632305582 8.43704913467734 6.3681237700047655
As 7.931895580777043 9.253992511197554 7.506975625258407
