19
Energy = -85.70618186 eV
As 10.986510134525432 8.89914523231392 9.889675707512312
As 10.729308837080895 6.53610102235086 10.597305387788726
As 9.468374415416363 8.318925482886444 11.774260957449249
As 9.522352212015898 8.56244386276367 7.836146626876654
As 9.247476661450508 6.161878652879265 8.52713283585325
As 7.155688492165191 8.348761089907937 10.832163656308985
As 7.7201570417687915 9.806267360450603 8.928274781823422
As 7.277684083893655 6.052301649084112 9.98203501645903
As 7.38271225651378 8.018703248636303 3.6753563714167106
As 7.536708570622445 6.991666460273086 5.942473486998911
As 7.962262552822409 10.400548272033191 4.10704200802591
As 8.26212760875782 3.6716240360260204 7.186541284136553
As 5.555672496418181 9.599795819041331 7.672525761049441
As 5.213907762583952 5.900319193273296 8.61213147740535
As 7.083188359394952 4.604968206540376 5.2497424399025
As 5.229593478933993 7.380708839055957 6.631434958037732
As 5.8215778542854535 3.8501518068885527 7.264470524561983
As 5.631343857996799 9.806060635860026 3.5762821712706776
As 6.124711669415638 11.004260013768176 5.702750441446386
