19
Energy = -83.50336664 eV
As 4.3517958230484775 3.675587983738863 3.378651124313854
As 4.779089624068178 7.725638589718303 6.8531263661620265
As 8.209181202168303 7.739567175392813 7.967950799210481
As 4.482702440244176 5.520135666561189 5.158470148213169
As 3.8471377971801517 5.466164696672879 1.7361123056109962
As 4.592657093438598 7.299388904587976 3.3367814013241133
As 3.470154069053212 4.762313691539347 9.005026158044314
As 7.181458090510982 8.131192636827027 5.788509424038756
As 5.923954371031743 7.352089457620968 9.004474730400721
As 9.554095727756911 3.762783839402904 6.594536874550213
As 7.139588955752862 3.77359078172928 7.01085584244558
As 3.5555422908647167 3.603266658966307 6.94416889988325
As 2.105344117570709 5.302707397795665 5.811988676640995
As 6.795833171019707 6.727292277276833 2.3960274102425374
As 8.465756078257208 6.673528092706666 4.284762313582194
As 8.03470780693621 4.266841556844621 4.758022038758315
As 6.108923482885456 4.368096911803953 1.830270669286901
As 7.553776472316071 5.489705662591209 8.762488154213118
As 2.576140650513783 6.680354323367173 7.850996927944628
