18
Energy = -80.92631442 eV
As 11.656376529110084 6.560545454667799 5.439290747168042
As 11.482862740684178 6.299355011810987 7.860944371978122
As 9.704003399040191 5.264982282406288 6.3851783718866955
As 10.818831625807778 8.446228490237178 6.821891938151532
As 3.790610463387565 3.1684258358578044 4.278159671371561
As 4.849850762665376 2.751860243385949 6.425893676217596
As 2.5580552537241865 3.714226982343926 6.366629611486251
As 8.48484321473978 7.419015315771992 6.551671085274956
As 6.850347026870258 7.642799205862116 4.75434947257393
As 6.311288354290145 4.804932388918891 6.030234573111159
As 4.795108224909397 5.701297260501651 4.335066366250533
As 7.315697364939894 7.577423353711975 8.741260420919922
As 5.706675971297893 5.733819916589439 8.253457260505911
As 2.8018298329989717 6.117818440084445 5.759503218555854
As 6.331952981614408 9.77934769852234 8.138112147501822
As 3.595807625903846 6.975038470326504 7.91194428002611
As 5.901095550859398 9.720219934258829 5.661532701543201
As 4.061327951151803 9.339228588736244 7.301444959471486
