18
Energy = -82.75402798 eV
As 10.05971532267862 6.57692332382488 3.380225655574392
As 11.528041990292829 8.399277324127231 4.212570810398908
As 11.709185893826373 6.146930438627474 5.243738724229111
As 8.191197218696532 6.548616243491462 5.0501001379997374
As 7.941842521919295 8.98710687404986 4.940273628811174
As 10.13646672885029 9.745740441871641 5.753611898518853
As 9.81814200224036 6.124616675246897 6.88638272617919
As 10.426189563767617 8.337371997224809 7.750932113742378
As 6.760344150952665 9.712392361156589 7.001351035490333
As 5.0598592530498 7.933297282167626 7.209610890857044
As 8.417214310706397 9.249532261100272 8.894126893942172
As 4.069355305318892 8.888282569980644 9.23490539894437
As 6.392764823595639 6.094485672556862 8.153177513661797
As 2.8301589521464767 6.7941701025081755 9.787531531134656
As 5.707223027128777 8.40754597972366 11.076845445704151
As 7.559034732136711 7.216781397566947 10.006622727721055
As 4.576385003496702 5.046447184268619 9.495910096583204
As 4.477150228681141 6.309885389383704 11.635424618096245
