14
Energy = -61.81482597 eV
As 6.086074823096566 7.1100573676548455 2.3055627079382317
As 4.116522845576256 8.056346588999013 3.556422313001982
As 7.199158592204075 9.31345430961005 2.7408693691061874
As 4.877861193649314 4.66684575890993 4.5249096158960365
As 7.696004039751137 7.389343793170424 4.189647715498014
As 6.553920593356456 2.066197825350729 6.173532686333777
As 2.9723774292224183 6.217154610198472 4.860337515561697
As 4.003362969405531 2.766409939950131 5.9066662307304725
As 5.987430079361887 9.053603964034549 4.918033889320026
As 7.743655950897618 4.06126119017079 6.82566213411516
As 4.849632196962566 6.117525513089529 6.514180085457804
As 5.210498817226908 2.1569424363439698 8.265571577454589
As 3.7874349587119354 4.312930458246158 7.924690800266807
As 6.4272036584172 4.223064392110698 8.80505150715908
