15
Energy = -66.9968902 eV
As 6.0617995929849595 4.66549684119803 0.9596575172043211
As 4.431588518871811 3.214481691126406 7.87184520214151
As 6.624545208293144 2.2750912345912404 0.49377307403974724
As 3.6721435789221832 4.593795504179 3.9802354968602147
As 3.490115198899716 1.6491863364986612 1.397031658688665
As 5.6153724026876475 1.627452128687397 2.7580336770720026
As 1.1674229813997472 2.647796324393751 1.8098711946572763
As 1.161187394125342 4.831557685739173 2.8824162244779936
As 0.6787529740077889 2.8146189200193175 4.215128298298838
As 3.0583801483209734 2.496041328661212 5.097725891608519
As 6.047595702707626 3.9687910810598415 3.3401235211419595
As 3.963248991130858 6.251829794516177 5.784495557639402
As 2.6111056291627626 3.3101831055689 7.382325411796772
As 2.098517116484795 5.743917198395167 7.330737374031311
As 4.380208282471939 4.971744545836576 7.87184520214151
