16
Energy = -71.54186948 eV
As 6.738677109939742 2.011143206696721 2.008487778740492
As 4.0483795913393665 4.723280647100828 2.6767948224986875
As 6.214883842257472 4.345877086796055 1.5384282236450855
As 7.886772008727791 3.8089803856900852 3.3206471224732734
As 4.832619363258343 7.600397069203993 5.278849206931482
As 2.863469301399494 2.5416337683999073 2.528069362471976
As 6.746009038564237 3.742637359428156 5.5120885737879775
As 4.05709730883732 3.2555715579950113 4.659207650869591
As 3.1347919781843556 6.446836239733985 6.646555575177454
As 7.1018975615342 6.000356190840204 5.994142207655761
As 5.413373974593311 9.215467690481674 7.0646398275691995
As 4.816093762120633 1.2679885084752538 3.3899481378046996
As 6.659791608291416 5.689382627821999 8.407351680575406
As 3.0191546805270066 8.927549542624892 6.473753290545054
As 4.212724414108513 6.000987020153537 8.831026584720014
As 5.723589452928993 7.891236095169456 9.139334951145168
