14
Energy = -61.97367829 eV
As 4.586615533214742 3.6382122318398253 3.3404819890696196
As 6.2709456941042285 6.736491700078929 3.971695131267826
As 4.171006011697193 5.783572209071983 7.1455612386103615
As 2.2193525030800183 6.293178623733832 4.304028382835549
As 6.3024428980049025 4.585913289757732 7.322629571111061
As 5.500520372454957 2.206881635405876 6.661122928401006
As 7.387640863097478 4.785485217065517 5.067296380725392
As 5.337733335266954 5.50749949914502 2.0219182251847116
As 2.814280624820596 5.7130747780503714 1.841190780989475
As 4.209906650439854 7.41864960770105 5.246031555663431
As 3.140275976362869 2.09651946353773 6.348902384427923
As 3.2375557714879903 4.30535664280635 5.404169263128633
As 2.701547091559779 3.298145911135277 1.8523224561356373
As 6.5258298805905275 2.525649598303468 4.32598918896477
