17
Energy = -74.25993644 eV
As 3.706329996375205 3.7045928032934468 7.024471675760482
As 7.039206418676926 3.0346908787720457 6.6440370345092035
As 7.0122981768050145 4.605684830963138 8.507901331158978
As 8.482596472673956 4.784227013747776 3.4852991358533103
As 6.175009107199846 8.957600335323914 6.313037099800866
As 8.76593946981057 4.603655410460595 5.925141436891503
As 3.494597817948201 3.975564192203848 2.990661475688009
As 7.359861805351314 6.775922064929794 5.537521161472285
As 6.549219588122696 6.572609144956614 3.1770290366343112
As 3.918129672947119 7.919381583487794 6.093058566792386
As 3.590522682042922 2.1467575336687217 4.445825973295308
As 8.885398964369537 7.25072017423828 3.626242893286288
As 5.138665590236128 8.84802427386065 4.165766512349113
As 1.8789916132820916 5.1304097357357366 6.193611663230341
As 4.155848678472242 5.466097630269972 5.272824366413557
As 4.834916366300741 5.393202370174139 8.501056735297876
As 1.4795857749648957 3.415857843894881 4.282270823317357
