11
Energy = -48.97412971 eV
As 7.912454160562279 6.846256990584033 6.002858965099854
As 8.561263782429188 4.982303962522865 4.524439946395395
As 5.993795641123576 7.30334496667694 4.544662760987231
As 5.26391188201497 4.130214019506809 6.614270344951332
As 6.563851787177917 3.492608490574012 4.604820752828496
As 6.531855373843147 5.363127433008124 3.037955179548399
As 3.3889467260722776 2.740216106728774 5.78884667394728
As 2.665796609980393 3.7953329628448937 3.6549144026912868
As 4.405068995515618 6.398344915216622 6.188152214220455
As 2.5026380533682464 6.060900793959293 4.647678096777193
As 1.3468550924786227 4.151370542695757 5.71368663748586
