13
Energy = -58.83693796 eV
As 5.994128926293289 4.817525422544687 2.6782267576787886
As 7.821300641622911 2.45774446988138 4.620244296333805
As 5.984793021732389 2.3054990345811053 2.8959175640043653
As 7.818397818169728 4.969315507644285 4.403780639926879
As 6.10560915126291 7.731864312410116 6.021511393103227
As 4.291253340762306 7.60270367267436 4.283882305268052
As 6.694497570632746 5.415421735957641 6.528071573225395
As 3.9097112472033557 5.220345037033063 3.8886833429773096
As 4.36796819196939 7.992556635925074 7.829399481626498
As 5.507069480668028 1.9740364265211645 5.27850665272456
As 4.5297466139771005 4.325715496704362 6.097078644404692
As 2.5476876700827544 7.867549558545323 6.085743932034548
As 3.0116406215090277 5.965859958215461 7.565564969895795
