13
Energy = -57.38468746 eV
As 9.842090770070886 5.979197757798713 7.111595446631591
As 9.43551696500509 8.42162352128788 7.739231960550634
As 8.644902281879446 6.395921460825142 4.891535812054636
As 8.170900895698884 6.299777580179464 10.61521461523308
As 7.958414489445965 5.145528024774096 8.398775514553622
As 6.279538049777059 6.917434426729844 5.437410893997447
As 7.735164639908942 8.744260799087987 4.594743643956499
As 9.184167539595611 8.620007689484261 10.151072874244466
As 6.916982922375308 7.463832255143236 7.807328107687202
As 8.177621621875016 10.313104248025766 6.562220660432523
As 6.120146321161457 9.952170993324742 7.798564891015615
As 6.868711092444994 9.74416009801793 10.184057999501425
As 5.93522698614104 7.38957012634242 10.124542129998362
