12
Energy = -51.67990612 eV
As 4.902697760991617 4.905868072376789 3.4164478775639084
As 4.894173767100046 4.892119008684779 6.151869241459638
As 4.916589444986314 4.907579256887256 8.8877738837228
As 7.382858687772346 4.9088174027605005 3.409680848734676
As 7.4050213998799785 4.8941499392715295 6.14552632367055
As 7.396706913369226 4.910437992577183 8.881125670460367
As 4.899907497677909 7.3860740755624645 3.415473659382547
As 4.89185406008622 7.402969891275115 6.151132322121216
As 4.913777167389455 7.387677136629732 8.886990439856245
As 7.380053491252424 7.388948506019959 3.4089989866486103
As 7.402728466386674 7.40501244702431 6.1447590650337505
As 7.393885960662898 7.3906008884856185 8.880476409260945
