19
Energy = -85.1239051 eV
As 8.935542529220625 8.883072860297775 3.985784065295525
As 7.60963345623906 10.489730709043089 5.296859654583734
As 11.175966462454406 10.932461194825294 5.850436813613179
As 10.973394408760713 8.553588779454294 5.365544809060755
As 7.766198370943163 6.668897259344565 4.152447962611951
As 5.422890476921665 7.382782831056103 4.741259050567679
As 10.536831857550359 9.449001383959589 7.6806500789128185
As 8.120680511570992 9.98941134575039 7.727505903647899
As 8.703854417094572 5.9421266654370095 6.307493552463523
As 5.355264875598557 9.78922624435131 4.900967671230576
As 6.666472525352518 4.646813817959898 6.990702182016469
As 5.311757420448326 6.774780316272375 7.16751025040819
As 7.550010484144657 7.609855305753684 7.783182604761766
As 7.645908807935339 4.32707043956444 9.278124188168663
As 8.23077608245358 6.634152829661669 9.96595459040039
As 5.518978925630712 3.925942306780903 10.458860791476008
As 4.313249586171161 6.085794795938918 10.577600591635834
As 6.29163290699827 7.371267878505948 11.310329583985952
As 5.653478311261775 5.295165147819082 12.517131508098249
