15
Energy = -65.96979443 eV
As 7.656376756146022 6.288838659639424 3.5023687382254756
As 4.164732372860837 5.019278109384678 4.851608742522984
As 7.199388600610031 3.810403534665644 3.4212030508618225
As 9.498812401175675 5.831657348965509 5.102865317604578
As 5.885040621202407 6.939107872935224 5.164151191586902
As 6.049976152590027 3.7384992827055403 5.6393908801676345
As 9.533745293088476 3.6463045921784567 4.293310271472274
As 6.642551564183214 9.380067077775234 5.6884147549217206
As 3.337304960396304 7.747688851359276 7.676775472364718
As 5.354959803576321 9.334439681442989 7.793921312232443
As 7.145809203866744 5.817097407984059 6.973720238983728
As 7.624018488667569 8.445559348634905 7.686608248823263
As 3.342691526702566 5.299152262867217 7.174844719048108
As 4.536634026036299 7.045133809035069 9.717517301526005
As 5.351419507699122 4.9802334392285355 8.636761038459214
