13
Energy = -56.03600878 eV
As 10.594483483566055 6.515488440415967 7.005042968655128
As 8.871307697494853 8.347744098745638 6.981273040755502
As 9.696051079611715 7.424482389964078 4.753126712993881
As 8.525476114049134 5.6755961343168435 10.256413567099438
As 9.307494505979994 4.818655851125086 8.231800720463145
As 8.056904315316539 8.027739915976055 9.64678480625452
As 6.301525786252903 9.263412337767686 10.954527297870795
As 7.382093458210694 6.717363642796622 4.2902968422933
As 6.712866021651031 10.147562587864323 6.666624822842087
As 5.589802956534356 7.430430653924255 9.457430887470112
As 5.2488994580465995 9.74555758381046 8.702030507332331
As 7.041611345225377 6.644188609449066 6.748554135190032
As 5.690608688003295 8.28022136119299 5.437720175868774
