14
Energy = -63.64259717 eV
As 8.998731621824223 6.5496688877784495 5.339173930072418
As 7.287395738857082 8.220211393048556 4.567494375681005
As 7.037422209070066 8.262411035889661 8.78782778031045
As 8.695198628378979 5.247803207840165 3.2263234759809127
As 4.902893164554733 8.4539927880407 7.554196369163456
As 5.4635059774682135 7.521674609689968 10.665610765052941
As 6.984305688400407 6.925740135992067 2.4506095100734817
As 3.771347418861636 6.78341689176175 8.972859182654789
As 5.093917273735128 7.421773891934673 5.280205302865535
As 6.271379448728904 4.694924919728563 3.298904563790529
As 7.668346862027097 5.866875872100664 8.852902944190484
As 5.486626361552395 5.180454972815508 9.774979164560213
As 5.535030546502043 5.036337473616066 5.645795808485273
As 7.796432138089765 4.827246997813724 6.57564990516889
