11
Energy = -47.43831282 eV
As 9.637581660604734 7.335283742451792 5.1712420357486195
As 5.3753080455565625 5.368656080346886 9.626325870732941
As 6.170497767845411 7.643718557843684 9.645406228901699
As 5.623345945304843 7.836535725488451 4.599429049580026
As 4.266657732464988 6.690540073215601 6.303241762917397
As 7.569833760310387 6.818997841488184 7.743847355658366
As 5.0272122568749005 8.673575846289248 7.5395879447524905
As 7.206322013528207 8.808764537610056 6.2159836910936725
As 9.872573136653482 5.836508711466301 7.11542071957487
As 5.926281906559215 5.026949261171081 7.248826573459891
As 11.222480818768801 7.835915102501877 6.784184389262744
