14
Energy = -63.21974214 eV
As 9.518839298240056 7.5120533440778425 10.71417284671922
As 7.487092346845075 8.6685793923052 9.865894523132473
As 5.911220947955118 7.034722041705165 8.815955831975709
As 5.2506261840189765 8.773623519355489 7.144817337626579
As 10.792925105275623 6.605706215872785 8.80562891029607
As 10.862009316028344 9.046414702425519 9.207557013871174
As 8.761059476850706 9.909048139888652 8.133894053223607
As 3.3249415471058414 7.427428347599329 6.427398192236763
As 7.157025349640828 5.353539339468661 7.500800963315504
As 9.027312786129619 8.553498253007053 6.085628105227421
As 9.382975481203415 6.218553301941304 6.822133471190995
As 4.1261323358389514 5.654266508328766 5.229729820655396
As 6.6790484127809915 8.346666206853143 5.189217301470166
As 6.5722752213507585 5.882310805069397 5.120088211723408
