12
Energy = -52.64150992 eV
As 2.719206829757072 4.187912388387758 5.551765936978657
As 6.042580801868097 3.511623837960731 4.923418599495503
As 3.175638886100815 4.700869636956009 3.0674501872802513
As 5.504043699652241 5.433079235099899 3.3516197951439937
As 8.163282852332404 6.604784063830084 5.260729527733175
As 5.989626497030293 7.172661192484736 6.277418278535261
As 4.154880510917715 5.565240700906053 6.998400546729612
As 7.711659559441766 6.1115001768117905 7.663692469810366
As 3.690299959187997 7.08516436697666 3.5782641542329703
As 2.358677799121701 6.653600318426572 5.727655025799903
As 8.43478269076156 4.056699864553339 5.046978590954482
As 7.113990597614676 3.6669176928650558 7.130278213925574
