10
Energy = -43.62334153 eV
As 2.396177587075872 5.110285955129337 5.980230137848938
As 4.654911906784965 3.6275043308563313 6.293908365791449
As 3.8557261527715734 6.9097550325672294 3.410579707613642
As 2.4168184226161085 4.887294688264582 3.570747666698044
As 7.314009527600579 3.2676813313884554 6.1398689926212615
As 4.570421423686651 3.218598505725931 3.81967488015296
As 6.029208997852368 5.272633358272057 3.419293699917897
As 3.829530673807623 7.137094746498001 5.819459598237099
As 7.2395541342339325 2.918083462828679 3.8805081493319307
As 6.1346356273067535 5.667529035882948 5.895176509692337
