14
Energy = -63.64116129 eV
As 8.574816773689646 5.8139079882819 7.208973519303155
As 8.251506427488907 8.10279204340836 8.046227651754696
As 9.414425214046387 9.206027129568545 6.1171955191767085
As 7.771187441695515 5.755208127458069 4.878597535321364
As 6.785197183011735 4.735955350195188 8.569025662202208
As 5.833335166282596 2.9240905482776234 7.132595998973457
As 7.192751295312001 9.83242860871271 5.062446852778514
As 6.127488769368227 9.11654082956033 7.206692021030957
As 8.560281997123674 7.989731106477414 4.152334370744544
As 4.533850944065871 3.911312687543195 5.280567329892831
As 5.341435197322455 6.173616082955185 4.664562596986108
As 4.642193365879648 6.018371468973817 8.570927422824175
As 4.40729019906555 7.428069881348688 6.569902340341609
As 3.569402091181121 3.9971102127725846 7.545113244202575
