19
Energy = -85.67979382 eV
As 9.925276587147492 9.976533181712046 9.482642578420498
As 10.19567463042963 8.104030810410903 10.981372994220742
As 7.958712483604827 11.189061738928924 10.45898235497787
As 8.378211508823245 9.094367260690348 7.7721547546258725
As 6.444974101249005 10.900807552135447 8.471472848293873
As 9.851447322010868 7.380113351279991 6.527016306531358
As 8.958226890528787 5.598919127581964 7.95842599124461
As 7.935088052067833 7.288539736649667 11.220906414199773
As 5.222917412371418 9.158212224528928 9.590354680895619
As 7.13437275690268 7.245829347586513 8.881025414597062
As 8.40397020251022 7.318596562650634 4.519407819694457
As 6.6440254746350265 9.386342519287895 11.64341396952457
As 6.140268289455289 7.679241733166962 5.414199615896549
As 7.505976596979656 4.201426213035789 6.490284411085941
As 8.458607164510015 4.882238969094441 4.316471322289877
As 5.485919188203133 5.570612854583438 6.577417717255645
As 5.105597867169865 6.773225987584931 3.31009438403414
As 6.414613280236951 4.693336271259564 2.9140324120684067
As 4.494607785357105 4.62481764147604 4.473455000974759
