13
Energy = -58.36768356 eV
As 5.395610973434047 4.64397462507788 8.347143419276323
As 4.13850140360021 8.155591630542569 9.029448154723468
As 7.2167736608055035 6.046362387793669 9.360385038214138
As 3.750766194135544 6.311348030232216 7.4730427995272475
As 6.515504649760619 8.296925210336148 9.156947287565284
As 6.909178248544363 4.224146977972402 6.409531477047244
As 8.406503794587511 6.14506822534892 6.845690877493094
As 4.8723022229932464 7.301524816864441 5.517941611877362
As 5.5174659270793 5.110484278580747 4.588857807515128
As 7.044091447211145 8.138801108885074 6.340708949557927
As 9.376955438340065 6.151901034955102 4.429692458402238
As 7.336091650158024 5.860354115586575 3.060922224311609
As 8.018922110715199 8.11218527918903 3.938355615853717
