11
Energy = -48.06214043 eV
As 5.419026569587572 5.690638668356128 7.182699121478195
As 6.1447848777597915 8.110580960098458 7.7454356692239585
As 5.690161083498582 3.0502519281517886 6.957238303973744
As 7.408008658933349 8.014585871460673 4.4035742056349605
As 7.21621579799044 3.477590950802084 5.100966409883927
As 5.227640765720942 8.524359346572291 5.546540775755989
As 4.813896157515626 3.4410791766863538 4.756620500969905
As 8.404169544999215 7.711546009669546 6.713715739099743
As 8.27149133952718 5.836051363069904 5.118376024285543
As 2.969708089071563 5.804865304085624 7.174120100235989
As 4.195908837788782 6.099462119734505 5.061724871851591
