14
Energy = -62.31743293 eV
As 7.843011259073281 6.021448209451795 4.43695969005694
As 5.382887421119078 4.463779490979406 2.940082641896602
As 7.464682518857992 3.6252076880783917 3.948519120340328
As 2.7045915779257306 6.152762993740245 5.5769116357263835
As 5.438969118499259 6.212984040988516 5.124131740558907
As 8.964683827772783 6.579499838807136 6.594829764756163
As 2.709860415121188 3.7944570940138154 5.723032875136577
As 8.138919188597757 8.941709455691248 6.269813782606483
As 5.7525786048839835 8.65785906044439 5.629027772197327
As 7.177319255303817 6.326060039057857 8.323980005190991
As 3.341032032061648 5.092022536223123 7.721807567235175
As 5.768746002437198 4.6966707182319904 7.119090624888561
As 5.103011033315979 2.9006555586923914 4.701375778565741
As 6.3385410663225015 8.6637165968926 8.019270322136588
