18
Energy = -79.47379184 eV
As 8.627843214433902 8.323441731133205 6.235017421470349
As 7.874397999227684 7.4814693790982405 3.8915794468968414
As 8.27960331503473 6.076603941054609 7.232334541296993
As 6.760026805651769 5.64558668383126 5.146708232223123
As 7.735171490530748 3.257384134540052 4.872464273894634
As 6.434266632988953 9.069716193731683 7.199045562884736
As 5.145046467022093 7.690629059838672 5.672724949175691
As 5.553448088261376 2.2288798140013997 5.319722303211446
As 6.723063267504036 3.202608198796017 2.6272066843343795
As 2.2530583458733684 3.0616736277122687 7.059465110666173
As 5.618301468038198 8.282026924568475 3.3871813795262447
As 4.249814463117851 3.290253894259076 3.4739653777312185
As 6.638123736131396 7.164156950632007 8.8036397338402
As 4.369416515409768 6.123867244824607 8.705853806376352
As 5.436037736785048 5.337844918369526 2.757026068504359
As 3.0885839604593373 7.2079878636165216 6.989180318049346
As 4.501025498377737 3.868318950244929 7.099414810053551
As 2.835534451853667 4.843071893023238 5.595177359329859
