13
Energy = -57.0829088 eV
As 8.924087574944085 6.279740151465889 6.14173332533538
As 9.205573851112137 5.273419749496265 3.960599983301364
As 7.977261697127693 7.300705600518961 4.1645648447451045
As 5.843337529473235 5.818700649503985 6.7371506773810825
As 6.651381006557554 3.474321560023722 6.191258265543262
As 6.719292186787031 4.1289028612083625 3.8113401651934207
As 5.2312458383764495 6.2370334743183244 4.356741401132163
As 5.035604000813822 2.4642640233324387 4.661662885354643
As 3.6262023042823435 5.698256760181891 7.882530164056957
As 3.4697896125736136 7.684921925543564 6.461392701114963
As 3.427879995674592 4.325774390836147 4.17982477296439
As 1.8923496481308633 6.5858769478268 5.051750786138117
As 2.13793537515785 4.456578016717934 6.278762766836226
