15
Energy = -67.53141708 eV
As 10.790285982413094 5.220117517452701 7.83588606590441
As 10.189138513978794 7.558673818914866 8.40198997196367
As 8.040937551232448 6.514061657440003 8.99620080168134
As 9.86276122333464 8.04087104467264 5.952989031570451
As 8.608235194798558 6.019719834423408 5.20560794600694
As 8.398405107470543 4.726873039774187 7.317923433337575
As 7.416877127200969 8.146306760423457 5.595677010335954
As 5.242403098253848 4.950431060745352 4.647163333665039
As 6.621213190954463 8.210466480573315 7.940919806981014
As 4.9158405928994044 4.772775171951988 7.058766301262847
As 4.376966313486861 7.237430416823251 4.0132765127158585
As 4.436490846487601 6.994727261478968 7.974633329953669
As 3.0049014893087924 4.309588411383876 5.590538036916409
As 3.4963584790933457 8.220423463339557 6.074311655740706
As 2.109343561486571 6.5876923330026695 4.904275034364036
