28
Energy = -123.23135736 eV
As 7.539916595990556 9.840275576476552 3.581051407076653
As 4.422151498250996 1.2631155724845382 10.13923241818883
As 2.2034742169837838 6.09523329481153 3.47037640415753
As 0.5596486210812058 1.7092426002621566 0.5846069076327483
As 7.358486664254931 1.583363706218371 2.5023306838467825
As 4.151848879931953 1.1308812578653198 7.294350141152754
As 8.582591334108738 2.265588605373935 1.6357594925988086
As 1.4309660031792923 2.9521042673346494 6.0340921439140915
As 10.109901142299188 4.135277058898061 0.745082567798786
As 0.44775651117828436 0.9992737142792464 8.440542369943916
As 9.231861476832796 2.492235724981166 5.925599374982143
As 4.721143737682223 4.775695252453025 9.246777902732678
As 4.511259120634875 3.2859268592605173 7.898512037732148
As 1.781582434256562 6.514807938267576 1.1811952461532134
As 2.247062842329625 2.3734196092904005 8.32126103385506
As 3.418947627253272 3.4573437184204754 0.6676044076100045
As 5.489786709029159 4.678834338763243 1.3372147809139119
As 1.0020770191950383 3.831484986172718 2.969178185544919
As 0.6198412036421659 9.020797508396253 1.2125844884733847
As 9.937329562168772 1.6984039692748658 3.6342456934395693
As 1.3050763032044972 8.977750905923227 9.054100284732597
As 9.992455048157787 5.721014461845092 3.954197258167825
As 4.417910989898778 9.624947672848261 1.5748915985534215
As 2.335385755030553 9.110237443373784 2.734430366132078
As 4.207294442537338 6.6682846625688 0.5404752984110206
As 10.038644004361275 4.819931453398288 6.279614652088419
As 2.9087040045558625 0.4790360955154898 8.32126103385506
As 5.289735905552316 0.6708706934478794 3.535925336799999
