22
Energy = -99.17622688 eV
As 2.2552588029091076 5.5238400018516725 6.118797142318107
As 5.308739914147646 3.625604485898447 6.108545112655635
As 4.013106454826083 4.703679878819909 7.668796802231941
As 3.466707246621781 5.78604119135036 3.9589583330221334
As 2.442333561930572 7.745824054101854 7.137716336504206
As 1.9694291592476743 9.246550142722949 5.337668923660417
As 7.021617835916048 2.746531411449142 7.707532843590046
As 3.1489403243466745 8.18704471359953 3.4382961046370037
As 8.147510674673153 5.17829292802995 5.938868963157531
As 7.721764706168549 5.087173925598601 8.378345393505297
As 8.796347625517582 2.794933181514366 5.895446199860583
As 5.287629384014583 7.372105450394432 4.445673863643261
As 4.394085837603432 10.177832019903434 6.267265041127428
As 10.32231194572905 6.366154959535458 5.734231044649753
As 5.02150798806162 7.81674887137153 6.886933830007727
As 6.665189846199339 11.224615325671373 5.694673826402562
As 10.696918031250185 2.854397557994469 7.439101363721073
As 9.964224885372017 4.503934459394568 9.164863867771388
As 12.015706161284497 4.6523744856595375 6.278505201207128
As 11.264737588816073 6.322126765518814 8.013355103954943
As 5.8181378575432126 11.463619874386652 7.988283135099884
As 7.234912383373837 9.597692530785366 7.375259782823035
