26
Energy = -116.17103451 eV
As 7.811542214368229 3.192838603619657 1.4665518157392243
As 5.356025487503386 3.653062661779893 1.3478163877902558
As 8.604934764435693 4.699831305880223 2.963668295243788
As 5.380481604888667 6.159095606611033 1.4457123020509122
As 6.542493748354336 5.932665058178586 3.6649097086152866
As 4.94799879716286 3.990680939528109 3.814375869889446
As 3.2745446636627262 5.529069580176245 2.7208252170435023
As 8.37820965294146 8.939227999460385 5.141715785649904
As 2.729908880811763 7.263658268113593 4.4588412794975225
As 9.59706657465174 7.3422483780654515 6.593560872991743
As 5.5007445225768095 4.288061175026597 8.48564085305098
As 9.61946935530517 10.783132718494942 6.250164869443771
As 4.811847543977752 7.62239105522269 5.785488466846792
As 3.017183618893346 7.994015072172855 7.505628098412381
As 10.192836290030945 9.153737189245168 8.139763441094736
As 7.3447879180805495 3.1018883841236007 9.56289058573548
As 3.298342834849885 5.783770139416885 6.396172240351173
As 7.144633103363458 10.488426161488563 6.656175709852389
As 4.6660975147460135 5.515078463667093 10.437595570426591
As 7.409268600610655 5.943298486606213 7.433601287248343
As 4.355762979631633 7.9031100662377005 9.62437164158858
As 9.154375844887284 4.795561252076353 8.70320008274734
As 7.9355865643161545 9.896532043118562 8.920115775368393
As 8.401620169656994 4.7602432167373285 11.054717786632947
As 6.751797663194634 6.577321586155606 11.321974863012727
As 6.78869596238181 7.707311464080468 9.120778068959755
