21
Energy = -93.35328884 eV
As 11.339081431765514 7.9699213793728365 5.442975619104106
As 12.513555913161206 5.801562104958463 5.166812176298163
As 8.514964070992512 9.909803267265733 5.463165028358093
As 9.16508238913767 7.908218732774467 4.232004442682761
As 10.923072516124675 3.9200383566573653 5.097958102043458
As 10.850889241758228 7.7918889369412705 7.834504631575687
As 12.18823345318394 4.4691151309620345 7.223157211875419
As 8.728368708722519 9.1572590070189 7.816117222344662
As 5.8390690506679 10.707876952979749 11.744600952838896
As 10.130120008895945 5.453874652705269 8.287570578260137
As 6.449322180191316 8.556936512746491 10.935965423828709
As 8.865341698173314 4.501186773699513 6.378060286972226
As 7.571172780265521 6.340560971982843 5.295273095522254
As 3.216880109555522 5.693394312510466 8.69824535527405
As 7.165353796777237 7.2524326918786555 7.603349593545408
As 4.751958322455318 9.161387677844326 9.29984709611272
As 4.32714286054516 11.432357958983715 10.084652119718791
As 5.257093843453471 8.698218057715453 6.902195035727569
As 3.692248851988406 6.814501385387273 6.5257874288196955
As 2.8078677830771848 7.797258435490812 9.931877163144659
As 1.629107515198855 7.363161782218457 7.788003111119001
