20
Energy = -87.41149756 eV
As 7.023907125258523 5.5980231623704135 1.4126838713263021
As 5.5350981308288745 3.737944093817223 1.6046400909128493
As 3.5170954496345965 5.100139004840817 2.117865240150283
As 4.515322684805307 6.8176738145139 3.2880074911794233
As 9.252612549934351 4.754540851627078 2.329313707836221
As 8.52588985970632 2.4912739305441276 3.0805021999440045
As 7.7494427768402945 5.840104756434154 4.010080640239849
As 6.531089230680206 3.6128511056990495 4.126761201687229
As 2.475797616694766 7.79602766226306 4.368088327802383
As 1.2151466671421471 5.732430280773442 4.510236743656316
As 2.6261700280502636 4.39360486025727 6.232664565508425
As 3.7325026029545305 6.672630007031863 6.3800345917708805
As 5.866646349570449 3.5872925332219348 7.799869567875799
As 8.296828535420701 2.4311421570182703 5.572677378058668
As 0.5470611403047707 5.561110740603676 6.996448129222074
As 7.02453725235812 5.544734169680079 7.466560252218401
As 1.8612765236124567 7.484874882752975 7.868594676296823
As 8.940184108316968 4.694454299697513 6.117209630186752
As 3.745013242229614 4.39588326827365 8.773150664839532
As 4.024421570410546 6.759307863334166 8.95065447404302
