27
Energy = -119.98765954 eV
As 9.674385549313774 5.611731161238734 11.492225177362226
As 10.358941912132934 6.189165561253713 8.246821945553714
As 10.685463211141814 7.636837628463313 10.230273184759396
As 10.889905335846562 7.445761399804604 4.791873612283986
As 8.803779842820026 6.08560843932202 5.0483952183603655
As 8.398809478254236 2.1935170703715543 12.171994969725853
As 9.310055542658324 7.838398925357044 6.721134680367611
As 8.606852523891677 7.49929879886718 12.713775060476774
As 7.557756845125515 2.2781805106501625 10.018823918843696
As 10.459893396321945 9.419743496696228 3.4104270184827774
As 8.309028142093167 5.248652869613234 9.443056562158713
As 7.908976070922955 10.718385781449614 5.860951714224319
As 8.46546143417939 8.823371762196707 10.61983163878255
As 6.6557308303810405 4.797628837024647 11.87355341213756
As 6.95614700982501 7.354842504281552 9.329609456618803
As 8.048194963219167 9.579975524123116 3.6627365180882756
As 5.95816444608494 2.3553780997085942 11.906454676120028
As 7.438922130614979 7.234530644356736 3.331388335371649
As 5.243267587968938 6.690217122995728 10.98511992679729
As 6.2581090443064396 6.871142796783347 13.239129724647004
As 6.453766536307696 10.617465906005842 1.9954003563026779
As 6.242898362204047 12.767086524440037 2.97379576514893
As 5.031898652637359 7.149573659109309 3.8919906316251067
As 4.086404530230623 9.095171990390831 5.099996090555691
As 5.514201807528084 10.54337337366482 6.515668316194507
As 4.403495684466961 9.237541282712797 2.6547946743221957
As 6.326863849762102 12.604967708940327 5.383566496326453
