22
Energy = -99.5548412 eV
As 7.740786540066501 2.3292126636714956 5.930720328673351
As 6.686408149489001 2.0358313332127977 8.198970659468056
As 9.140629462158849 4.221602272773322 6.813726657098018
As 8.063830286311962 3.9347738077797185 9.071810341768735
As 5.419506887084598 3.1179526001804834 6.358918901110179
As 8.670319381711268 8.048981130425705 6.107576779401848
As 7.414134496511357 7.458074643605248 9.819665016183722
As 6.134385565178086 5.416898959156775 9.181792561585606
As 5.682999569519546 5.571113963897235 6.753779721155072
As 9.415068793955468 7.386424699830655 8.378415443774095
As 7.801920582659323 5.77838283946285 5.487286319872353
As 10.064488751845795 11.280378264264888 6.010294896583657
As 2.9787189069707205 8.669153373195098 7.186863624609459
As 3.303757124103959 6.712609305650939 5.978021876682474
As 11.51822606627256 10.575070771277217 7.887318033727428
As 10.065698376763372 9.479039799023525 9.543566181125236
As 6.144015444111178 9.334627114210539 8.834747979505535
As 4.449687457870076 8.801058616861006 5.2542875459940594
As 10.707347799282173 12.919655671611842 7.762189743448992
As 8.325254001283332 12.258006928669937 7.460599141770807
As 8.015607519367128 10.894720311824608 9.509844296569359
As 6.6188575992337935 9.430571986844722 6.413597762164522
