27
Energy = -119.5471007 eV
As 10.46614052951349 9.144626839698722 6.799648419857652
As 9.648879459251791 7.614711128066264 5.090884190064798
As 11.677609419064716 5.318152398072994 6.958068884520781
As 9.39302372522192 7.561608079805052 8.4617313394658
As 10.202789810734537 6.8889200280137945 10.569396440656
As 9.232863035202222 5.758659983462803 6.748244390092773
As 11.585395648666092 3.788720370296659 8.959238919786403
As 7.187576200794964 8.72908460698491 4.7603502757597225
As 8.127052887828881 10.268520958442386 6.463092059339801
As 5.064680342205254 10.665956802858535 5.092241730437639
As 8.519621832693264 10.625421270968518 10.328443648258265
As 7.248307793034325 9.089793348724372 8.779046460785748
As 8.979698586782913 8.633062184470477 11.822978249279645
As 6.228785821146712 10.481474501660708 11.375761429052849
As 6.162071661536771 11.918178643152995 6.771961730629762
As 12.987471502952648 2.1409738522171198 7.68754640458442
As 10.551315213842148 1.9192276772258072 7.657695437289808
As 5.187930299870622 10.802384233317806 8.951173426971529
As 6.0133400919391695 7.2506268650530705 6.415638637610726
As 11.694943143911685 3.0876731364668273 5.772201783468666
As 6.630831163767916 8.058800604046326 11.17218385796742
As 5.163599557783576 5.5850160797833475 4.800900094496927
As 4.061676598971687 8.81407464498821 6.45190597980757
As 3.221072965738649 9.481384131213796 8.58526058658071
As 2.7162819113149754 5.393509216151536 5.161820786859804
As 3.558658883521287 6.708385735086072 3.2488898240786557
As 2.274584031628188 7.832153731028317 5.036128194452777
