25
Energy = -110.28028689 eV
As 6.257356039898992 6.8686842154404335 1.3409140790192662
As 5.115503303323948 0.5324343837665083 3.203663099550223
As 7.736535033503094 8.476816815142923 2.6476503294656233
As 5.961272111635386 3.6008737788605063 1.126292787809764
As 6.158340216615717 5.131782301707716 3.092786603781584
As 2.8114931238817444 1.2776895969162856 2.5200454652267603
As 7.965957302494951 5.054170385850327 1.450187122289014
As 4.125246010912699 8.644941367309178 3.97322116260377
As 7.856826323887411 7.571110887033164 4.928712583799182
As 6.754337890354691 9.503543085890724 1.8427031350075416
As 2.280794226769913 2.8764588460903595 4.335353180453598
As 7.0749900842339395 1.909118658372169 2.6706009020019903
As 3.37043236456548 3.1949894837829866 7.874010187639933
As 6.420062758921821 9.503543085890724 4.504179887452981
As 3.719623070796861 6.45166231865992 5.0043954052261475
As 4.451880314634533 2.9245700588087096 5.620242346361583
As 2.136878108778109 0.4121706645597067 4.7632670527346175
As 3.0380733841428227 8.545732587975346 6.218166164822561
As 5.781737763720386 6.256138569227073 6.419608120707536
As 1.3168513160115896 4.446258466597583 7.339791462331493
As 4.550187534396677 0.42018474109881243 5.624080010616897
As 5.0192813806150784 8.28984361294497 7.740367840211288
As 1.524584829792315 6.572664148692907 8.1339805198843
As 5.055929386092383 4.8852846412336985 8.50907020846834
As 3.6980699515339275 6.754137295787052 9.298954174048626
