20
Energy = -88.11117567 eV
As 2.487163625514812 5.916698807705497 2.4543607177650477
As 6.438991302364934 5.671008351903058 2.0025454307071247
As 2.735099027806248 8.086134167737203 3.71344541240449
As 6.640489169079373 7.811404790625627 2.9934929237642476
As 4.516554043749786 4.8484747164276065 3.5838783418206916
As 4.855138911731138 7.057731625467897 4.678180540722567
As 8.403363567984359 5.055115274191888 3.6171544086586507
As 1.0642686275123696 5.0350735285281685 4.294223441885252
As 8.500265363094828 7.130620655877612 4.846576737277327
As 7.111295349746418 3.4055966827659305 5.48635669266542
As 9.60212640178206 3.4484703794902494 5.392153546372583
As 3.0708684170733274 4.4159860050250686 5.998271361686691
As 1.2097946181062365 7.151349144267815 5.459417119191073
As 7.139674709978758 5.710549832387405 6.577202822622461
As 9.663529160232274 5.455133043667779 6.699085908615379
As 3.41794765481125 6.555701750337914 7.039342190754036
As 4.188197177215782 2.8673080482359548 7.724232712886594
As 6.692477413027127 2.894130034973236 8.063060444964687
As 6.706174543089253 5.115604971995827 9.04623007766118
As 4.188805316339991 5.000132588628163 8.96301356781424
