26
Energy = -115.82276408 eV
As 9.060304015027876 7.291770217795804 10.335476373126411
As 7.286863909765179 5.744928765780865 9.561546204493977
As 8.397695068162385 3.644978583848518 8.957391950299534
As 6.4005262757354116 2.5791009682065718 7.918765249430684
As 10.0331013568188 10.659029030488297 10.019226865648177
As 9.385686007133945 8.852841142010446 8.442667992062333
As 5.12422780448571 4.376099068720285 6.754223156722611
As 5.773655205725689 9.05878729934152 9.653498827952836
As 11.224321724490814 7.292221084623976 9.075629961331206
As 10.005780834617095 3.683661462775799 7.09245324561357
As 6.305528420712944 6.462022347437018 7.383104312634046
As 8.210203227527046 12.046479142682239 9.829413544479891
As 6.588992380062341 2.763127336844627 5.461654844579547
As 11.52771955511239 5.671116763659518 7.201690521156879
As 8.839224180360578 3.595148523092987 4.9086037383056995
As 7.157277554447844 7.377989707210727 5.207599264972571
As 6.793815095170577 10.840861080460062 8.21382093084314
As 4.518020480427013 8.032292897952056 7.852044677550161
As 8.081695456955305 5.633490433616699 3.7215051174887885
As 11.316425609665723 7.395834485568145 5.442497362992433
As 5.063143016018974 12.604154012267692 8.177958775526834
As 9.255463347226959 8.723394677425617 5.245634214474649
As 10.054012944706182 7.112568669465119 3.365668142830083
As 4.006354662543993 12.570353350055283 10.426606592194398
As 3.6836504465406463 10.116430106823026 10.436911211167804
As 2.8892196418095297 11.477898078497585 8.504704681514973
