22
Energy = -99.37608048 eV
As 11.355428015671656 6.104341433569643 6.479052416890093
As 10.513214698589039 5.434633196208872 8.724299171138547
As 11.29476269309386 7.384550464382222 10.05665289588451
As 9.763674598787729 5.1001110534965575 4.839291004727335
As 9.266039524669717 8.131079680487865 11.301585605478067
As 10.452355099712472 8.39405214155356 6.0197921442860105
As 9.681973659762438 7.332569905642913 3.875291916025033
As 7.25520541552651 5.7949429429205574 5.513536045516529
As 7.613252202618206 6.3647835565042135 10.670731093460617
As 8.195265321825133 6.050945874566065 8.31582181468221
As 9.960564534287787 9.32047179623146 9.247720741454382
As 8.459145074946349 8.387585955460489 7.530011447531611
As 6.030284190615174 5.745253851369379 3.3055689448526384
As 4.918276739729672 5.603367577982345 6.7164829042290615
As 5.369611008580349 7.527970781682226 10.58824357280552
As 6.982978527954917 7.85490636621713 4.1563082614108104
As 4.479507769510825 7.021233521865898 4.790977651843103
As 4.08755659690788 7.21826969259988 8.447356384553508
As 5.960711345351865 9.908844351491824 10.475632642653709
As 6.244182296581087 10.624877094124649 8.126519083741638
As 4.257438606064643 9.40344374372265 7.337745318097776
As 4.0419766922157185 10.936370736788808 9.281541345687247
