27
Energy = -118.42003077 eV
As 13.572357121099964 5.7303411363283185 6.491545531658023
As 11.930648997135034 7.321424036427727 7.650110002517473
As 8.944949131042076 4.406919100996481 6.197251080484274
As 7.724602245076415 2.651151329996948 9.784338159823896
As 13.340419916983915 7.999292633116829 5.657272842011292
As 12.285842484887343 6.12815680437879 4.390440845931767
As 10.304391701193541 6.463151128467893 5.864081427534871
As 7.856063135356491 4.25199138831767 11.601380091546714
As 9.162805107744854 4.468849935384011 8.796455512594788
As 6.956615871053462 5.882554877223441 6.084021931033601
As 5.85761499276518 4.228918020325327 10.29469808820722
As 7.092030139274143 5.849535392121271 8.713907489553677
As 8.32802576895896 7.4999814650764085 4.7313437032372985
As 10.469539598475723 10.299135500946935 4.508790436265163
As 7.492128024759707 7.877717422955061 10.129744316212276
As 3.0329989022738553 8.094571797125452 10.148528543347567
As 9.666925383588465 8.610051247673054 9.284809130958143
As 8.243594279702878 9.883778388324934 5.47712493612128
As 4.149794246520839 7.201329990416802 8.113473465373655
As 1.6758172369930857 7.579132811083956 8.141998136041764
As 8.66617234069373 10.950813534428512 3.2437075868505034
As 6.527067045039 9.830255549720512 8.703274279232563
As 8.81443162110951 10.544274769097433 8.159144702357045
As 1.9210386252122424 9.907853518307684 8.899895911304405
As 5.059161636373661 9.081593606959315 6.819668075498069
As 5.242122005228837 11.74870709659323 9.286918469599504
As 3.6689921618605337 11.03382592118663 7.539312772508029
