22
Energy = -98.81981057 eV
As 9.450901357154585 7.66000060396836 12.792107327524022
As 7.921275871421679 9.424427646901048 9.542205897865514
As 7.881611140325328 9.420542264651132 12.020379076331672
As 8.597043987105222 5.937582415056323 11.2138745080955
As 8.882937652982164 7.207207634592086 9.115183170262027
As 7.03613382509639 7.182663770469873 12.696890163188769
As 5.413592066603468 9.330748405538701 9.568147670410832
As 8.233725588527673 9.76019239724253 4.6696352448094265
As 6.606472351450982 10.48642148381959 2.912966058212546
As 4.685541100775317 9.299584444419382 7.19216590604686
As 7.105253757112349 6.127357318371917 7.711018824339952
As 6.760278149235855 8.380840711583831 6.106326306430968
As 8.896351730934393 3.380511116736477 8.684117921464425
As 6.545548545345192 3.7651946480242526 8.528023438773422
As 4.662239067258126 7.255888272845536 8.535561281380115
As 9.019826062281338 7.865227713116092 3.2467332585953828
As 7.470940022140455 8.64312455904735 1.4236932192418434
As 8.7795945108422 5.220290492420075 5.93224858011885
As 7.838550191101327 2.9543073003338414 6.538195375206511
As 5.560462642129865 6.976564698406333 4.479526111191926
As 7.63243016162302 5.884849703681226 3.77749114236518
As 5.253068252299269 8.47157064724048 2.5148720456377083
