21
Energy = -94.49782578 eV
As 8.944965661258733 7.570760008374216 2.262691336450284
As 10.495649481988345 6.739720992397116 4.025145322719944
As 11.664550684733863 10.288731061824796 2.8994655512379093
As 9.270932593122968 10.00156443954685 2.321475818852525
As 7.429073492940032 5.040629517380533 4.222121337629261
As 11.535649423552542 8.794775826455508 4.872957859839614
As 7.039425136139958 7.477598464563454 3.926708933899743
As 8.594070675517894 6.688833098325412 5.691444800074282
As 9.930290545806729 10.664054230552072 4.61565402358033
As 5.413606542029105 4.250847160457864 5.44035411387084
As 3.9059168492860805 6.132161027842222 5.128589330297153
As 5.704011399215646 4.38923676601079 8.096624074123069
As 5.022340228662211 7.970961621763577 6.42882126776355
As 6.044472840095867 4.073679454080066 10.76479466908091
As 5.705449575071196 6.8496437821888305 8.51025568570188
As 3.3280267090151137 3.728653609732449 8.074931706960172
As 4.10318177393187 2.950030534267287 11.794957584243054
As 2.3060704843334263 5.721235174547008 7.026592450108107
As 3.3685979506187085 7.567423098038836 8.345000647997473
As 4.205365549261721 5.416158320111626 11.70465372842921
As 2.496213897624322 4.191163305745814 10.354621251347652
