23
Energy = -102.60052354 eV
As 8.980167069762363 10.185638496262245 9.344711505026835
As 11.586441173877105 9.959313467430631 6.390213886023445
As 12.657404439163724 8.703249542223077 8.210493546741551
As 9.318818944884415 9.282803120827804 7.0019593856659315
As 8.290758326229703 10.205156717762772 4.970877935502126
As 9.217364083740092 7.8262976218734535 10.103440515571219
As 11.817945684817323 6.408039158872062 7.830371964197409
As 11.49275427259549 6.223765322613673 5.408106921530394
As 11.168452114336546 9.365823407809634 10.152788008888466
As 11.113206457009476 8.376051330207368 4.565425362954207
As 6.002160499768477 10.62489600871254 5.082239545404015
As 9.396593391675397 6.851367422900337 7.75357327208077
As 6.283122736848306 7.732382070709459 7.3657410601405955
As 6.519515108101462 4.781231603943224 9.392504251739377
As 5.212562492915284 6.873905404384726 9.407035865814855
As 4.713931413719337 9.596377231641616 6.930222090235724
As 5.368044600928186 6.3294404704252845 5.486733780913982
As 4.932596421384716 3.1396960356146186 10.35152584865862
As 5.37867157251027 3.146113759617356 7.916494309578652
As 3.679002910943478 8.185199621483468 5.117686831733525
As 2.96221867450238 6.199109809257176 8.66600693511882
As 3.0401099353875263 6.03961436577541 6.198076540554494
As 3.119067140617315 3.7266019146953266 8.767043318222157
