21
Energy = -95.88462109 eV
As 10.703960382217696 8.15282297490233 9.35905730108292
As 10.251367051557567 6.394547518883743 7.667941540024646
As 11.641676086842434 6.812989804340607 11.220752656961022
As 8.273511596485504 7.3988434944372035 6.560625313844091
As 9.356605623696671 7.741979330728442 11.394152662489796
As 5.884307349812254 6.464697343835495 3.788345689293438
As 5.09645563314239 8.363011705178334 5.167410769584431
As 7.834360462907485 5.334894088692705 5.27597137229008
As 9.289939565931405 4.541223630403293 9.010616682025882
As 9.690541100445307 5.283950088884516 11.326774883644013
As 6.849826284161 4.928864785477039 9.047496668086874
As 6.709888010666843 7.324843520238804 8.458350706749842
As 2.7620227642977833 8.423798583587141 4.431411641243127
As 3.1869111183544088 8.874629272531712 1.98686426935725
As 6.520468388292225 3.900565325951291 6.828945801240138
As 4.173367795779445 4.749983028085618 4.2330977384052435
As 2.13714058026978 6.054594100004509 3.9008895091021807
As 4.488206483140743 7.253158224613568 7.299976820356364
As 4.2258900050147234 4.805761560309181 6.695440569873586
As 4.890912946470234 7.2097791044223545 1.4104539157683929
As 2.542274061277664 6.494695805256008 1.4450567793400786
