28
Energy = -124.5714159 eV
As 12.856579256821549 8.945638141850395 7.874414712507479
As 11.419033563542882 10.5395753557383 9.201034074801369
As 6.857799538867816 5.807485502653054 3.168189641764921
As 11.244407807599387 7.561926515009059 6.639266812261608
As 9.508985039781308 10.821251782946986 7.677940628884646
As 8.421141482359072 9.037588623152473 4.702223981974084
As 6.121206083495038 7.465032806267186 1.4389840132167258
As 11.795040674275679 6.927391724514433 8.968844034065118
As 8.973369059427172 6.847599489227327 3.7517790901486183
As 10.815490028022861 8.594931013369363 10.596494904961471
As 5.968167556065687 9.165206931773662 4.99208686292607
As 5.587682692538219 9.605514161307513 2.6127876978888445
As 8.976740416364763 8.469684106853132 7.1047745224614935
As 7.908842132768368 10.935431274189716 9.561341362683612
As 8.36717413877939 8.951490006808971 10.887847655884467
As 3.7470928505427272 8.064536364720595 1.9730101628995007
As 9.682950062822298 5.339125056430388 11.67914751670958
As 7.000797549193619 7.318873340484573 9.470731811656314
As 8.861726150397228 6.944747004207622 13.363576562754455
As 5.397911247071191 6.732019760637941 4.9392036918817945
As 7.9668132714562665 5.050830683859511 9.90120454560475
As 1.9193210863219345 7.533601151837244 5.609024969974968
As 3.255277941003291 6.4791836381672185 3.840700961873952
As 6.573441560473919 6.026793820955226 13.36326147999915
As 5.883807434997951 5.627807315135492 11.017212569375406
As 8.5131201574102 4.506194382380473 13.721398390548607
As 5.130786429339073 5.822439304559193 7.19317681089729
As 2.9877511443277602 6.777591637508066 7.534461011922011
