21
Energy = -94.71354623 eV
As 7.690170308866813 4.001944143075746 2.8754050558571196
As 9.64509566112388 5.280443757204302 3.71090753128338
As 7.277755168454919 6.903917939256318 6.192539380397249
As 8.552434324861752 10.545539890228566 5.040169290102074
As 9.819877102408787 2.8317909120024822 3.3938426706626363
As 7.396737879912838 8.602686061212534 4.1698432260413005
As 6.195803682523603 3.5442187571582395 4.783856450369388
As 9.992686850560172 3.8010832813422506 5.665961799551481
As 5.297871148275917 5.835818807718832 5.1086463291939035
As 6.080137759467397 10.581466896240153 4.629734812623083
As 3.8368232660014443 4.880885023945182 6.852544811944199
As 6.732574555817284 8.522469083115805 8.003307835187885
As 7.817317540899649 3.162262884424741 6.648841375517629
As 2.55538433408687 6.845951297519276 7.613587010112416
As 8.150049570582114 10.480756496712765 7.582804831241142
As 5.693720447350823 10.560466498678544 7.162853850134736
As 5.322334110283797 4.361577400734416 8.778454942738353
As 7.573542647993973 5.1106218947630655 8.117542237518263
As 2.176668001860534 6.265090147075172 9.995662616520955
As 3.7791564677962 8.065467166571713 9.384140016478106
As 4.601501730773459 6.003184220922422 10.476996486426776
