23
Energy = -102.74512541 eV
As 12.861445879936733 9.179851385208446 8.797929431072303
As 12.338031684865427 7.6269663867183475 6.941664748880482
As 10.279141169633641 8.516891270422484 5.911543057506404
As 10.575888064919837 9.06136436821927 9.763860699614686
As 11.833968298433494 6.98158319860107 9.285183612453672
As 9.204607374874383 6.261770109398167 5.768876652864754
As 8.366203648617908 5.8208222716675415 9.122914719226214
As 6.896055201306287 5.194910890461371 11.041326219918712
As 9.097615403597565 9.515532986763558 7.854344900539236
As 7.037287006659118 7.169706124264282 4.822258306979395
As 6.266228168260652 4.623678707448182 8.760416993938094
As 6.846425638797956 4.807859911584301 4.09598339562373
As 7.226206619221468 7.886923949116586 8.289157526775366
As 8.736471037173136 6.189579371921531 3.318733819636548
As 6.7117345939282345 8.936461240499042 10.501487541212281
As 5.351283920562958 7.14497659652444 11.445504598038324
As 3.801289913281771 8.61813905814521 7.997962706314314
As 5.707164421757884 7.867269151682848 2.134114729832361
As 4.836633744671249 10.27135190623661 9.547236352489701
As 3.5575804854849387 6.87882689801205 9.744594065243593
As 5.470391089178722 5.384748589492099 2.00930151273715
As 3.8259357467690895 6.887778360494518 3.005695630840215
As 2.665393916857287 9.173772924355635 10.115766854571659
