29
Energy = -130.40046477 eV
As 5.762380892581605 13.94569576172758 6.371246625048287
As 5.927315367135569 12.532635363732915 4.342584121501773
As 7.873150710192655 12.766889303713503 5.851208173745147
As 6.5900706075454805 12.15906397628311 7.878201169685583
As 4.8110710969695205 10.396601978794196 4.929619896171557
As 5.2058526389893975 10.172693014075486 7.334267139011406
As 6.817518081517134 9.190236570345638 5.729440541931463
As 5.798822354031421 6.918647651768648 5.391579702717811
As 3.9467743187855144 6.975796406757751 7.001538756859957
As 7.551256086285472 5.903909972980478 7.080401213615231
As 3.90370615743295 4.495953561598746 7.4289135970051055
As 8.824508975614107 6.884137969374656 9.022987127626822
As 9.595566855994912 3.0218349327005085 8.413991696617588
As 6.896548179563422 2.9340811107278344 4.263680727443067
As 11.034745536170213 4.458488866008598 6.992561726543082
As 9.51147471335905 5.811293577664084 5.559615049558548
As 2.281954955205645 5.9794087425772116 5.138174712334569
As 5.902934860144138 4.651656950173082 2.76267063055188
As 5.048382165967416 6.882240598448149 9.652813607512316
As 10.539120956380602 5.148714853128092 9.333073104540189
As 1.5188255137870112 4.237732653188704 6.722283001462625
As 7.282960255354858 3.520779955475165 7.698715839028433
As 6.988443002990645 2.6845072099371055 1.7495461655658016
As 8.267990345481158 4.816086095240637 1.9737432391387317
As 3.104194645163984 3.7285928082581474 4.921243301238525
As 7.205367215036851 6.094592772437917 10.673286580910052
As 9.240609857318248 3.819985984251139 4.064128145803253
As 4.316544185399031 4.590890816861547 10.033677773671979
As 6.677016720323913 3.7019577924902687 10.109913883881836
