21
Energy = -94.5752098 eV
As 4.015477504766482 9.883838606628771 3.3050168649790423
As 6.45088839914944 10.232768671132922 2.8563447558999226
As 6.684402728331689 11.493538283967023 5.061787157336776
As 5.5985098880085875 8.025655954501236 3.4366891675461972
As 5.914056499021207 9.949476655717017 6.784930906918888
As 3.576023388075554 7.162414653621357 6.559562446168722
As 6.024213451483321 7.653117046312715 5.880392839269243
As 3.2758691810897265 7.797095854758799 8.918402152186099
As 4.233552710737423 11.164605191121153 5.502780830398799
As 3.4532816797615546 5.401034643073604 8.296621023267251
As 8.423654676279176 7.494814964533499 7.072819426738951
As 5.140634697398756 6.401091977859189 9.826979758515234
As 7.178905108779835 4.386510419095756 5.210473977767311
As 6.256940077969155 3.461461501733937 7.328503764037582
As 9.25636000051305 5.526674707385984 5.842636499102002
As 7.614422465211666 6.609491447510336 9.244554934036813
As 8.381741876119802 2.2290305520702467 4.780549272733326
As 7.837099145509232 4.142914114996388 9.08214293720004
As 7.447104125883554 1.2920949670237147 6.932039617985671
As 9.940906209471448 4.239233853646479 7.821724064051746
As 9.82379611422848 1.9809758610986896 6.782887531649362
