29
Energy = -129.87856137 eV
As 9.002752435616086 8.249891108398968 12.465304910147418
As 10.331832488684059 7.867132503261625 10.338413359554208
As 8.092207058761797 9.144318328025387 10.44347923081864
As 8.044098011363756 5.90067620532225 12.60006201559702
As 5.770757440135792 9.817759236692599 4.415877683740507
As 6.3973151501930525 7.438236571627931 9.683084019661031
As 9.58574389217549 5.4538831165706965 10.649776612017863
As 5.916744751465089 6.12461838841827 11.603466696111216
As 7.254870489020333 8.429821867764245 5.878213582284249
As 3.4158867769975427 9.372061512188889 5.166612726829361
As 8.539281672142469 6.5162279954875935 8.780080704579651
As 2.482778740280038 9.842501948927683 2.923217808447479
As 6.171773391968487 8.36574723236564 2.4366753597717024
As 8.304646141059202 7.78126415696596 3.6471989470146795
As 0.16498881759117412 10.373469094531272 3.6341284408260117
As 9.577264371182359 4.86792089955027 5.292463464006541
As 10.969043904665904 3.836133972581953 7.048397399773014
As 12.616183299341802 9.020725295898291 5.64255777680488
As 2.7933638725901866 7.525374226345933 3.639792453089507
As 5.830216380898354 6.377989384228127 5.732821230151458
As 7.49054554284654 4.782225702574085 6.680925851610811
As 9.996221268307819 1.634911073363126 7.641700623622215
As 11.855964834949004 1.745155237281786 6.014900774786511
As 6.503395253388211 6.08042620461271 3.341879743685531
As 0.6156974222003379 6.943955870127513 4.677855174009219
As 11.855964834949004 8.24386075313128 3.4235969608878056
As 8.64679003625836 2.894270287238402 4.076666875593921
As 6.5475635602251945 2.9162680294129752 5.357225790713709
As 9.627961785825514 0.9717421114861393 5.28219209824451
