26
Energy = -116.48927955 eV
As 12.235103346195618 4.511284568491609 6.399406094639568
As 11.374449833747175 6.661210325667441 5.4173895192159875
As 9.251791591210091 8.631103038591394 11.072780869130952
As 10.616072570959068 10.153467085759702 9.666460986409627
As 9.660167786248063 5.260069359194045 4.211116987472696
As 9.499021908625537 11.059634452471945 11.667674596354399
As 10.167577074268031 3.243074620527942 5.5995643335109335
As 10.48320302630446 3.8718431745216293 7.965163326502426
As 10.22979962573956 7.686697394425971 7.299845772194389
As 7.1784418398505485 9.244202987579618 9.785989749275672
As 8.560614741253778 11.521361385669799 9.43143551759014
As 7.645625047850063 6.271905480582248 5.219904273434578
As 9.173917200897115 5.892663671854778 8.574181257241804
As 7.140419688126574 5.100799396907553 7.291162738285418
As 8.143651480144326 8.706297020357848 5.7864009295759224
As 5.847566580826324 5.930527689116349 3.5896330997254324
As 5.507897893483984 10.689322572017982 10.96934936445242
As 6.335254452834552 9.016723243413642 7.386212219755108
As 6.056550934530089 6.843372234895893 10.297804099891259
As 5.372251578242022 6.723614425217632 7.910027852940698
As 5.940780259926762 8.076436363407275 2.300776455843259
As 5.983358033628132 9.482846605192153 4.340279944134826
As 4.218951995143408 7.773351075164684 4.02645191139538
As 4.205923886307767 9.362700190874197 12.612089036541168
As 3.2748441579781784 9.826519813652359 10.38616311899581
As 3.8320321878078984 7.452273515780444 11.049069947382716
