25
Energy = -110.66907917 eV
As 7.117466436412794 9.045141142467708 1.527944064310843
As 6.896271858273375 6.4375561111546595 2.262228896771026
As 4.460898708971896 6.777025323561142 2.609554101821872
As 4.843121668458881 9.351798949246152 1.727662094118139
As 6.69646566896044 3.829085441155322 3.0306284342731376
As 4.353154069697564 4.177826324522384 3.4739153178497846
As 8.361655778876223 7.015655405114325 4.198996073682697
As 7.579117723958733 9.603046917796803 4.114343423021954
As 8.495217031092759 4.302435788682716 4.759994941005486
As 3.848580428247112 8.024442516569037 4.667304348328745
As 4.939155518078781 4.4915615189800215 5.829776147155802
As 5.146636295800056 10.100075826224556 4.31630164790203
As 7.770644913772776 9.699277374768096 6.7243317406287035
As 4.2892939975826705 0.8042367771309308 7.3367618482509895
As 6.034219700361472 2.330110687370828 6.326255175311993
As 2.4694783725307508 2.2816996860461822 8.213351180538776
As 5.4161867934087295 9.921832441358447 7.027001059985329
As 8.419634188780154 4.852577556520611 7.127104636833971
As 3.160894948106586 4.589873241062013 7.539872514120728
As 7.411000534367162 7.144520227494755 6.466414811197715
As 4.948382330402628 7.400035511372062 6.81249035325507
As 6.886125647386788 3.264283395504106 8.4198129150262
As 5.3568758541528645 0.8709752713345545 9.561664384124043
As 4.952778041789111 4.689337120958067 9.256031005655789
As 3.8010502747039907 2.649896227779136 10.324565669003793
