27
Energy = -120.84731139 eV
As 8.21482049912933 11.453020794528141 8.181005807901665
As 5.767948500877482 3.1830254450055957 11.411575605201111
As 8.456419189905015 9.029189622176231 7.785981109047322
As 9.183943964579099 4.116031244163958 8.390072465340921
As 6.345913432486036 5.643057172316908 11.74260347907092
As 10.298696408145998 5.7906556228239685 6.922196719557727
As 8.815646062128728 10.635524308912853 5.890466407585971
As 10.116052973153685 3.516871832110981 6.190711321970622
As 6.184833992213494 10.031770585343157 7.7560540164513085
As 6.55381944254946 6.545400849908732 9.489369851319438
As 5.64027111162681 2.787935010086027 9.000243909316394
As 3.7263144903504712 3.821181140503055 10.120963981654022
As 6.793146258035662 4.632710103866764 7.815736649440281
As 4.31951403833602 6.297362451844386 10.417214987155857
As 8.20576105524678 6.479329967564228 5.452687880344128
As 6.375406897338089 10.79993078986553 5.364871010661163
As 5.248577675838152 7.04561674493138 5.9596553000691115
As 8.330294036735504 4.3367742152908715 4.20645018776512
As 5.991218741250291 8.624365044329044 4.158808878634595
As 6.470439376655097 3.2680676856647555 5.392503855336637
As 8.187128418128358 7.800216234403125 3.309429391411495
As 2.877351245415732 7.7918787031448264 4.975092049281317
As 4.596689320219433 4.821154417670754 4.996402122056327
As 7.236969564338054 5.819484600424065 2.193711863150647
As 3.7498878045322317 9.157478847689207 3.1215047153810387
As 4.886615993681254 5.216065707232733 2.597415711063886
As 2.956143293224136 6.885724644319923 2.687094509951687
