28
Energy = -125.7284478 eV
As 9.690726726267183 6.196063374641373 7.741262434923884
As 10.205089602172672 6.65076035671607 5.337102061426675
As 9.888633031107066 8.541799619129556 6.920789355178731
As 8.641859561971332 5.278603675432443 1.920190893938868
As 7.220216861833139 2.866091194285639 8.259940578021071
As 6.860399198952838 1.7465810332732723 6.049225106690008
As 8.435991419421372 2.9601438734226595 2.843428606239279
As 7.307625637990619 5.363164370857392 7.789558811774845
As 8.492056667357774 3.4295967699297507 5.30979723419577
As 8.24306005150793 6.860261925571289 3.6803226600729966
As 6.988155727973594 11.864087795440982 7.271068990348773
As 6.587717966190964 5.337382492107899 10.186427997232043
As 8.308678613266332 10.290169989808568 5.804391767222349
As 6.703242174601193 8.606839897640546 8.773716878025926
As 5.544705721737121 10.725671598870637 9.02033910348949
As 5.1252545483968825 7.351294473427307 10.196245504358854
As 6.228428770727503 9.418630694300221 4.789066735498245
As 5.087933202154436 3.475678810132541 9.445242859223201
As 5.896978423134363 7.741327808239835 6.5648194741384875
As 5.010664532107177 11.455662584439558 5.710513963127207
As 6.701857946155584 5.115088579969094 4.666463755113255
As 4.810766895586629 2.453817962653994 4.727702936684427
As 6.046813783577926 3.664145885666831 2.74618209346062
As 3.5483675930382095 10.492891156784811 7.523238177908382
As 3.137724901044495 6.787884258838689 8.760377067670305
As 3.5088900928144335 4.4935037311588895 7.804343526615083
As 4.299808650723629 4.713248111689748 5.457140287264343
As 3.4936937255670544 8.134950002949342 6.716443167536166
