25
Energy = -113.93958472 eV
As 10.34483809860811 7.70769784377496 1.3101497104023332
As 8.33954986597759 8.93029207472705 2.103788757131251
As 10.1955900933479 5.427545325756692 2.3096803325213666
As 7.02405119701803 6.92836422555775 2.5917343974918445
As 11.67432669572155 7.2038934649533015 3.328854255013997
As 5.499218119595073 8.334561554230302 3.9322815634628343
As 8.503483872475519 5.720598029820115 4.133265394456202
As 9.11684416979341 9.562233134837188 4.368245340370929
As 6.888465217294808 9.594402390297809 5.571916588047188
As 9.997059237360746 7.431177208850119 5.175249123662702
As 4.358375372683023 6.713089307573407 5.377394676468472
As 3.5306557390116833 8.503331631984084 6.834331886419889
As 7.503177691361051 8.022032257508428 7.431904090088116
As 5.934140754744396 6.109850048634439 7.270645716085161
As 3.8745602583334837 6.8006794433799485 8.561116832248628
As 6.555472490320168 9.548727030052916 9.179937316239684
As 8.99914591985682 6.856700237310149 10.385333258275153
As 4.56555428555395 8.452319808189822 10.239704541319837
As 7.0363325391763345 5.450911255993097 11.020910381457023
As 8.322960521941589 9.144045815531708 10.92065247053378
As 5.404361611174628 6.974837104598651 12.035881249626703
As 10.061219637420162 6.484049230867514 12.621779971389401
As 6.843886998716488 8.772686325072234 12.864321897084348
As 8.095194025186837 5.024276249642201 13.248840938256238
As 8.344252140736511 7.314415554265276 14.194795865356094
