23
Energy = -102.12613721 eV
As 6.343067345776758 11.042105875611675 6.010286184075591
As 7.225056372623508 9.318730230450946 7.577406691698689
As 9.308190058049966 10.544035410292306 8.14648184646648
As 7.797589216191335 10.873297438249097 4.007082244223684
As 5.56111864691899 9.774600154133958 4.024758846784068
As 8.530890474322398 8.194763278584748 10.634878373230697
As 3.1269343296648673 7.333456947251776 8.873858734321274
As 3.2513952490641906 8.584678174049857 6.90236566934397
As 11.308393705867305 9.041188361923727 8.027213356088662
As 9.813332509186404 6.168267006830678 11.095279798622572
As 10.679388297442344 10.503143033198032 6.081018322216094
As 9.413452412365471 9.05188248785663 4.498215925813232
As 6.195657363686986 7.413625993707481 4.325782937354279
As 8.102814157940829 7.612050275090116 6.027406882034284
As 4.321633899228452 6.678158888548803 5.821078721748104
As 7.618543655058659 6.137305498705837 9.974506665680591
As 4.929656847217717 3.8722802433217955 8.9287498251012
As 5.191926835945652 6.291729010632435 8.14943932746492
As 10.686958435004035 5.234929759886072 8.825484749952537
As 6.2487985281872716 4.271995673779667 10.98094533696156
As 10.689315020972037 6.907808118619839 7.018386233994817
As 8.423538253216941 4.78902914706379 7.91093217421938
As 7.21710437357129 2.9165652199400425 9.148646099503518
