23
Energy = -102.19917807 eV
As 11.94986540457429 5.95483057408231 7.697335611624257
As 11.115920872446242 4.841624004592473 5.655966081559559
As 9.727361036359849 6.211272808781481 4.121667087409768
As 9.747823030440548 6.776828206134056 8.33088063810075
As 9.846166294321497 3.534961255165263 7.335376769089352
As 9.572517195265778 8.296078962938381 10.267971149252297
As 9.471511165773572 8.737241686475963 6.832578823274796
As 7.725754120099377 4.727192282354017 7.835871757335132
As 8.01687680338777 7.846351373793663 5.044656577990277
As 7.484278497734072 5.014670842014884 3.8749597098630857
As 8.057950645624945 9.377145867918838 8.760631182684069
As 7.991006530037829 11.860564892246707 9.04830621041946
As 8.638700031201891 1.660549963003115 6.1636671997551105
As 6.6164230180774855 5.942580783597009 5.9661160281366445
As 7.139895048942813 2.619663135534874 4.452998778047408
As 6.466183461155464 2.6517666730287144 6.833429513340722
As 5.6435248605203565 8.65321652757351 8.61542421478782
As 5.869559669347796 12.459959751226911 7.919516498088621
As 5.896728528530805 12.125413030632709 10.343949459460552
As 4.960713879220546 10.311993238948784 6.9639796105361125
As 5.038684809103683 9.786058727111884 10.694461406500679
As 2.6842313967398406 10.76984300386449 7.826691646378261
As 2.7332983414021474 10.445731875158929 10.083326068745045
