29
Energy = -129.74519815 eV
As 9.007405066085663 13.795821421453306 4.542305830497127
As 7.872165624828475 12.369325181653913 6.221480613492518
As 6.596629778303765 13.283469965197062 4.311340353602099
As 9.17456759545574 2.026105572720278 5.56094016947954
As 6.0559273125884685 14.006370177403731 6.61623644004432
As 7.046245010840635 2.9039444329653334 4.672758052503988
As 7.216676556797788 2.1398011477934302 7.021622388270784
As 11.253058941842289 10.54640043606734 4.419335638774543
As 7.342621214497348 5.588167647498548 7.312702989243852
As 7.4494935493822485 5.472836204536595 4.8200729115338135
As 9.924558528809275 9.96535110770359 6.462071091750991
As 10.513289441555834 12.369325181653913 5.956135235191688
As 7.943525882450186 8.193304368642567 3.86511460466291
As 7.83115965197798 8.03082567091386 7.700398108565384
As 5.738133175551009 7.987729448403369 2.7300565095163174
As 5.317110534642033 5.636170327552131 3.5477603251128143
As 10.059780440246127 8.41996739163037 8.387187856094316
As 7.612333008248522 10.013264925643178 5.490537071503916
As 4.983888652872972 6.134287353579121 7.923505304699962
As 9.112922881333805 11.699953313218913 4.05884620183189
As 3.8706021126535215 7.503991560191917 4.3133971254229175
As 4.997739094637802 8.123139325121908 6.403368967482388
As 6.116565610709764 7.633308258291032 9.570098494187178
As 3.279938523081731 9.533845078574732 7.505883555242872
As 4.6112614410232995 9.631947626186935 9.593513456333048
As 2.130097325258837 6.558751757851131 9.960558999004057
As 1.4769802594861448 7.943625728854761 8.017453766483271
As 3.1364122642617427 8.465729552394514 11.194329759031174
As 0.8201380988178151 8.631732138279352 10.312215758680585
