20
Energy = -88.95054576 eV
As 5.685484009067465 6.634076941839863 2.677631581710572
As 7.725652834819058 5.462188243148746 1.8000754873864253
As 4.373908362175218 5.022181790985351 1.2487537597234342
As 6.366565533542801 3.3826855589553397 1.4933155799424587
As 9.078448160417109 5.135537784770267 3.855623555377208
As 5.053498835596351 5.002586708963224 4.492590745106783
As 2.0949686293168432 6.576724214263566 3.589024688152466
As 8.277972115740704 2.957417226464111 4.756375399485898
As 5.971294707927676 2.776862460660022 3.8415380236448398
As 2.8757386762006707 4.328398421359671 3.1626761098695724
As 1.8146915861211406 6.632529820359795 6.067777252003712
As 3.7524844465385314 7.874796996508386 5.232572339138551
As 1.776293924744536 4.596581562347124 7.619241453848528
As 7.233348670311648 5.923946425145052 5.485067369811137
As 3.084538526534654 5.582844841944286 9.441426991250756
As 5.814080973375092 7.7058593196512275 6.702756718211802
As 5.194712597964103 3.960809478566173 7.061105539522048
As 7.740462375233715 4.04970723775801 7.027559328467788
As 5.431587736802529 5.997562739290991 8.436390957794808
As 3.4882493193228585 3.230684248771493 8.842479141304054
