24
Energy = -107.67373909 eV
As 12.00624590731676 7.949011975381558 6.065266837966045
As 11.555412085649532 6.69767925509933 3.98617135198601
As 11.997618605586135 5.482626374356151 6.0786367575795595
As 5.367463424367077 8.469866214074775 11.380940562030972
As 6.148388447862432 9.218671983108688 9.127462029487566
As 9.469530223554903 7.987687318893008 6.621828046059492
As 7.5898420179452 7.828481766081656 10.585252608933216
As 9.458916171949738 5.502854005872086 6.664147443589889
As 9.014596251390318 6.710182933432167 4.536454643064088
As 5.875348525881692 8.89797086812707 5.464503689952529
As 4.893788383628864 7.234692355945586 8.157355454424671
As 5.672424518676398 6.222483640548635 10.304653569712944
As 6.539028534999452 6.667560250012707 6.331861280398805
As 3.473866239618077 8.64440870468541 4.949341947022859
As 6.564825081415644 8.917549279488648 3.098419039483785
As 4.183176841025818 9.664384617961996 2.7102538379065506
As 6.009046295090282 3.0481990667827903 8.758259992024394
As 3.852327175465502 4.304263791731755 8.6035934845121
As 5.010653145081155 1.8643549635298096 6.79237619990795
As 4.973514383656887 7.421302457139401 1.9427957897833512
As 5.25573678281206 5.079487026057873 4.848857963891803
As 3.5535037586429747 6.478816260617523 3.7351404347140074
As 3.5585273142187708 3.8073592335379707 6.148468422454764
As 3.903469964622074 1.8273557379913195 9.035208693569919
