25
Energy = -114.35051321 eV
As 5.02701867148997 4.8379874187548895 1.4301323105334947
As 6.98026114536061 3.339054808753099 1.7409552672498003
As 4.875999364531389 2.884365702665166 2.902461320488985
As 5.149307502533935 6.456147740790403 3.3476933749462994
As 7.59559080707179 6.701965852025308 3.1954118849515303
As 8.37034780351633 4.397771382761696 3.5314247910399303
As 4.836483170622215 4.798612602188413 5.155233497416581
As 7.081585731486393 3.7662748706593066 5.531774194426844
As 8.2343052189377 7.519130782130981 5.500816639439542
As 5.989450106564717 8.496233614924225 5.9277507653323775
As 4.711774277310894 6.649703469257135 6.943902214299876
As 8.294060632138423 5.416841040480099 6.895989178862568
As 8.435032050549161 10.519836085562975 7.939183662682359
As 6.392464289980004 5.652099037573271 8.448104352736234
As 9.34594525877179 8.239607212509409 8.572421502770634
As 6.121715936823531 9.566707470351496 8.163598618712602
As 7.112933768047141 7.763570438334877 9.611312824515329
As 10.86353074217331 11.11069071898135 10.415872541750469
As 10.673315193283077 8.66270149719944 10.677417895129512
As 8.525926584553952 11.759071814280118 10.090545651740563
As 8.877147092901506 8.496805186890152 12.323978724201872
As 7.415289914509656 10.456889715890982 11.853924197733573
As 11.00280063477515 11.722540368838075 12.814712433948737
As 10.154043638203753 9.763497306397506 14.071593929102226
As 8.648130602877083 11.736354000812922 13.628248365002248
