28
Energy = -125.5413387 eV
As 7.762890147084959 1.924317084167508 6.648285847434385
As 10.098664104962616 2.066613224689026 7.322682101514253
As 6.36121311711942 2.2314528361314543 8.763339152632861
As 10.733942923653212 2.822514208155123 5.115005681753244
As 8.03203429584263 3.710893822081966 9.899614613030138
As 5.217967815246095 3.46761148333 6.940098745024641
As 9.358124118914354 4.571511268936062 7.939513683754431
As 7.437923220962959 4.502827541196387 6.271297313801166
As 8.797658701744524 4.10093312954549 4.143360083657171
As 3.839541970517452 5.369480141430387 7.712127964433673
As 6.826495399448545 5.599040947914459 10.946312373105238
As 4.716428345723111 6.434152811185532 9.833083263988428
As 10.503832833336546 5.455293664836068 5.18866965957624
As 3.6436212235860945 7.51289098314479 2.7273338266635316
As 6.890263760686655 7.6398939223006055 5.257145901974416
As 9.2384782119398 7.556168715746714 6.257798259279275
As 3.058932280891911 9.565359907767283 1.450586773783923
As 8.089571877463113 7.651801571809342 10.227857371602175
As 9.865843237017689 7.036399794093392 8.562321498371688
As 4.473434215701861 6.831203462836456 5.785686240675495
As 6.351765449398372 7.642823977846556 8.451262725705819
As 5.320010337179822 9.319384880842167 2.4519287088125576
As 1.8718753836531636 9.032628921611229 3.57249034370073
As 6.765410094067799 10.021413218500786 5.933918053420262
As 5.115867303201013 10.958515080615808 4.301045545101331
As 3.385790918544078 8.688211535160416 7.026482132299134
As 5.339458644504199 9.885441043753714 7.985911402035344
As 2.9275691102480796 10.425829863011359 5.3094497755085195
