28
Energy = -123.93021053 eV
As 2.6481075874316495 6.184557229500054 9.641945980120042
As 12.007369133548428 6.977832321541212 13.64718496496336
As 8.380533030426607 14.021781141536042 4.962243061067926
As 12.618620983146016 5.0778318425123254 8.156946987952573
As 10.204190600546614 7.999538477445851 8.631465819044466
As 2.8436819152089576 8.301529009629084 8.297539538854979
As 7.448099282810283 13.124109555832186 7.0384960680714865
As 4.90958750943075 8.71964769558015 5.224125396871928
As 4.422846604583823 8.892345568398335 10.152953525391968
As 12.078370738380565 5.899763843687596 11.453152430541177
As 3.047563956194989 5.332592953262566 6.034188359580279
As 9.463038117061856 12.041583753132812 6.033006914264058
As 8.084038473133822 10.518830869179212 4.567556007833868
As 2.5135204946327616 4.326653394279396 8.02974318462148
As 10.303975049453681 4.173517839815591 8.218750342892694
As 6.456916717486669 12.42176211531862 4.852225768591807
As 9.599305882985751 5.6154905441067475 11.513905812376743
As 11.185685531303896 5.216270883370786 6.1505684936550455
As 10.497025140623403 7.857311616418864 12.056226075469196
As 7.990867856299779 6.935987638775918 6.024479685520877
As 4.757411229119904 6.700408259502671 10.801261450647297
As 10.408080144756529 7.584581654273913 6.199922896963052
As 7.0499989063040545 9.18574803417335 6.39248633876233
As 12.460580219994842 7.302052051088895 9.226899769985602
As 5.518918061944392 7.21276916373475 3.3320134109630297
As 4.546395482456285 7.012900908872512 7.041940050404499
As 7.646999085501038 6.476162847485239 3.635444750627015
As 8.879735993903859 5.964320427187406 9.148517583680224
