26
Energy = -115.60071039 eV
As 2.402840700465559 4.684023696647986 5.276978025422493
As 11.501585188444045 7.786815545997028 5.124870854545004
As 10.26918150535503 5.8560562924855155 4.152923987759509
As 3.876222815744134 3.157180881753104 6.578312350380126
As 11.894652327644488 7.137481716997581 10.960344540545035
As 11.357043592485736 6.07224252327308 8.799095947039344
As 1.8385258015893091 4.151074841363027 7.618730421633957
As 10.105757786570386 8.109624347923164 3.136677003018663
As 6.599616753437185 5.345873447325428 5.024359003957053
As 8.742681836381884 5.7942142291882055 6.134407238375334
As 9.706043051243991 5.9994109304085885 10.649273141195767
As 5.858685331078135 4.472172556472729 7.24469212879973
As 2.4942612925385608 6.454656675949009 6.988933757115706
As 9.22484394970754 8.244747385436687 6.324292356578789
As 6.334611788280473 9.392241647319045 3.6335287199294646
As 8.56188617523335 9.71097023608327 4.384149767910882
As 11.62777771481514 8.54462190582055 8.919761723635805
As 5.281354590380496 7.579002581633207 4.818767102911587
As 9.232390460877868 9.347935578305577 8.643858909589584
As 8.393788032711683 8.102715597992711 10.598136309739681
As 6.162424871867645 8.126956581122803 7.045334926584336
As 4.752287343964912 6.465719988368516 8.223432470386149
As 6.086163075226605 7.328437826006164 10.554632224715556
As 4.879025223322033 10.111894458432653 7.893200693402755
As 6.695938989053027 11.01378603452183 9.275223749481782
As 5.025068315032879 9.582803267002486 10.346509889192252
