25
Energy = -114.40063255 eV
As 5.011534689079017 7.624763273364311 0.6577670461023147
As 5.3463034016782025 5.257927643990962 1.4618334833966429
As 7.244497018694307 6.864770540607051 1.4388156832773153
As 3.8483737570485292 8.166132197162646 2.7972848492387343
As 4.187571279554191 5.814001332528265 3.6018819498942944
As 5.748425827302742 9.41771142271116 3.6854881067013676
As 7.488227699989315 7.682505109667717 3.770171364542723
As 6.274392146288359 5.8541644449451065 4.879086813278199
As 4.902255162159234 9.384695353886423 6.008008159527872
As 5.308572835025471 7.017998103760811 6.8365491699214145
As 6.694203128385989 10.699166198791394 7.079316994067404
As 8.540294407238473 9.063223425889442 7.200125623576947
As 7.375825252842119 7.155770457481496 8.212897865228744
As 10.367849857079948 6.020402302926474 9.182439878327468
As 8.527380913424508 4.872392157879695 10.417308329284264
As 5.590560634947109 10.51341275346624 9.263828873256125
As 9.49359600137791 10.087229563727156 9.214414969286114
As 6.236139403768619 8.129548241879316 10.194776412675996
As 12.01676098476323 5.062768521318958 10.841048406867493
As 10.167613710611334 3.943123078262829 12.090560626316858
As 10.815001953972217 8.169037947079376 10.267737206132448
As 7.526744747928 10.147569857864601 10.742243447573529
As 7.698797612853854 6.482092800539318 12.017089318895136
As 9.674949703926687 7.867856141365546 12.424864817210095
As 11.210247137453011 5.997856396295587 13.010579872812558
