25
Energy = -113.76856537 eV
As 7.026852794865148 5.222865056776644 2.429817407565914
As 8.203385213491735 7.392676026850057 2.5394963666495873
As 5.757254222834083 7.269584999859178 2.9973250643517844
As 8.756012033912926 5.6243569687299955 4.190610259024646
As 5.3009280543251345 6.822229903730862 5.383632740344243
As 8.40349545651179 8.83503055255386 5.861915176501056
As 4.79604347190227 9.203477741437254 5.908901827516494
As 7.7089876981452345 6.46680803205225 6.296085730686497
As 11.537865290736585 7.08040133668671 6.293015895248251
As 10.104857543417785 5.3679443113325505 7.296979354936707
As 10.526152878682376 9.167703711788498 7.121782611757486
As 6.7859867140125605 10.168523320142187 7.151356479625603
As 3.2289503665761656 8.702062667738716 7.795207250280163
As 13.37351681318484 7.06270696113097 7.973985499150114
As 4.0456686409610745 6.5080031425419635 8.506708524354643
As 4.23038584819052 10.175069476840127 9.497913491059766
As 6.571145546794898 9.401984272095847 9.498322725036132
As 10.120909820176696 8.6238798024722 9.472126494684758
As 6.268409380405049 6.966747592665611 9.557020147766037
As 9.92420910316116 6.131808671637458 9.58497456949703
As 12.592569542952278 8.440500058508285 9.88261870040121
As 12.405472737144285 5.928694706878752 9.948124670158016
As 2.910136439483046 6.642456439285582 10.728067385448433
As 3.4902767596817927 8.922175713097502 11.501735389186521
As 5.1497887291620845 7.091569633878947 11.801537339481074
