26
Energy = -114.92590473 eV
As 11.227018323015926 9.028823432785982 10.00693167229618
As 10.766401426452216 6.943596114766369 11.285356954494222
As 8.93524186441146 8.536755187290323 10.982357052440257
As 10.205224556633386 8.531473988197115 7.802927661154691
As 9.762536412821687 10.530809512354317 6.544515975053557
As 9.960633665487192 4.772319103517427 10.229018628656778
As 11.66745047133361 7.040707100132424 6.357722042168746
As 9.704387994488185 5.947124306606495 5.388767174316354
As 8.194134060434928 4.796940489234332 11.929713530785872
As 8.11834941547172 7.50872421772834 8.8424818710752
As 11.204150051098402 4.6643889601870905 6.701893355453348
As 7.549181711366757 4.962572789399669 9.696540120284427
As 8.092482297993902 9.959694711457326 4.917168963419308
As 4.768755281291336 8.10153365490253 9.508765635877404
As 6.5841642891044625 9.449308630972586 8.484959087513388
As 4.335363789055451 6.282093273031792 7.884971774661697
As 7.155884312622534 5.474196669143768 5.3723643011501245
As 5.938758469222386 9.357084808386066 6.096638795368522
As 8.395193229949971 8.35549292974718 2.945407112315868
As 9.75986628586442 6.280600253062232 2.9369805050179774
As 5.280462722835484 7.006362429368315 5.718795002561236
As 2.9375079442665855 9.71824531816395 9.114842233735928
As 7.265867976503974 6.154744858950987 2.9793599871286216
As 0.9818744332300544 8.229258018083133 8.831663004134006
As 2.074564566704177 6.864556736917691 7.067206761628033
As 1.9914499797702183 9.33848393490157 6.861924528615387
