25
Energy = -113.88908183 eV
As 7.094918534594617 6.489215388325246 1.5126698943468613
As 6.462682300800409 8.832644589963415 1.7442777732869947
As 8.746841979584495 8.295299798015618 1.0457168257906189
As 7.323687938358408 5.984146082844565 3.9634952351492765
As 7.936511592131648 9.873779524614088 4.269058943464001
As 6.256922858529182 8.083233650695268 4.701502020337433
As 9.73246956933796 6.4133222974083175 3.90105512079499
As 9.870570110345193 8.764647451443764 3.238565607750865
As 10.231489458821732 6.402437971368622 6.368256424409991
As 6.338413031053471 7.574750040658068 7.232553495571324
As 10.765294320889842 8.71972742449307 7.133044894334741
As 9.049370161374965 10.41045716483072 6.474540549920209
As 6.998924770840036 9.92265643319864 7.727328655333038
As 8.033950950850913 5.778984672365871 7.368972765739557
As 9.470082433352184 5.9818185467273315 9.39100012394688
As 10.194937121810662 8.349483313213382 9.572140529298736
As 8.352296227730902 10.009443570214849 9.777374499970199
As 4.965513147054621 7.78823528236539 10.282041809722347
As 5.793116368164631 5.432567181726437 10.345404232183364
As 7.992018252401622 5.4960823938244285 11.375350843470928
As 6.620370254311797 9.19032810453906 11.412749145897152
As 7.8956214708741825 7.5552883142082585 12.70913791680903
As 3.9444819163644214 7.457625148637185 12.57766801743234
As 4.752216231518557 5.091408407605036 12.603217818639212
As 5.89123080232438 6.816349050133835 13.986808659820031
