26
Energy = -116.17256271 eV
As 5.089786943317755 10.18507319618455 6.828729113937239
As 3.5497149714665497 9.751896530140032 4.9025170786521395
As 3.3096505387227064 9.2862342391853 8.387370357006942
As 8.779846312947804 9.553936740129034 5.154871342416864
As 4.725360536732185 7.990495121949421 3.6340555872524174
As 8.046585079657778 7.759929557115164 3.628522994475755
As 6.825792879670633 8.385828453971744 6.820401715642862
As 3.8897818583866886 6.956444118015242 8.933745092555222
As 1.7130835584786135 9.04358903977119 6.480502611942209
As 6.321535303616249 7.2909803168736556 9.07573577661643
As 3.1641358510978193 6.119049961466141 3.1683000006411506
As 6.191662732614435 6.690734954709747 5.167368917055636
As 10.10696642541689 7.623058253307495 4.938149421910751
As 1.0416833095912434 6.670453036189528 6.743123755292305
As 11.447358049060668 3.743931516354958 4.924966319081743
As 8.880241494667853 5.962152573011437 6.801005411046228
As 1.1314250259159302 5.619646888837652 4.455720482596527
As 12.238133207803847 4.1372950014027845 7.235270641355526
As 6.996484241068461 5.041996878298904 8.342859047533409
As 2.971966185152371 5.27405358525966 7.360277065798854
As 10.94439437897844 6.060462514394583 8.143028921853729
As 9.049812121046866 3.830067531841961 5.54471606375125
As 3.3122869675797797 4.4590900035636665 4.985595503856338
As 10.592329737412943 2.334611703696916 6.776211357341466
As 8.24216331200059 4.412179907821556 10.378327738600577
As 10.46430606121336 4.843295460125615 10.215114765404024
