28
Energy = -125.26015035 eV
As 10.33555973827097 2.910431669209952 3.9767863302879216
As 10.67615407197105 4.101347464342484 6.126650418706166
As 8.753155485315526 2.9562561640135843 7.2166526054749935
As 7.986565630979158 3.728966403216517 3.72220945828618
As 9.855310599683968 5.329180603708368 4.133104185370597
As 6.820770569698666 3.755935677800332 5.921767569916453
As 8.268848473755737 4.10782023404901 9.376767979277721
As 7.2393592934085715 6.224196547524762 6.147213147059142
As 7.134503678117248 6.249550357026431 8.71706844606817
As 10.404149679200335 5.247295400082935 9.864146936913455
As 5.0088561857740475 7.274389917271676 5.892598911239335
As 10.292792844290116 9.106842393248943 6.514756349214902
As 9.819093962364951 7.096703424198072 11.129344807008218
As 8.006571343797207 9.098593396464452 5.84419540889944
As 3.396665444575253 6.279875251418391 7.450716663006364
As 7.419327771455285 9.161544260830475 8.468098048017051
As 4.828079378345716 5.706042418700678 9.440070417963414
As 9.85748377130455 9.607863075615986 8.913578991420238
As 7.395764415599227 6.822674876603546 11.2803175184064
As 4.048114252143117 8.739441665868458 7.676038080993606
As 8.095748478694322 11.886035106712965 6.221618725786417
As 10.167200779481231 11.69414946964922 7.604156454909607
As 4.346731503404605 8.074136455550674 10.107561551609011
As 6.524456493966526 9.039794769255582 10.899293591465804
As 6.37310916694801 11.339983806370864 7.884534984612051
As 9.338652287904827 13.649798020531026 9.08663653810772
As 6.933079550683647 13.208103578342191 9.444880054202773
As 7.775517365180959 14.350953063053376 7.408415425977606
