25
Energy = -113.70505776 eV
As 9.924743215560584 4.4591564038173175 2.683257958740167
As 8.461276550968778 2.952862051206598 4.006219781562816
As 9.521834347652055 6.678904474623429 3.7586656511099332
As 7.101338912950658 6.3411062914927045 3.703164250552985
As 10.697107772110744 3.53757502314413 4.9079424742479745
As 6.840201258448137 4.415742110186246 5.201184053404045
As 7.62598692187242 9.90639145786996 4.579309013841476
As 6.206551501978944 8.038044004680103 5.265037613754137
As 10.305146859180125 5.769883772498779 5.960234260750826
As 6.3704692074990685 11.672440212244403 5.729001974610847
As 9.741384777986244 10.40199170848662 5.889379817902861
As 8.634769856830427 12.704093814440188 6.029883498776862
As 7.28504194364695 11.970783361970991 8.009366938206721
As 8.302487271660562 4.97117593485277 7.109413896441544
As 7.393263402313635 7.265743612793417 7.553596918502664
As 9.338257354068736 10.60671407520446 8.314335321073283
As 5.34218625016133 6.7046931763361775 8.872247355934217
As 9.0472834521667 8.362888170788532 9.322214772586587
As 5.285729771046666 8.926256053836031 9.916174446412812
As 7.468008930720699 9.035491766064643 11.087064506096436
As 6.2281080933302695 5.325990631283111 10.681960085954646
As 3.912623365071676 8.235258454777261 11.866151119333379
As 4.169847490225985 5.76688751799375 12.043535035641924
As 7.526569023576153 6.855778832435754 12.184441980954835
As 5.488778573392882 7.313143191393707 13.545213378026613
