29
Energy = -128.65642737 eV
As 11.323627154848582 8.972411295711606 3.5276462451735564
As 11.586645125397697 9.378262207363806 7.216829104415668
As 11.045091092316207 9.649921091278904 10.895062565575266
As 11.725544681329673 7.330146820255007 10.301791711903173
As 10.852455496348385 6.554840623658095 3.97920417557054
As 9.38630702210168 7.830978530789888 2.473742583549257
As 9.925205964723235 9.812035843335495 5.420207208923256
As 10.142489272846223 10.604120230861449 8.81275342835004
As 11.1851707477041 6.9924423257878745 7.889460428762795
As 9.148668670025135 7.277379760305061 13.252351205100043
As 8.926502808449612 9.45380059058674 12.17495449581712
As 10.032466593411147 5.901203419493828 11.471821754222995
As 8.773541230769043 7.503853335548682 4.931392750340515
As 8.30975642248269 4.445214601370533 6.883459609922684
As 7.673229163973594 5.055966157449658 4.676520003048676
As 8.043090599061262 6.442947625686588 10.114241943433695
As 7.195353413956271 8.74403495468907 10.542738110622594
As 8.0036673049916 9.446232126667113 8.283990310003917
As 8.710466334809768 7.023213725969121 7.70735610029769
As 5.925283525038056 4.798191576946508 6.4057300464486255
As 6.5492433664585255 4.680349317766997 10.914102720069895
As 4.293905699367382 5.056146572440409 10.388991488883589
As 5.619273255315034 7.089617351113639 7.453783797995864
As 4.498509612278024 8.32272538699409 5.569654938249031
As 2.8936150546809576 9.52780290153257 7.008875801333166
As 3.63602171130459 6.593165850583612 8.750571566235523
As 2.263190854955715 10.819225558427314 4.955008743623256
As 2.175103407029883 7.467208162869177 5.8104245983752945
As 1.5737065214980879 8.914302704303893 3.861693474385843
