20
Energy = -88.8623018 eV
As 4.7414939036213575 6.19719269294713 1.1731199274061952
As 3.842852680877526 3.905206691862154 1.6663469210527015
As 7.051798518159292 5.512309710427613 1.928036695927123
As 6.2435734916391965 3.1403078177813493 2.0116756609152495
As 9.187164779427453 5.7251902667572425 4.644135813320356
As 4.1926787318873355 6.8325603540475015 3.5766543420592534
As 3.4862970336772285 4.608902962970368 4.066071395822404
As 8.564195368900853 3.3718493057991124 4.940921051904531
As 6.013453283798243 3.336175153939666 4.5162125824508275
As 6.592648427337025 5.8137327617131485 4.42782472967272
As 3.9370727618850925 6.6218039561977715 6.588245506199449
As 9.688662874660128 5.737994289548308 7.129687734822732
As 6.228573442851162 7.522474632884572 6.902289075181105
As 3.5378814915206425 5.2901466741494705 8.695034329623049
As 8.296390196814086 3.6529628017078375 7.412625729202166
As 3.2318107924370123 8.760012844865866 7.73179156439401
As 7.488734570783132 5.86810996474799 8.238266152529306
As 5.392871554047794 8.680764988728184 8.997007368214312
As 2.2753712046420027 7.266341739032041 9.559941713981175
As 4.586906395226064 6.7363918940856164 10.374543209513504
