29
Energy = -130.01014379 eV
As 7.746386301937016 1.7844855471047654 11.00318099035322
As 7.893500357486125 4.178263734885118 0.09217285442235472
As 5.693963188125532 3.050426988125809 0.0028435242757003073
As 8.588067765248287 4.228700518876605 2.4752969112511445
As 6.415877801612687 1.1846541160182544 1.458364531589477
As 7.618681927633395 2.1842831640081406 3.3954187833069374
As 6.316375906138008 4.289497139470753 3.4681564576387003
As 8.778448868247176 2.868971556352316 6.855728503673257
As 6.995483721946246 5.008306759679729 5.825276396096944
As 8.572763801799331 3.608754628520987 9.180021593647062
As 8.094772157604927 10.604068521214806 9.831583276032879
As 5.210399443762545 3.588945250060059 6.847183279819593
As 9.205018590242577 9.269385616700868 8.0195685627122
As 6.5225469715756335 8.743646231745734 9.265621724096102
As 6.826150871117909 2.1540760899729587 8.15780732753905
As 6.10143115692037 12.731642157175328 6.706689627453298
As 5.735813280196717 7.225168123909265 5.654650225339129
As 5.558799961163001 10.431144348306235 5.869936893366879
As 7.520721282699845 8.940248990924472 6.077608747841835
As 7.092393652681334 12.68923393977744 8.954123954604592
As 8.666275048766996 7.604830212837964 9.830520689439265
As 7.470304794500994 5.787481549199949 8.634141113782581
As 4.636526896999437 12.49435326832241 8.7717468961083
As 3.6914262947770546 6.846135774080011 7.133740946968674
As 3.813005093907223 10.408308513710693 7.670103360619791
As 4.857770721533255 7.826717748994454 10.894004607695836
As 3.996722955403126 4.893298615174024 8.593802147673205
As 3.2398189783030618 8.370875137285417 9.033298136701369
As 5.6544162725634655 5.517959822459241 10.358260042002376
