27
Energy = -119.53419822 eV
As 5.788973849926689 9.664470906062434 11.268063467309425
As 4.0624794459530795 10.720918537697633 8.239210810570732
As 6.578283829312096 7.521538920821017 11.904106406536439
As 9.470848445507551 9.693576150705532 4.42985824931974
As 10.3603377435393 9.114164432110956 8.03445168168753
As 6.172756883021633 9.525216799152314 8.858000959298936
As 4.613705158567455 6.179504334687259 10.653909699873621
As 7.12552481409393 10.06648858576966 3.7225311584478664
As 8.862249836400562 8.216643346082659 6.356337108075638
As 10.299920736727033 7.299503693069543 9.67036465529311
As 2.807811260728264 8.84055970700047 7.873804339639812
As 7.827178880665425 6.770684777600288 9.89829450480427
As 4.757699009164169 7.444752066107496 8.552098446834519
As 6.6552660297867074 8.79884837245353 1.690747222868181
As 10.239704214638895 6.428457636715107 5.219402882195815
As 10.059140917345058 5.153552097336226 8.442308420519826
As 5.1222678826938886 6.063154349531082 6.520481547401021
As 10.191338960037339 7.729077098525618 3.067413312024574
As 8.610661286765751 4.44508773910216 10.284781010930345
As 7.588466988474554 5.445930803269021 7.250051051463287
As 5.6641049373483074 8.105641454019208 3.958562181593859
As 8.256037916228708 6.855081807706318 1.7864511762079127
As 4.8709096360186175 3.8957299406307873 9.628318506254198
As 8.380712245997243 4.776979631591852 4.941840017246731
As 4.393001023701579 3.9179507778629583 7.226416731682211
As 7.025721382542206 3.3485525756985273 8.535953349729272
As 6.732356990613946 5.86790108380974 3.456480120158508
