20
Energy = -88.30099051 eV
As 2.9664674784796756 5.240122488540474 3.8486941943838344
As 5.728370250988281 7.318891329766169 2.767043396071372
As 5.815153333197285 4.654237676426987 2.9710453956508496
As 5.0189229900836425 2.4113972318561 4.224073125008142
As 2.421495810134095 7.341987539853536 5.033775888913409
As 8.245474611494979 4.037459530577623 3.177020592654556
As 9.450403160747946 6.157898883960328 3.0502024261537874
As 4.844282456944526 8.088661246073992 4.953609810054538
As 5.55066165428828 5.769315778689424 5.3613361336916405
As 7.968607568771862 7.982403294055057 3.6426212913567113
As 7.843771497858635 6.755157218612506 5.971136100437462
As 9.179135702948665 4.712878064965041 5.3631328676725545
As 5.022002359162693 6.143664674579744 7.924763853145706
As 3.043550420669335 3.396940134345914 5.369768211296099
As 3.4805415403504596 7.6245496270347815 9.225393602461189
As 5.264221858959228 2.776777334568507 6.586458749838204
As 7.359334320623492 5.503616111999593 8.544123181907237
As 7.601657218906123 3.5308197733203115 7.233735661372793
As 1.8468713079516934 6.958112370906353 7.493186315374084
As 2.957281138781234 5.203316371210254 8.867085883898092
