20
Energy = -89.23236266 eV
As 7.548965038937518 5.6958148904484664 2.352430368106647
As 6.337173652070958 3.659526456287741 3.13834176334481
As 8.864265549907538 6.327939826584379 4.393666732335446
As 5.115824600724866 5.794102879112303 2.798968480964778
As 9.167354353396052 8.731085705491406 4.965520999445129
As 6.982018973082929 9.432480473615819 5.268198972997067
As 4.985483915959411 6.79067363300421 5.044233577721423
As 3.45886615540683 5.08918732889231 5.882490546794858
As 4.906997244495621 3.2503849215184286 6.999422650146911
As 6.9633083687814015 3.5424252220519246 5.56055665172141
As 6.157631520352167 8.530239079083733 7.781472810300638
As 7.909782929458813 9.824495427632446 8.985489945935557
As 7.149190113640106 5.894825001939748 6.114394624536983
As 3.8048311391250604 5.142382123821623 8.31460352594178
As 5.710402626069443 10.855511382523417 8.573748984189383
As 7.590200875625042 11.249276996968288 6.9780682620421235
As 6.84897840630897 3.25434501672012 9.075963806703195
As 5.114824866975406 6.889921797825539 9.41600695851126
As 8.49687496470103 4.777192777892873 8.332639263297704
As 7.058070735387086 5.4392350889914765 10.19482710536932
