23
Energy = -101.80012318 eV
As 10.10520902241143 3.0364263835359795 5.785374611557441
As 10.20192717391983 3.718324603511186 8.185265042154418
As 9.948786774168093 5.4595176283952895 5.180818117139799
As 8.229166082891544 2.463742227797259 7.319924637059804
As 4.282392729540342 4.578102728838058 4.571965618576232
As 8.042866869190082 5.617905693047794 3.60904316394008
As 4.764282916629099 2.9184450394573895 6.072570225636286
As 8.984934404019025 5.808145492221017 7.447965190880071
As 6.40566503217978 5.635584967696262 5.293313305252918
As 9.978143586827082 8.005315652235929 8.032397498450592
As 6.498283658167999 4.2486223034862 7.373167505175516
As 8.860995560196503 8.917282831650207 6.03532215293597
As 8.298429834874934 8.562885555105481 9.891269824554968
As 6.547634269871989 7.969392451420333 6.380519652043693
As 6.1058499956832915 7.921625275589266 8.891359128653994
As 8.858511282790285 10.872778261468984 9.323324418617773
As 8.215433898512961 11.180144811851154 6.905558738643708
As 6.456010443103083 9.874337354948036 11.952756502326281
As 5.0804947624039345 9.476162525271862 5.23242491372882
As 5.724433466467331 11.271478458470666 6.731696151396202
As 7.259289765211139 11.955193528890995 10.92605488530844
As 4.671929811859389 9.900967113476009 8.504827544729666
As 4.905421493984036 11.187944861788663 10.653472550643514
