24
Energy = -107.07457965 eV
As 10.359419618017547 8.794891088807733 12.119662249338948
As 9.764661281403722 11.024730997672064 11.22094012972813
As 8.525658833288976 10.101057537810211 13.155025155124166
As 8.032208032068326 7.957682525577822 12.01717212295446
As 9.526537997062794 3.2177011555042365 6.796672455588337
As 8.620956023911088 6.865038438479199 8.719674864406077
As 10.059378284197095 10.282462586613413 7.740094137522378
As 8.212262678546821 10.726302722490004 9.320123507779934
As 7.150201833419139 8.553927088498677 9.778846589052856
As 10.475542162963496 7.871954188111235 7.76483888070534
As 7.198054597492025 2.6844599130061404 6.078992937392356
As 9.143998334678544 2.303275582808225 4.5580477360909635
As 7.132453713146664 12.0039972891061 5.838191001568794
As 8.806362974903625 10.303856690318268 5.572537053561805
As 6.907545275150493 4.898583481148 4.911917957114364
As 6.658009678909156 6.490633206790149 6.8178375730343435
As 5.0811609730219125 5.104666689418781 8.43218365643767
As 3.549796855187869 6.973570344564747 8.668396790850739
As 9.405879610801376 4.78708331895216 4.85555045909511
As 4.416877602029346 7.509780516714413 6.298255370410083
As 7.757549498687421 8.181640274964527 4.960513064535469
As 5.262298305585702 11.173470929906415 4.811765426543738
As 5.630949300899095 8.866668387947284 4.174841371755898
As 3.2055612632109334 5.349809658716545 6.86564198588307
