23
Energy = -103.03370137 eV
As 11.353688945219972 6.767615705994163 9.380936927894004
As 10.87837854692579 8.185619267013783 6.120174418098083
As 10.269411631958715 8.80174131034973 8.476159809066983
As 10.364932764215457 5.8662203781421205 5.277456847587012
As 10.035972442130372 6.328286898264158 11.471283242675907
As 9.658072736792334 4.900641767258207 9.431545333190394
As 8.289395619615133 7.979824632550956 11.649354184066834
As 8.036379577884356 5.839473887316183 4.532104594319327
As 9.3370008619255 9.287212190903077 4.5305633267960195
As 9.687734526358701 7.110526157867852 3.204815830132996
As 8.017287464160725 8.137766322822333 9.322128940599718
As 7.792818973349101 5.870695653276497 8.158200990895262
As 7.323674748917845 8.199854237747964 5.492516183955294
As 6.232537195393106 9.838700810139983 9.080843822118203
As 4.303780525884339 8.289651588968566 8.762251416642822
As 6.146871536634239 4.743276058438611 9.647738554893888
As 5.114111311937382 6.8114485795781174 6.979628079502995
As 6.56922415474025 10.415620896869113 6.691668270756547
As 5.544294716093174 8.664126735826684 3.7771921235185606
As 3.99545876796146 5.009881077427872 8.406925798443488
As 3.6834052058145703 7.835137666011023 5.212037762919624
As 4.490551319703835 6.420540774675554 10.423966041911811
As 4.426556622315973 10.213833070302277 5.420848964865737
