28
Energy = -123.82805526 eV
As 11.823295014071398 7.829530000979898 6.982703058344931
As 12.55615703008775 5.9556425680670415 8.416447716780105
As 10.57689042867291 4.5334670134792 8.733968224920757
As 12.490369634784134 9.751540258049525 8.403004851618316
As 13.958037025909457 8.961018548046905 10.251232873218028
As 12.575031429556145 6.9597697875408855 10.703908047756412
As 8.904861407236389 5.552848396446062 7.234562504828492
As 5.300853271830436 6.573898746048658 2.82453068457093
As 11.52307947082491 9.197854386624075 10.627705375694793
As 8.474571161543468 8.994910185935568 5.8620618465297465
As 6.6832696334485195 6.341079081753481 4.932321027033043
As 6.839202174110579 4.933909279308099 1.7199782296456696
As 7.431668861110038 5.39771175642496 9.236600231441004
As 9.488743945029077 7.920398630816756 7.826672922171708
As 7.001668583281516 3.999213628065045 4.035412026239528
As 5.318995441202845 6.648550187263515 8.696035147034017
As 4.695140764800764 5.9726517352709845 6.405496256221287
As 6.439706471711478 9.224911878203024 7.1594155169159315
As 4.818106568351598 4.120471265384942 2.819823527832157
As 6.36433961258306 3.183633113630237 8.866539403938921
As 4.717205761613914 8.923884008548516 5.558977856940805
As 6.782785069482556 11.120673911287952 8.5025438392334
As 4.667745332067212 3.500206465024742 7.090717513269035
As 4.221606180616246 4.373722616437128 9.342953876414114
As 2.660079636186059 9.859843235346547 6.467415295884329
As 4.62797460876134 12.078316897095728 9.009117415563859
As 2.6940674974123544 10.500295191236127 8.881509242411877
As 2.8794298682206825 12.254303842688543 7.197376701064626
