21
Energy = -94.25248337 eV
As 13.064272744250507 8.702933481007529 5.997888633283221
As 11.107876826033738 9.248327198174154 4.5697561350573865
As 12.336049306917086 11.051137841743643 5.746587898950901
As 9.69709318062328 6.427786027239103 6.326099734764759
As 12.194446803023695 9.940679418243079 7.957403748284074
As 9.08188722985702 8.8149908023681 5.904398021695368
As 10.126485806505354 6.971753241282244 8.748189693643921
As 7.509297341186069 5.327147218837065 5.96725322138966
As 7.619508472768103 3.467031528563266 7.650238428895741
As 9.80599453536625 9.409920185568126 8.218539848818256
As 5.72528784403584 6.289948311720525 7.426268757188126
As 7.74392283487068 4.3782365507442185 9.965081945933495
As 5.55430858757804 4.176019807838514 8.896259049000621
As 3.5828111985187245 6.891784932688923 6.303506534600096
As 8.070027043028464 6.838063429297512 10.08297133391725
As 6.355692105886404 8.29741375292493 8.682568663080822
As 4.274441879312563 9.05814479784569 5.539654057766746
As 4.759740695984228 10.253757176537546 7.499992483562857
As 4.471760032157678 7.712976947702005 10.216909412526675
As 2.6099116718345132 7.193431735325845 8.597658007357214
As 3.061662863315956 9.523138695832385 9.167679097209332
