27
Energy = -119.75428101 eV
As 10.718855511621397 5.029559361802079 5.127788004324864
As 7.673409345543369 2.3501787518442554 8.779394710342078
As 12.914937767233837 6.153857216304589 4.982797942721248
As 9.032993458593381 4.356883556296581 9.36970192236177
As 11.352217578905732 6.23630036359078 3.055519599074081
As 7.834048941275213 3.00972193512064 11.124873628981568
As 11.210236249759081 6.956281049836448 6.604738767381001
As 6.762548147339257 6.561189871733574 6.941243999491134
As 6.912019165325299 5.710960908125495 9.29575416114513
As 5.747599221406607 3.533031622179122 9.84416110582641
As 10.28395522796307 8.468013971694862 3.14706448631726
As 8.29535071906381 7.6566829648244985 4.459723599786794
As 10.124111977267749 8.924363125149764 5.5442991806891735
As 7.6582260562484645 7.8066496795157185 10.767928331422373
As 8.422439004680427 8.795905086034729 8.773062228024619
As 4.422269923614647 7.324653490007696 9.31122043980893
As 4.547188775478908 5.498999320895974 6.356474887033641
As 6.831816967628586 9.615388543224212 3.999071551463589
As 4.897487838164545 8.438251469630176 2.9307921045055783
As 6.062012961488969 8.854184204486803 7.987227574110665
As 2.824531455593878 6.611707970943132 7.729002612518548
As 3.7040184026558873 6.884382523723748 4.423315832755401
As 5.906540045826933 9.493252030712595 11.673614288047162
As 3.60101151132888 9.142053984101468 10.817998599491858
As 5.491030960120024 10.260830709240633 5.993054577183038
As 5.151390045452009 10.737095982723778 9.753608755702194
As 3.4429266892215975 9.275804139110534 4.85409447945636
