22
Energy = -99.04972042 eV
As 6.285608857376792 10.122314771672174 8.324567331641553
As 8.646566068103557 9.352117059363833 8.182970069006315
As 8.440076425690942 8.94028057577179 5.7079603765116005
As 5.395309909760476 8.925588940139727 10.272144965538121
As 3.1239261698227265 9.440718885919816 6.094146442023593
As 5.674982333743095 9.11391673004451 6.140548783748216
As 8.841987653437332 7.163360264606166 9.303271430535704
As 2.151426041062646 7.999598115986165 7.902660677440833
As 7.0832508381028845 7.248244618452866 11.036398786009839
As 8.222484489977024 6.6020593694055965 5.86216738757926
As 3.827559357369092 7.140186857162825 9.525845156250575
As 7.102385112692618 5.367794418328017 9.377581431412235
As 8.15271294838525 6.256896985271805 3.410505297327904
As 2.8277668440589734 7.077794947424003 5.687749319502429
As 5.001483139629843 5.560997413814926 8.07723077612886
As 9.671113167220515 4.299545801337673 3.16907837411226
As 5.439855355822887 6.662823057749717 5.903898217589443
As 6.188638871456978 4.739944038271813 3.3009123072873097
As 7.759664775078316 3.4037844798248607 1.8229270723135402
As 9.030768519588635 2.866115368441119 5.133283624635179
As 6.6015231148667075 3.1831268700034085 5.231072675924411
As 7.568329543490283 1.5702099677442944 3.5704990342180847
