25
Energy = -113.99246788 eV
As 6.844029023402072 8.779320444429242 1.1830089672828181
As 8.705833100229382 7.1621026533882635 1.5505792951319133
As 6.366408932373285 6.428285953896491 1.9292123130144316
As 6.389627754157046 9.638726424596838 3.494001007130394
As 9.640009886100643 7.701178845153986 3.789538681946662
As 5.8804273077358955 7.293914023586382 4.23463626255363
As 8.78276199035146 9.996517632004135 3.727818656826609
As 7.986300027628794 6.353016142385361 5.011035531928708
As 9.176741866379706 10.781097575853398 6.1136865105348415
As 6.952213280437624 10.998290451269837 7.122235013492676
As 8.134205436917613 7.203115807417165 7.401612897079722
As 6.130793548599867 8.648951650644506 7.427778880093011
As 10.03068123963351 8.759686074991249 7.237547698312717
As 6.603880854387598 4.940686731289313 9.176985806163747
As 8.058770503873603 11.574192193391916 9.23769533048647
As 5.171256116614125 6.476523730307789 10.456453482273398
As 6.160750033114702 3.0423473375501238 10.777989174789159
As 5.778926677270477 8.833080002698013 9.884280323251213
As 9.810212972926742 9.857611392236002 9.488709266089186
As 8.88698276355821 5.222365167366396 10.08592255624502
As 8.484289394915612 3.3135652717907376 11.68908004777964
As 8.029268250470201 9.100551683671826 11.012735347773637
As 6.359261126406283 6.5315222551110645 12.61904802318515
As 6.514814140274495 4.086696777263874 12.997015853399876
As 8.688070691238659 6.843170696702182 11.91790999223332
