29
Energy = -130.14793034 eV
As 10.084791203785391 9.74844359154418 10.79481387922815
As 9.516084662284026 10.370692329705246 8.448266917828951
As 6.947932322870904 10.20375209461587 8.17502728619762
As 10.119597880362486 8.037754319866567 8.993149400093115
As 8.0462168474654 8.373251026048822 10.291909007030506
As 7.2240987678571695 11.073777100090572 5.804606752679017
As 7.131965592035334 6.137834840060253 11.089814588316107
As 6.845838249831382 7.796036597405811 7.515332335937193
As 4.868237206768135 10.456035933103804 5.395115745532831
As 8.384079170272994 9.182551519650596 4.668337439703124
As 5.429052287960029 6.834243771362608 9.410422557252256
As 4.995034242663073 7.954744004719814 5.82694311907273
As 8.535847610283898 4.466314083669216 9.904082695184396
As 4.965004997986246 9.52084242490113 3.0683000464152093
As 8.526564108326955 10.823878540582712 2.834622199929396
As 9.002075355353595 5.205722442797361 7.614099868466115
As 4.950696287553691 4.64537646019338 8.304654320397331
As 6.663945818779841 3.01210185084199 9.176747033640057
As 6.5205729371459515 7.760725449170349 3.85878669143936
As 6.458012813241838 11.079121386697738 1.9058145815704162
As 6.114311716673348 4.852082608282557 6.100248699290667
As 7.7845744220976485 3.1502441504227865 6.897112507662566
As 4.1656578806075855 3.654455162211994 5.034296318649379
As 4.691245600587366 1.271550931960374 5.393659526799235
As 5.328286525060359 2.3441440973798224 3.288264742315413
As 2.370698570292821 0.4928317798337204 4.974186012469171
As 1.3620483999632962 2.1104786420263517 3.3931127810783357
As 3.3123196348479578 2.078619509096267 1.8679956740468642
As 2.245636361026757 11.079121386697738 2.560704745759274
