29
Energy = -128.98959761 eV
As 9.672890987308662 9.042905601315418 11.760115460888025
As 7.206439994626598 5.0933493524882065 6.700285083008957
As 10.49138355257745 8.96559589993452 7.992913642027077
As 5.180451317538623 6.13144334153577 3.8595150736675303
As 11.160063101734277 7.315653148739405 10.774426215609262
As 9.394666141793527 2.8786976657006402 8.619068166044672
As 5.583237197901144 8.289906130034028 12.082126486197938
As 5.572934320809675 9.915544377576236 3.914937568993131
As 9.450439950453404 9.254396072116196 5.762471981469582
As 5.197968837930182 9.935744878076003 10.548218606367165
As 5.235595828451076 8.53742010274129 0.6985939505075436
As 5.298815315442945 8.030942003110482 5.473109075957766
As 7.695923348855628 4.103004012307324 9.941736426111579
As 7.181629491468506 8.967164592483533 2.2658965652774525
As 8.465088328017838 6.013077450326665 13.449120554516075
As 7.181849015255944 11.160255906659241 9.708551799520203
As 7.652890811615299 6.366794277490619 8.900290304590921
As 8.95853884437157 3.9745522151258648 12.08611440591779
As 9.087216560972655 3.581082291068643 6.451947624540218
As 7.688228264257211 7.2235275605981055 5.403633287205405
As 7.425034154040165 6.627862013033855 2.959808387054415
As 9.565549097528915 10.500618772126064 9.738243731998153
As 7.810982687531196 7.430067231952906 11.516203443894774
As 3.5729986505919813 9.396411564093713 2.346388825682927
As 10.128194704152964 6.606177169274444 8.615207099395235
As 3.7711810037817686 6.99445164882294 1.9681855942085802
As 10.770594967537395 5.603145834979165 12.566838738025561
As 7.857054526074916 11.022493559910904 5.625653893613003
As 6.4536156025691 11.629038713488283 7.448513306354343
