29
Energy = -129.46676993 eV
As 12.144092555079968 6.850509988108436 7.284198300272179
As 10.810111607113674 7.029582217967798 9.367084665246173
As 11.360012052388182 8.266276947011406 5.320419702611583
As 9.067239454062078 5.183683022735971 9.226474496525025
As 11.29317537674775 4.703951032216138 6.323401347049978
As 9.26686879628181 8.654799250952992 11.726026792203179
As 7.545503041275216 6.847877208951361 11.871636188354056
As 11.644188485312188 6.061178711076775 4.209968622951716
As 9.629890319302184 9.193332930547296 9.321511391104304
As 6.017374692540983 4.117093906574377 10.05978679166131
As 8.935171317248193 8.567316504220692 5.456138162519388
As 6.876015180063307 6.398005819240069 9.48577640553076
As 8.894592839518484 4.494342540496541 6.834729083860125
As 6.923623314677214 9.227060702439243 12.31088869009152
As 9.778265437903766 6.076275400722881 2.5818543077663434
As 5.193137714354136 3.408200949502387 8.035637840761037
As 7.287791156344413 9.044977146085273 8.089560210953609
As 7.598297870872754 11.490726928224106 7.399563793013473
As 7.6343981917916555 6.414553483280877 5.9297388985702755
As 5.0943953003484665 5.274388884619671 6.466470496999059
As 6.027705560263482 9.934344235244875 10.12373369917731
As 6.679519514787663 12.321282010229641 9.58150703626354
As 8.49486867356165 8.141824211316194 3.0137123855866483
As 4.159234734144927 6.9040477556689455 7.967041812839799
As 7.485547073745539 5.880607597997967 3.5025587012406656
As 4.99410777188159 8.708931687338142 6.649467700765263
As 5.290921584237195 12.36483732507963 7.578318806903135
As 3.6814377129811913 9.697820605671364 10.093950098725815
As 3.614413002302914 10.430089675248853 7.791781479043416
