24
Energy = -106.98797151 eV
As 7.586400283508731 11.725209001476632 8.81785638651216
As 10.538337840967973 8.340038859703348 4.664693343677117
As 5.05668214525481 10.004051392365142 6.251487396235189
As 12.03184325343874 8.056551967048692 6.56317809277243
As 5.30840120826299 12.382997221754314 9.102134359636338
As 10.308755361152746 5.861942438484834 4.503796653165217
As 3.9088813693129665 10.554516961778868 8.410623254758777
As 12.013279471633753 5.608736826764436 6.348452819359403
As 7.338573314123368 10.953475717868983 6.473249986554049
As 5.8643795461436445 7.683984929164215 6.749048985295106
As 8.408505310064324 8.63034400764872 6.278767744788223
As 5.234231421476931 5.815100180878822 5.1276660973230666
As 8.328713706048381 9.741385545774639 10.152136113575613
As 5.0552244178282075 3.9567541538787974 6.754140838903104
As 3.9551711112855026 6.926622245331998 8.287264831742128
As 7.0531908595246025 4.101909651997869 5.3033149827082875
As 9.911739205203883 8.723187432747883 8.379398606903669
As 8.615240582690218 5.720358622047798 6.372334682067601
As 4.245931586394323 8.666131583003484 10.006872914757933
As 6.603470359823559 8.102061428916103 10.732268813301125
As 5.265437040053331 4.959078440316829 9.062675741586894
As 7.196896115698401 6.5721784553748 8.848310051221075
As 10.23085482291437 4.7199817974770655 7.965011983761307
As 9.669869329299466 6.526505389869168 9.570503495787733
