20
Energy = -89.26047295 eV
As 3.999182464672705 2.804284348101061 1.6862705193168432
As 3.908587573815866 6.094980223091849 1.7683864919277985
As 5.833873860643518 4.497756630307151 2.074279623275606
As 1.8839114491942268 4.65131985614315 1.875630495609255
As 3.322341166993733 1.8346581829714101 3.7395247849770348
As 3.225345504202777 7.447715353917217 3.7070457862391413
As 5.524086387411804 2.1503391002289196 4.826890379744452
As 6.196749105396346 7.230356204797 5.129970216350013
As 0.953368459979554 7.044372772233734 2.7017343359367807
As 8.382702799273785 3.8366238846281675 5.027878090585592
As 0.2892334171991942 6.07240913597089 4.823914136065787
As 7.846305535655612 7.3304506357290515 6.793439746271054
As 2.6980062865384213 5.7819733119684615 5.5136606187655115
As 8.023524084986004 2.071982585253569 6.777724358262963
As 6.0524473410247595 4.570816937439822 4.573490017697289
As 5.514644326195463 6.916752313738983 7.463431771328559
As 1.6994567197734305 3.9270303096508528 4.2502377837113166
As 5.611570658217995 2.241697770863771 7.279251234231365
As 6.1479285258302045 4.552931991896113 8.184402437569256
As 8.499413160366418 4.5542272784409255 7.415515999506633
