22
Energy = -98.82985571 eV
As 8.61742413143486 9.259872327576636 6.622619060881414
As 5.5676472708590445 10.757913031160278 8.235996704638747
As 7.839594332405482 5.730639958325535 6.880630714678963
As 10.44615613057635 6.412177991954909 8.904178700392233
As 6.872494275329856 2.3249640990439966 7.640188648841825
As 6.803234061040673 7.557956487481021 10.117452206567947
As 7.807573970529097 8.420026156684733 4.206112952890292
As 3.9804443089105037 9.02653235279537 5.002676902959171
As 9.240644732778664 2.301909243896477 8.257833468506226
As 6.03194040169184 10.106606217450055 4.092490152060476
As 8.524537782059936 3.49123250076892 6.156242452764395
As 7.622925440057309 3.3664496289056736 9.797084829746435
As 10.706931034231088 8.550461978898591 10.221453432535972
As 6.560775377148496 8.527220092076421 7.808668426463316
As 8.436225812578718 9.22961621556874 11.021709417655781
As 6.533095560449077 6.403242752751856 4.792520233606549
As 9.476331481671329 10.31541353540784 9.0879839254199
As 6.09527947503849 11.792936681994396 6.050459956391017
As 3.7580223498466174 10.973163170938898 6.578526174105386
As 4.899992275906466 7.2804761042587085 6.441745921518188
As 9.884270998556499 7.084747948601595 6.583162671918441
As 8.446742537164782 5.739315312954518 10.182984965780262
