21
Energy = -93.86542003 eV
As 13.397311841175279 7.995147879761724 7.714390907148651
As 13.426624333226817 8.261770333253073 10.127781987244258
As 11.373728834411159 6.6103951493605635 7.247298463462234
As 10.526819182827813 6.160568936678361 9.528507129534669
As 11.075491315501345 8.217860886164557 10.7530594214191
As 8.100333766926779 6.6585671900300545 9.236926268648174
As 7.97828839627639 5.6505322577737545 6.996078028236666
As 8.226961248139107 7.536333979801644 5.373349643247363
As 6.045795088645887 7.022748238558368 4.267856909053495
As 3.877552284235469 4.049954577875925 7.160752715069457
As 5.497172861264984 5.889074702845424 6.59011440602888
As 7.958353701083822 9.158749130984543 8.96434935985184
As 10.336945291622532 9.90727183424663 9.126635483016667
As 4.430243482094899 5.1962970125055294 9.235958130088227
As 11.258465082402601 9.067893672306322 6.987776680311974
As 7.866976328069017 9.677183411163004 6.557653469160604
As 2.4075393394433457 5.826761198492533 8.141744370507919
As 3.7671952121393355 7.734554114576994 7.004654850450612
As 4.2838930431529185 9.586590503921382 8.33955731846597
As 4.440148773207899 8.782909021889553 4.7333495302868736
As 5.452005064302776 10.427260808201444 6.318985384015446
