29
Energy = -129.06481714 eV
As 11.740930996586583 7.39764490185659 10.777587410751039
As 10.912970668297508 10.900855474667445 10.803968584987263
As 10.965861087253712 5.163403068787441 9.98517608271727
As 11.344732061722121 9.185497859531479 9.109822048221318
As 9.836847108960063 6.315953075498772 11.91990652880917
As 9.527898360627802 12.368484520817042 9.745915005531566
As 9.858948326427454 3.7641266878611113 6.8910542728150395
As 9.215848807101347 5.645140849437516 8.262896468689101
As 9.302308059497145 8.973188788353497 7.722775327944491
As 9.058951716931643 11.462078662222513 7.505236072386011
As 7.505672103581142 6.816285242362189 11.142960555545198
As 7.383937787756793 8.452631428448303 9.234105378195094
As 7.479876137291288 4.717264226429069 9.840470333428172
As 7.812644950970769 2.693729781491605 6.084636087030225
As 7.669568084825025 6.342345180833658 5.1327233600167075
As 6.475077743302113 10.603382845568031 10.072155564142344
As 5.804117387498111 7.563624212549754 7.534506935604371
As 4.040429653322441 10.159410948267174 9.94673938375499
As 6.611600340689673 11.766080418513313 7.8832048649795885
As 5.3847967230329115 5.122544020853602 8.680255495656157
As 9.716280417717812 8.53709464780598 3.3485150278501528
As 8.330211614550507 6.605909368485848 2.726472784127965
As 5.589769618517717 3.4283633587332107 6.901441020496841
As 3.6660129275578717 8.062151486521621 8.68220580800185
As 6.415009498612475 4.248902396337845 4.676013889771382
As 5.671549963294027 10.112574406292532 6.338504728479732
As 7.843595278439973 9.677497146765607 4.162400770226624
As 3.4880234429962265 10.30573269622976 7.5142224490547695
As 6.313867289422326 7.792948134327475 3.624488365999381
