21
Energy = -94.50804117 eV
As 9.279735065846856 7.921029205059503 11.679629202652386
As 10.31835832232003 9.203584953432701 9.753914828932743
As 9.335989759906 5.795173326455789 10.339719635928056
As 10.73690033035137 6.978817714596739 8.66447072863518
As 7.9292507469588855 9.423654464848996 10.28752181820122
As 7.05938185500443 5.7434189158483075 9.391425831665911
As 9.460558029211903 6.726368238561268 6.552146856212376
As 6.515799708877784 8.081367407200407 8.750054062459732
As 7.6158685740766945 8.333543338692175 6.539511588812197
As 7.86134830367668 4.847556178162269 7.199424717611958
As 6.386968602439648 6.134071432293682 5.639253238437444
As 4.133048486431177 6.210976560530486 6.7169884646727605
As 6.084797183552277 3.936937200833299 4.212711971166362
As 3.8974913150669726 3.884127435767322 7.443092669282263
As 5.529750265705252 2.727427560125542 6.2212497513393235
As 5.684372790274253 7.979265751041889 2.6927937690049806
As 4.998996863645173 5.9030144801610716 1.5093219877592146
As 2.752869928536192 6.074049153749237 4.6701437641707315
As 3.91655035275242 4.4518976582402905 3.1917430042011175
As 3.471411082309138 8.273108860153364 3.7849195596648357
As 3.609770035343076 7.949827766531877 1.3391801514754258
