29
Energy = -128.26337584 eV
As 14.262960970920533 9.264986026949986 5.433375565728763
As 12.67720001895386 10.928213559368341 6.3680935857739795
As 13.182063417461437 8.839474609306592 7.612090037072733
As 12.682887181707839 7.3740951089847115 5.674399114809965
As 10.515219179081502 10.591663823132578 5.225312018246833
As 10.637943769584743 8.202220092487705 4.564857769310372
As 9.286992759756622 10.144113507375348 7.340281943853369
As 7.3532244556819935 10.031378300008878 10.244181910590225
As 8.737024722777392 6.2424551110969295 10.492076562067133
As 7.476777307499734 7.906398034163987 9.0791316957553
As 7.621706535904069 11.621226483268696 6.779177606415189
As 5.934944360897581 11.175443275040267 8.587574631403658
As 8.906924387854485 6.333909920846041 12.935599218890122
As 8.779840168810086 4.022787046180008 12.859262374741805
As 5.118185476572414 9.241033581575643 7.170715281442475
As 9.127374631601825 7.0474393617949875 6.275814104327907
As 7.296641755513074 7.573728322927189 4.717309308281471
As 7.350992195409238 4.23605508272982 10.862511762790232
As 8.74181180271174 5.550595485078473 4.298600684065278
As 2.7418397112781747 9.990557171357773 7.217913872778602
As 4.991667738231022 7.674284619137923 9.068810256540344
As 1.52068493993879 8.270423602911153 5.880143074195172
As 7.762999428227873 2.726034886940715 8.912579081424798
As 7.483747486177887 4.633109672519781 7.651581975614301
As 1.3162648220215225 8.263012199260618 8.33422370929635
As 7.010228353844993 3.9860299426073915 5.316939009112443
As 5.436443544726341 5.93011595879935 5.189231359499334
As 4.639225054510551 5.739634462242238 7.56610166939309
As 2.1831571294133543 6.239131976830348 7.171003781161748
