20
Energy = -88.2880517 eV
As 5.497015796840499 4.64427654350342 6.241668510992397
As 5.433920798861039 5.250321155840682 0.6978596539444164
As 3.0806364591452557 5.372226195977618 6.394724455292473
As 6.927415060453027 2.3104040649906943 2.679555588581493
As 1.6702238243806047 4.302719031891892 4.5818270370501235
As 4.4256792072050795 2.3639810064051505 6.586334213344344
As 0.896275690190484 2.773715235127668 6.402607283290967
As 6.449259564854337 1.4095720678775296 4.984572932948381
As 2.5082226931215206 3.7130321311046925 8.07850772502988
As 5.008438757796962 3.9188552391858433 2.780000939801482
As 5.520067941129394 8.233803413950156 6.20264770722112
As 3.5108660135368175 7.700895162171926 7.41476303365375
As 2.7290193887509466 2.0848457740317405 4.778929176051211
As 5.672229154894539 6.650335234517337 8.004193737493962
As 8.50939471595583 3.9402989721345634 3.6719718019538377
As 5.62596180423322 7.6949892382225 1.3401556520527869
As 7.95890863460098 3.1103732266838566 5.834106250134077
As 3.4523800952255472 6.638840657641724 1.1372430796686295
As 4.302951494077847 7.425824773233607 3.450883191994404
As 6.116113397714742 5.755671368476339 4.032428522468797
