25
Energy = -113.82588436 eV
As 7.332827462518754 7.2601318067614296 4.414392830658032
As 4.875387056128309 7.579209444421274 4.279004093495663
As 9.368723505092996 4.165642135794548 4.003479491773928
As 7.019212938622697 4.805575573457859 4.419180943266007
As 4.422199075467387 9.340153334837833 5.959441189916275
As 6.736415716454064 9.905378501143058 6.738786196568042
As 8.825633438747197 1.7951956492791201 3.5700795527222464
As 7.806541725463936 7.672932568198442 6.7934137832421335
As 10.807821806377667 0.5948976492911593 4.44337118048447
As 10.504470003700686 4.1097152319517605 6.201643650901793
As 6.0630482108085815 9.864434991601598 9.1480118106304
As 10.686424056715056 1.6831518112820032 6.673933959007258
As 6.6664618610684085 4.22950441603604 6.834026973494373
As 8.690790761596533 0.5663652628594315 5.721409552614705
As 4.01673547775383 6.958346550429536 6.513810447674378
As 6.00182570587146 6.400657095689084 7.866835240163697
As 8.832327572956412 4.559931325086171 7.911012297258073
As 8.406919499978304 10.102318452387848 10.092240162100275
As 8.256136939685556 12.310955092111522 8.992350186689789
As 5.8075453239223025 12.39044368921793 9.337263093511227
As 7.532959192167157 10.65924733659161 12.314864381370352
As 5.711262630613251 12.288011333769791 11.783398682199891
As 9.13269627989012 13.852161469595966 10.722219217178942
As 9.091183649816852 12.557145580387967 12.826486320041457
As 7.255348699791439 14.199392289026143 12.290243354245373
