26
Energy = -116.77152025 eV
As 9.682540502722054 6.948099765761818 5.729098446438929
As 8.898402981829213 5.282297685955151 8.469523825699323
As 7.564772346040639 6.809654273386646 7.069947842592466
As 7.369113536517909 5.191256226435122 10.402039683611552
As 5.583873257903393 7.571973521721073 11.79854050084278
As 9.641738136527005 4.564537507868164 5.009054157288157
As 9.072321018504338 7.842531579587295 3.474826907991854
As 7.8001605793041024 9.690018168516701 4.597307810071531
As 8.645623870277005 3.317626697100263 6.976095562907129
As 7.930138843013714 7.571717548737133 10.915785127914965
As 6.878569647842976 6.796127048692932 2.963741384753703
As 4.927703630587421 5.78642106250706 10.138345658216235
As 7.840199555885914 4.544064112948927 3.2939652316154517
As 5.771283174354115 8.171517961928574 4.8464194834848255
As 4.370042086502895 9.29864587389054 10.473965608912508
As 6.349636738984539 2.7201907229414144 4.147306239529536
As 7.911960331645408 8.718768093574138 8.665417413566102
As 6.222369489349528 2.934288834997131 6.5684790699063536
As 4.098430330092639 7.561904045007123 8.574206061643222
As 6.68210139286187 10.68812866151074 2.639572370468056
As 4.088323397738794 3.530900890166622 3.5588886017375345
As 4.704953400864363 9.590016726218249 3.10922353451336
As 5.587943297220228 9.497606688437495 8.361526512245101
As 3.891295687717664 5.750196837266446 4.690309838676765
As 2.803633199520434 3.7418945829105765 5.674675418956853
As 4.694312048290997 4.8910573640326 6.863180188515504
