21
Energy = -94.72628338 eV
As 13.037842945728501 4.844441636949756 6.545069420388131
As 12.453285096890765 7.073347890364093 5.645554712308521
As 11.472254505619263 6.299774971695869 7.790883935684024
As 10.735460018401698 6.728860289282615 3.9171791957162734
As 10.678275441510271 4.156924012419761 6.818602720692365
As 9.526829695154817 4.712427664770698 4.717373093826891
As 9.158314354960982 8.216179036807656 5.205186467313379
As 7.960734944924143 6.1899084937176285 6.041841505467877
As 7.040714150030306 7.46577190115094 4.14471264347343
As 6.654221428143086 8.489967199341605 7.948297779423082
As 4.8423382834245166 10.060181312333123 8.627474089111455
As 4.9551782369473285 6.877992400041326 8.794963438252065
As 5.924931592942913 9.160858434242568 5.6541336993036975
As 3.107931443073483 8.353662507555859 8.051634900706954
As 4.867793058195573 4.97601454264822 7.213532836074031
As 3.568847111678743 8.348758933254755 5.610303593265659
As 2.9207703110110534 4.110101036971114 8.465744789599377
As 3.8572209479472885 5.93749421560628 5.16747447195922
As 0.9720517913889081 5.555177364291023 7.909453899255742
As 1.4407676338191908 5.518135112568659 5.4705329964119285
As 1.2982430919129044 3.3980271276932563 6.734055895472527
