21
Energy = -94.90598938 eV
As 5.63547641337075 7.118515233797071 13.710999180463315
As 4.450359562846341 6.363436855079679 11.66740118327119
As 5.0619412687458505 10.992572285904714 2.8490706565424895
As 6.133731225947113 10.69788103098477 5.102319066390006
As 5.888507911580501 4.789384239735389 12.930608229967678
As 5.758057973375403 7.3358204448419935 9.826567395044208
As 7.073143899787227 12.360539637942423 2.4684074512882774
As 7.847168158731925 6.305729832396344 12.935583085157184
As 6.1375105021583645 5.210322738784693 8.548435110979387
As 5.844062242237215 8.739116673925466 3.6105920488030527
As 8.092588282899998 7.27213678090614 10.68906309829634
As 8.432584146085404 11.10538907148502 4.0842662761519115
As 6.34770512047848 6.33677677477118 6.351227503021124
As 8.232738686670592 8.888984027709435 2.912808554623045
As 8.496854113188776 5.123539542620055 9.46279695483276
As 8.251061121381642 7.822327412048826 6.809856830604979
As 7.395485151468209 4.404375267047892 5.238720394252796
As 9.528639191914793 7.760336058951737 4.704809128457144
As 9.86202963987464 6.206619392290999 7.725567611353844
As 9.272629391827861 5.396023980582716 3.9738073099352857
As 9.694957634437394 4.2858003355654795 6.1523609929161145
