21
Energy = -94.43813239 eV
As 7.683954459990277 9.194688967754477 5.061405475265718
As 8.463007613154065 4.171657382667712 5.199266802151136
As 8.469347889062082 7.773859683762003 6.956871266009195
As 9.939996970181717 5.933232456856754 6.229167121976393
As 8.50312241844593 2.3168604006782343 6.847789522521648
As 10.049948197560258 2.8958340785260472 8.656530411710687
As 5.981052420109124 7.9346372380361005 3.7881218217531765
As 6.288327892616346 10.313202378171333 6.749842009494346
As 10.084201463711475 5.408188683474003 8.65127895302411
As 6.200667591430585 5.1382910015556496 5.352695856684985
As 4.927300857829306 10.132576898108601 3.0231606333336103
As 7.524268784977303 2.901592137726158 9.028819410263571
As 4.816478136498751 11.479607392543489 5.116524535487341
As 3.9938100443927 7.670637922031291 5.2993877154809175
As 6.412349873664269 6.413143126798001 7.51565936961741
As 7.72486937025461 5.356844693951587 9.446567432897922
As 4.683025415909519 3.411600964550321 6.469613830875095
As 2.9996413961354964 9.893839691212062 4.566888569262511
As 4.809236957696076 8.46297512112798 7.470350303348358
As 2.7868309556653683 4.954464155853933 6.621767089118991
As 4.186790040320174 4.770494374219693 8.47652061932801
