20
Energy = -89.3468487 eV
As 6.546164124148847 4.927187242440339 1.4196425750927533
As 8.725062768999086 3.6855786396646595 1.3270911112122314
As 7.0325185602491 6.79646908619096 2.942776957250342
As 8.993630481259965 6.018853450875986 4.2329209652600195
As 1.3637548705316298 4.8239281357234916 4.258666362174863
As 3.4195300322122 4.89911699813099 2.7878668449745487
As 6.8586922643877735 2.86463256695333 2.754487210565345
As 1.622506909542651 7.134043494785805 4.779507080399612
As 3.535294395296032 7.301621681520344 3.184357651613586
As 8.990331559027283 3.5837441968832806 3.7908942108822594
As 4.875044114737593 4.158020095377983 4.926927327519474
As 5.413144713411191 6.597762018174561 4.828583660205449
As 2.4153119498198903 6.421245785613817 7.444002626795016
As 2.861960036905685 4.193499611624219 6.512316990222709
As 6.992698036720845 4.2332846512247615 6.707655643721666
As 7.7383248021477185 6.452405866041729 6.364497323962799
As 4.504717261522622 6.870483603606913 8.737276712582242
As 5.875893700192572 4.7705763013914595 8.840373593237485
As 2.8228281123525214 5.347916223698378 9.803455231481763
As 3.847554007096492 3.3545930506381136 8.791662621406827
