22
Energy = -98.40086042 eV
As 10.38678412232841 7.750204623330928 10.597969946596395
As 12.507359873194513 6.094787967969278 10.309779321698572
As 12.011567516721806 7.976604245037936 8.781803833627938
As 10.164749172204937 5.315891837590599 10.354516084997568
As 8.915753942844704 9.812084595346365 7.4094110661441235
As 8.083373518106443 9.315012947454012 9.668585423083023
As 6.88926096244144 10.959758863634535 6.569968848914603
As 11.192976933283111 6.671344299168719 6.8599131096926165
As 10.031027862773424 4.780233281256963 7.951969409424205
As 9.006385554986856 7.736158176084284 6.086227882522454
As 6.853294961145264 7.283200171519871 9.554284578371348
As 7.878007103819331 6.129280277716884 7.576831928403301
As 4.9692870796272315 4.577075562586036 10.262897257903191
As 7.395400313033946 10.84821439861855 4.153097020344132
As 4.9132187682396395 7.455059643361426 7.907896190152302
As 5.7023177482201906 5.687449800104983 6.40458951255331
As 4.779199460207122 9.629616399764638 6.6716090529948175
As 3.150246580580704 5.582821519650554 9.250905123454698
As 6.814208885980014 8.57581673994308 3.365000184459529
As 4.504679115881903 3.9799566045902837 7.934828999273127
As 5.24528845010854 10.466137566603292 2.9853697799123595
As 4.604449129136418 8.56307306469463 4.464933777683669
