25
Energy = -113.85240447 eV
As 9.252640062929641 6.580098606125841 1.0328431553549136
As 8.432985584954414 8.825058342459393 1.6770640381048438
As 10.883237763943063 8.469215625339832 1.4148967591968027
As 9.904340099038107 5.596051933378623 3.232317621364552
As 8.001637008563849 8.751071468887389 4.1338630165496735
As 11.53684415329342 7.458386220274762 3.607452255520335
As 7.857622505995665 6.294248297323873 4.382381694740939
As 10.318895948634434 9.200078301853205 4.817681757815199
As 8.933104261576226 5.88370557448053 6.577362959349626
As 10.066823937746062 8.139540394800589 7.063338954739626
As 6.349796344873005 8.321056719735799 7.504524998025581
As 8.331699037441338 9.798068864548894 7.671545042890676
As 7.059614709295184 6.063509885628439 8.16515368986119
As 11.404008914910653 9.056007926269256 9.385731718532826
As 4.90706133901502 9.07445073155909 9.424370508465174
As 9.280694616904078 10.154794701220322 10.012129060358255
As 8.578428862461898 6.009184947138094 10.128177418600844
As 3.5577418938702827 7.04906360002324 9.546123911417594
As 9.91079318286981 7.996723511513147 10.985279197356611
As 4.815781651550484 5.430339847211637 10.995543348417465
As 6.226063788964234 8.916305611947891 11.501711285651838
As 6.823287807498154 6.543758377209017 11.842672277305759
As 2.3436719810216924 7.936597383998787 11.539101831888384
As 4.22143579681806 8.73346843851613 12.960855027831075
As 3.6002358431963386 6.317661785920504 12.996325568024831
