20
Energy = -88.41292541 eV
As 4.854033771110494 4.533860767012877 1.219966595171627
As 4.24217264132729 2.5263606353653936 2.1849643567276567
As 7.519768074428729 7.424205310777914 3.198837345712261
As 9.273121370234943 5.7661159665312045 3.293836482177567
As 5.776405027419235 5.62978582183242 3.231103417317942
As 4.672116233997378 2.636056532535309 4.634649114599173
As 3.329258989878775 6.203870544099608 3.6296350821866774
As 7.383884458621183 8.135494756442965 5.580179455910889
As 8.897368446914065 4.606129081481109 5.373430557683207
As 2.7408605654264697 4.2249304218780335 4.9628004289491585
As 6.956383624209226 3.6365932790038666 4.096740549559533
As 5.114898637248572 8.829728137370669 6.398636584220678
As 2.5903947298698355 5.147950227861234 7.280650173375428
As 8.24745465031677 6.29862052523238 7.023813300978374
As 3.0791536832655955 8.270000477314571 5.0620007393557085
As 3.801908575362134 3.8870308433329352 9.141145186724366
As 3.1715828254805745 7.552218693922093 7.406674005409327
As 5.962341432688148 5.359452940633916 7.285982032329523
As 6.182192470228287 3.308571873093722 8.659693453652329
As 5.622120798597671 5.440444170902548 9.752682144584275
