22
Energy = -98.54275919 eV
As 7.038704028229769 10.264148895207297 3.25892868435161
As 5.294077061138566 8.673799377880373 6.034881416441543
As 6.686277297604373 7.940659929059138 4.120769834758258
As 8.166346494864229 11.035471077327557 5.3526773189161325
As 3.7478764993891436 5.506986240260986 6.0623207450350085
As 6.711070712958573 10.29903348925273 7.220266946518439
As 4.777490068554469 6.9928878352720645 7.78431676221147
As 8.943413609871985 8.976128484253284 4.229105827497038
As 5.682312570959523 4.391946138054867 5.004705822465518
As 4.774623466513816 3.50725694569746 7.146685401244996
As 8.224501948268559 8.641443415700222 8.272172308301377
As 8.02018209235195 5.045233292851192 5.617736978681556
As 8.929713369291564 11.259224671734017 10.639397970369377
As 9.19013656000934 7.05774074139417 6.657324091386179
As 10.282875400777128 9.879797942455538 9.173068429265605
As 5.975498186329745 5.037016773462952 8.812277306233728
As 8.329308458001671 9.303726318323648 11.918650386903893
As 7.1335432780298245 7.592078993781592 10.205074116624747
As 7.989992319100376 3.9919013825669314 7.848667565445414
As 10.484746915426479 8.354575820014157 11.129858885637072
As 9.970896814399522 5.448693360306711 8.435501790157774
As 9.163736733613268 6.256997852388476 10.626668962670692
