25
Energy = -112.26641993 eV
As 7.757586514127253 8.690612333422658 2.5993991440118647
As 6.650109619233987 6.499990243284609 3.0389993435538543
As 2.6579584673589185 5.904355152069326 2.5945118132875686
As 9.92783834569671 4.6199968787619285 4.7081141487414255
As 9.228882663503914 6.957852607249847 3.693737524779704
As 3.610477401557295 4.3689244237701 4.294842636738621
As 4.158990915220488 1.471312308354272 5.71143092876649
As 4.269104806393538 8.841620858978928 4.661125517630183
As 6.622348094162492 9.694240511377908 4.600427482086154
As 4.28983086763853 7.7889129910603785 2.5242981705695917
As 1.5684202180275493 3.0025604775048347 4.19463071323091
As 7.453359294714296 2.4484399367531613 5.115677342032248
As 9.696716881626545 3.465540332420687 4.907017492130601
As 1.8325211283381198 1.950773670983536 6.413683452254601
As 6.266795679090768 7.309705744383811 5.407253478916504
As 9.151880541700873 2.036684229179141 6.903657806186736
As 0.6317176454951781 6.751604816275863 3.762869019673005
As 8.921452482938797 7.4229443030569415 5.998362727477371
As 0.8414075805578065 6.295558378212478 6.184828473683337
As 6.3760016704216955 4.146651330631209 6.593290099366207
As 4.9331603776536666 2.4909656230860096 7.810259617303526
As 3.2066848862336226 5.6289153740701465 6.379185187310274
As 9.927838345696706 5.229714315145983 6.669805139428579
As 2.7397686504979983 3.766970328460047 7.931879743018516
As 8.316363337299011 4.084759116838188 8.17031928315336
