29
Energy = -129.65719197 eV
As 13.062962696545029 8.876367489520009 6.79081975292371
As 10.807055769182107 9.950144503084791 6.656713528047116
As 11.572137677946756 8.485334719413874 4.811883500511354
As 12.054039688024918 6.849121496142938 7.984998555437771
As 11.415972545002475 6.181554345844263 5.700930752505057
As 10.182013249385909 8.407051013383924 8.48756319807574
As 7.860674870625332 8.843502450453318 4.14879765348808
As 4.5203485514431545 10.239969088409424 2.904425738087896
As 6.347423119186733 8.541857411090339 2.1974981454001985
As 8.147091101207831 7.538247139785082 7.375999225661146
As 5.012026114811894 10.11266391885213 5.342343670085119
As 9.0154925581715 5.649260025655674 5.966204231409729
As 8.56102339920932 6.514499517785942 3.614519088008407
As 5.3134388943250705 6.807598042284352 9.766742023491481
As 7.4980972478376335 6.196467941966851 9.38096346089673
As 6.1917029362366875 7.030593947348664 4.175770337584075
As 3.353683785324827 8.569512392184526 4.342276326461655
As 4.904247434467358 8.033460001741755 7.660734653044634
As 2.587669724487283 10.419775328540196 5.8136166497679325
As 2.740570296199929 9.262730977332154 8.128472304041017
As 5.585908169408921 3.2947232849611523 6.384068678614107
As 3.4581490512530437 6.23102060215781 6.640249113928069
As 6.529682520821111 1.552598019738775 7.879929433793559
As 3.914945393268752 4.151898507168559 7.995553227891874
As 1.5264485237036363 7.149041317036733 7.842730550118595
As 3.2410484482772013 2.640209382112857 6.13487449062997
As 4.695291669237015 0.8312053647578523 9.378552313271491
As 5.269607981583956 11.010810004860836 7.393439198935641
As 3.0633223554230877 0.5973717118248992 7.53140597048701
