24
Energy = -107.53646899 eV
As 10.634740037021848 10.18077051783769 6.488673102862163
As 9.585489211197011 9.16597114254088 4.488754662237884
As 8.987149073375027 11.49892384989523 7.847418825658399
As 11.024598238486403 8.414434944277346 8.16331274186617
As 11.441676977299382 7.465318403347941 4.424663689593109
As 11.718367278706939 6.520211007128618 6.69331207899648
As 8.974278806852423 10.18927293345548 10.011467303165496
As 6.6381326577586846 10.735875628576006 7.4608402690139375
As 8.79653079416231 7.8636017801629325 9.15261861664098
As 6.622613064667376 11.093601611910426 9.953594114556507
As 7.1221361478406315 8.296580727059823 7.331247131224864
As 7.467544219892439 8.008831845907816 4.967631720679383
As 8.334024179473989 5.273445259895843 5.006772813029564
As 10.176814611632915 5.603529768352187 3.397567912054224
As 5.573625145422882 8.86908356754319 10.387870675510996
As 10.417921241573637 3.6160476800387045 4.9004831017416715
As 4.984099106297171 6.941331757662087 7.539493461247848
As 3.1215150895146673 9.20416668277828 10.142319799309504
As 9.83692629797482 4.91543477099891 6.910044188915009
As 4.069877089148314 8.764086905947371 12.370833662953512
As 5.245479178673866 4.68407782984147 6.6058393287072255
As 5.170293088697268 5.921234592401044 9.763595207325555
As 3.1351956545929456 6.889704955361182 11.00563606341942
As 4.16431725662351 4.004293893995756 8.546530062287362
