22
Energy = -98.98846802 eV
As 3.979212849259741 11.293501575170088 7.959495778543202
As 4.952238511318543 13.557880900920294 8.269788013406348
As 4.886234533679777 12.529765462582478 6.01534583253622
As 6.014160785825459 11.58590581853299 9.334831393199279
As 4.920855420252758 8.901939949923948 5.05282739913016
As 7.262201735149874 11.92378718100196 5.67634503109831
As 5.496289112739034 6.524484268212974 5.414685091544999
As 5.3837114829635695 8.0936598496991 7.338046052604648
As 7.959358786772863 11.082748259338304 7.897645842487869
As 7.0565056075516 9.86292765533042 4.259765963046567
As 7.862858393239494 4.562402537474905 10.343716822594256
As 7.7660378045444425 8.593545693156459 7.772702619342919
As 10.258506985938483 4.40460747626055 9.819385447506919
As 8.734922059825768 8.57989812472759 5.5137431847261285
As 7.035419323446404 3.386032733059991 6.679466097197513
As 9.309751306998427 3.0318930065911167 11.595916459074948
As 6.733037379780899 2.749847825541238 9.07507253130669
As 7.893627270730522 6.396238219754139 4.7339654824812545
As 10.625279819448727 2.642114416918413 8.1040655610574
As 8.590948208829884 5.345795105215349 6.9091415004168235
As 10.382568222186848 3.9374569723974506 6.023829985605594
As 8.407492000874205 1.5552594769333303 7.735151023102405
