24
Energy = -106.51086601 eV
As 6.313675168698831 2.6565069981839233 6.1350490703370095
As 2.0320363221361353 2.6879239329712874 6.6109533685221775
As 5.281016284957282 6.981957656305668 8.91054847722316
As 8.848403530040528 4.909291502263362 4.54384110817037
As 4.273931217630438 3.4442390898289226 7.4230508363957775
As 2.176503334273816 7.1017217432095485 5.364369565082775
As 8.218328353124871 3.830284700835372 2.4173580801068013
As 3.2528643784898685 0.7281914721923319 5.675548883017999
As 5.566484611535945 4.300155655988064 2.3676613765977423
As 3.675968314531399 3.640238597223224 0.744454557084013
As 4.343649332230145 4.743821191293819 9.548348589737765
As 3.6117314401658933 5.088725495304104 4.146336858987167
As 5.940431263606625 6.462676766254309 1.3468081484553636
As 3.4508596729422365 6.025376138759201 0.3836659358280334
As 2.06899974501458 4.939908118057741 2.117173886730275
As 4.532005546460875 7.335031257793674 3.4526927470593
As 2.4560786090889364 8.718615698307353 3.5536429618032708
As 6.475742116244231 5.056737695679738 5.377464978427394
As 7.181442733803712 6.252146401895637 7.477568634559612
As 6.782242529634099 5.218567014860598 9.732776151479941
As 8.564901059039737 6.17866099967434 2.4399651067014885
As 3.959959187065692 8.750891450116987 5.520324170532168
As 3.373989194909194 1.2338863509471565 8.107760297400471
As 5.037078112202443 1.8044769021197253 4.332273020135824
