21
Energy = -94.48912227 eV
As 5.056064294293693 10.582068114845832 9.70667910617203
As 3.903142066248247 10.904295285217389 7.516537781207197
As 6.75212328946699 8.780756326225532 9.309645638627153
As 2.860799139543101 9.560256909864002 9.313971042078805
As 6.983101255839484 9.12050005165616 6.888428934593924
As 5.352369846879392 6.739968437323438 9.36932313262685
As 4.643214530704435 8.915487875442146 6.11451071952662
As 8.24739879174728 6.996769841047791 6.850256463521266
As 3.5829445847900816 7.466507950128436 7.808885065904298
As 6.898886321737375 5.273070966266194 8.104536499462442
As 3.147717961316754 5.236557975621439 6.478333225704316
As 5.170315868762312 3.903365315983959 6.902905778033177
As 8.547732929740844 6.516516835305538 4.426447251279485
As 10.88018037446842 4.51312179615579 6.8073636203058845
As 10.95761595526632 6.187271709699091 4.96585333375875
As 3.355009776338281 6.316087925110361 4.324616085595356
As 4.9363166103278315 5.190447191098229 3.103018099081964
As 9.569330792573922 2.8803636800947627 5.477630919734678
As 11.676766787652886 3.8210777339264443 4.578980111678345
As 5.849263422231568 3.4545127386741172 4.563790404840316
As 8.139550202563035 4.150840142804996 3.898131588759555
