28
Energy = -126.24139831 eV
As 10.665504703173188 5.251148260718928 8.00721505231158
As 10.862360198110231 7.146742884748739 6.359652771709709
As 10.374548345260896 9.189846656115304 7.657674296879951
As 8.795984556361818 4.161806635415923 6.812798591144163
As 8.67523671010103 2.136015624576356 8.326183289396251
As 8.346363804391862 5.658907444668941 8.761598859248776
As 8.22446642023728 3.624232279179593 10.281133685099343
As 10.593985323125143 10.667896535938866 5.721965643352296
As 9.001830698562918 6.975536465836123 4.766829203948391
As 8.48225418760338 10.703284522191268 7.12416662120416
As 9.36966043770484 9.29596520726991 3.91564071087538
As 6.366858017615836 2.3996395428320176 9.185109259711187
As 6.756759511982227 6.761009643804415 5.971227130160484
As 5.349502878818743 4.236546791634199 7.783749628004743
As 7.431934019550334 10.50879184694604 4.865149714468882
As 4.979774394115167 2.7422263425987645 5.8254191950379495
As 5.7774746046392815 8.059158288217924 8.905867875025352
As 3.1796858655333526 3.0268182081403636 7.504184909593646
As 5.945568902764396 6.007245034768471 3.6277373018270063
As 5.606207141960156 8.893934434494387 5.35125741103603
As 3.621164411892235 6.757812994836507 6.546287188449285
As 4.356447118149296 4.114907790424676 3.84198234424575
As 5.096617378004654 9.977882338116407 7.734348968009624
As 4.4760357787192575 7.918332514245817 3.1740676135140595
As 3.368671628245551 8.348938224459566 8.462369005927306
As 1.8539485663357753 5.025660962298981 6.769223418221151
As 2.0542311960667132 4.979290712268734 4.275627331528941
As 2.407123688393445 7.450622300671791 4.461733467487912
