23
Energy = -100.83635669 eV
As 5.016856404305293 10.210700581611826 6.015077293236144
As 3.4808955642336383 8.231957952671795 6.222658869227784
As 5.438640586071481 7.096486441467922 7.477237792379334
As 7.008815636868043 8.294790517883918 2.5217506090125217
As 2.7259742924958674 5.015715331675272 7.487919729602552
As 7.885565461104721 7.9020818984401515 7.775947233167479
As 9.367552797140402 3.49124045466868 4.523122589718241
As 6.450148047931085 8.44617073583989 4.910144748993112
As 3.822609085052851 1.5595407008947448 5.930140711069288
As 7.677872061295646 5.262484580325869 5.041559831985812
As 3.36420098321525 6.9080153645786115 4.100059177442093
As 5.066188108192738 6.797088738688874 2.2731134133893267
As 8.90613394334419 7.0688178869686205 3.811641743359642
As 3.061285042436348 3.185006156617712 4.307728949775545
As 6.118630158234802 2.074629551867749 6.746470292181737
As 4.449723857367481 5.578116095764436 9.20943216467133
As 5.979924060297309 9.463859124885012 8.233779272509397
As 4.23015959190947 4.951166105985045 5.381746491446739
As 5.63941664365239 3.3861200974610433 8.84352630009167
As 8.751007823029985 8.839022485475226 5.647936086413422
As 7.412106084286867 3.8561165913365905 3.036472365582354
As 7.438074552177276 1.9501237349173988 4.63725559393371
As 3.267034672434169 2.7029931740052486 8.199557662915238
