29
Energy = -130.44308511 eV
As 5.93558018318545 4.494305405003846 4.312526029851153
As 3.9958516415856025 6.04265380931144 3.9957539789365
As 7.028191181598933 6.506368787248806 3.339559287985734
As 5.8145746297473115 4.790787231253337 6.805868829333199
As 3.430482238906398 8.983951048165853 6.3928856684778514
As 2.5559382860582742 5.503143912854525 5.909874828164494
As 8.639414543646044 6.513105587346739 6.5380464177918824
As 5.1325148773552405 6.1229526271573915 12.405663160252969
As 7.868336604392512 10.150795970336 5.234313427584354
As 1.3563755909289965 7.682588712315109 6.081276877981275
As 5.102354148098472 4.966400535826701 10.175954426155347
As 9.156910803443425 12.206928625577175 5.941129481869166
As 11.420132751688556 11.849875490934364 5.125363506143005
As 7.635768017913164 5.618445139242654 12.662061550652954
As 8.674031644457823 10.397284865569071 7.569237963945093
As 2.94397085622543 7.071430107489433 7.8692084217822025
As 10.954274459499947 9.478681188887345 7.666351424198012
As 7.908770165437963 7.581414192403887 11.184537439547269
As 11.688926179708576 9.451836595571045 5.305910584019256
As 9.667086611582068 9.035979570014268 3.9354094146189667
As 5.400129166712669 8.0214840950282 4.798139385705995
As 6.267457570696098 7.2666200610016665 6.997140860898653
As 10.644589573446659 7.018872111546565 7.861792871827978
As 9.800471027132177 6.401539540762742 10.10658280259403
As 5.588002729144483 7.3821808222336625 10.28116027116225
As 9.336129809476276 6.559204421654256 4.184989045182123
As 7.158852250956868 3.83503800590528 10.986309823382522
As 8.259653077999275 4.138027718530216 7.022731063310244
As 9.07731988708221 4.125275429661747 9.421645187403737
