20
Energy = -88.08838624 eV
As 2.8942258610929352 2.9840892856298984 3.0529689731778293
As 3.910861166844926 4.362849462730837 6.052427525312531
As 7.10474421129504 2.6419867695407975 4.099675571762635
As 7.499753233040444 8.32783460361376 7.093136434203203
As 3.2065998102850517 7.2006813501097815 7.192495037374188
As 6.34450721156908 8.486378638440616 4.499213318057755
As 4.933507280982143 6.926387658799553 9.01146310647694
As 3.4562097616399514 2.1074762337978084 5.1054619391874105
As 6.394999689536096 4.437905798724608 5.811778347649457
As 5.4501486861113735 5.341758895758709 2.4719486983072425
As 3.939146809102153 8.207151493682284 5.0328518126097075
As 6.130191463111473 7.6914215356991145 2.047943747109668
As 7.377178565153753 6.327775963679954 3.7179719944223635
As 8.861385608272803 2.0230952805557556 5.790873388838898
As 6.690841519264048 0.8817114276908518 5.796128171464566
As 3.3123164158641853 5.335462040978553 3.8067704034444674
As 7.024782447118699 6.162067787388663 7.951553454434773
As 7.1367333951062655 2.6946302990775255 7.465030695216184
As 3.70601204893957 9.684024365897592 7.0008065274645945
As 5.71001340354956 9.259469696083322 8.501657495305688
