25
Energy = -111.05275247 eV
As 7.139428070734153 5.252793522897099 0.14952425966221602
As 3.089087013720557 6.268174762186002 0.7051836674759969
As 7.074742847117738 2.8790125463756513 0.8453083828068477
As 4.305384963174659 5.8278632782251965 2.8438574117006787
As 9.025948991623517 4.280059733823008 1.4533220833778324
As 0.8341501444352443 6.718221105118148 3.2875121016097393
As 1.2329903763158172 4.940404880627969 1.6416182335404403
As 2.9461015071781724 7.905717949789901 2.601559344793603
As 7.7556236890087575 4.930938019038447 3.617892387180908
As 6.5998188160323945 6.621071046238474 2.1986745478370633
As 7.108874208389852 1.1750022907658322 4.076863176693203
As 6.012991539515344 3.2050729188874896 3.11569875991113
As 0.21751472145947032 3.5593010228133624 5.736640440180589
As 5.975211554518278 6.524141585234914 5.617634344273701
As 7.866167499577242 1.5137894034490222 6.412873685213069
As 0.024896639620939118 5.71483440815255 6.925887415106912
As 3.8399692668506953 6.956234420308874 6.499431144432264
As 1.8299149844221085 5.472029573377604 5.25849377537909
As 5.55808866485348 0.6649490404542753 5.963264853476247
As 6.497362817379281 3.23160061161657 7.6660117001448596
As 4.694992406203264 3.084372202306625 6.019874351697667
As 0.9853516063683542 3.7067701534506394 8.0592530461441
As 3.5238063668061654 3.422010766066636 8.197056745716196
As 6.79304713594306 5.707365576492783 7.788419466114312
As 4.387389353545701 5.75712436709805 8.636999860325435
