20
Energy = -89.47273488 eV
As 4.808371661537242 6.932364496098224 1.0544687870480147
As 6.222404233494566 8.370932047183242 2.520995152359401
As 6.755760644084834 5.04234085569404 1.3623198104068024
As 8.22059960300261 6.953713464378199 1.9579590401255804
As 2.828349987949256 6.806334428570887 2.3587108126818492
As 3.260950524040211 7.320902077292033 4.75489060088416
As 5.906348674564062 4.456669250665396 3.563092892713686
As 5.6539590951493714 6.8716024701326575 4.3479451443646315
As 8.123529381532753 4.0767477020611365 4.576545168330923
As 9.11805480167437 6.350362032580333 4.242266653577917
As 5.183472093578347 2.1763315321491308 7.662741108965442
As 2.822371150060082 2.029194305104137 6.914642968838208
As 3.39040198658495 4.93587676816844 5.681518076241879
As 1.5201442415328765 4.16231190195905 7.1666854670132825
As 8.031856574555626 5.053573660371527 6.902841729969783
As 7.511889029649241 7.308748860319616 5.941771068605713
As 6.147030341558252 4.338095548931573 8.420600788636063
As 3.4144178073724136 2.220628957090774 9.357741985349998
As 4.333957967112082 5.857851985512566 7.8369639828187765
As 2.6965375094026003 4.685824964172218 9.325706069503493
