26
Energy = -116.42556762 eV
As 11.378855936873364 5.310723050339304 6.933789413975059
As 10.486440684142167 3.021088172645259 6.661579394061684
As 9.886404368391412 5.572524250766086 4.909241552901702
As 10.093054986437727 2.3022176183883674 8.998238113421413
As 10.15749086840984 4.367227288149397 10.34933105000211
As 9.85040404909123 6.1906414859057595 8.643509320462016
As 9.293990142277108 7.919263021221405 5.504414746745405
As 6.785034966279961 8.082942559252807 5.89502996590366
As 8.274667540036594 3.923824096001219 5.965549726799728
As 7.958173109930289 3.340951610033454 9.6716051278796
As 7.672335002122356 5.179920859212903 7.978331713183477
As 5.8088697581433575 5.475704090576336 4.178271699461281
As 7.349612104300968 10.396730117758327 5.256826631038723
As 8.313985800921945 8.894078662663697 3.427829934409237
As 6.929579760556664 6.8762863389448174 2.5277657210552986
As 5.439112010615759 8.311607314358895 8.016855971154225
As 3.885964825545501 4.382593872570223 7.985172615483828
As 4.942988192755137 10.845286222012664 4.844026857861706
As 4.094616966603348 6.618212007557908 6.777750597754203
As 4.440426050723934 6.81336299735494 2.7037407079878655
As 4.214784262395334 8.445702953469706 4.668884425101357
As 4.061298872014892 10.297157914103765 7.1497023296723246
As 2.254188077924094 5.479953095672524 9.43200696524848
As 1.4917943671264755 4.507898326764004 7.358963391094017
As 1.7246405579209727 7.116883401122545 7.3962868150455385
As 2.2091273069025217 9.325059241597604 5.763135780738528
