23
Energy = -103.6953312 eV
As 11.565996015066425 8.694484306258634 7.4689102270572745
As 11.04090782664358 7.204818194127513 9.370992885949724
As 13.194652445652334 6.036126369457322 8.617900290141874
As 9.250998025578191 6.8299175306723745 4.909105920057326
As 9.992251676488308 5.204371464457296 8.366997488874112
As 7.789448579322953 8.266125678794408 7.711240536939619
As 12.916864535581547 6.978683826068008 6.315209004080704
As 11.917200430102154 4.788806429177034 6.865264730450989
As 8.06787356736847 5.909280923905518 6.9136394902407545
As 6.130435652349423 8.83573395144868 5.940059706387312
As 9.522184454075898 9.047225444372447 6.0594860962218355
As 7.1418512191452646 7.715513037521371 3.9336313628854414
As 2.9487248096796237 7.454725076634956 4.6567303612408395
As 13.194652445652334 5.318702513890567 8.17411353295079
As 4.18465758676101 7.534700156155842 6.7696537954100116
As 6.239807606915979 5.457107088545767 3.368619670980366
As 3.771425660519932 5.528549832928307 3.3056496780658735
As 0.2215692844100083 7.302808368798709 7.255234723309315
As 4.681600008996042 5.155838625367322 7.135406754813279
As 4.933048471938217 4.04994463270723 4.953364571397728
As 1.175828937488656 5.896220627336193 5.374835105239863
As 1.3793475049813215 5.893430382428245 8.944063343544476
As 2.309366900547032 4.411338824909735 7.104344009724551
