28
Energy = -125.90900755 eV
As 11.992655881091359 5.856601841764976 6.531728150024896
As 10.075423542907545 5.2680366366069125 5.034192012927816
As 11.581758875975607 8.237646610850351 7.21267054935181
As 9.972742281054101 7.628121167111887 4.227476108928436
As 11.11444810590009 6.362348636795682 8.798992650427559
As 9.214208965886927 8.519731032931464 6.365157682129591
As 9.223584652591617 10.809028980373142 5.387523461028427
As 7.983128021881838 8.107371375619046 2.753998341910867
As 8.539409088675486 4.608549980176974 6.858223326699719
As 8.624856989282915 6.4280549161267 8.571339248690839
As 7.174070049681027 11.326276970688575 10.460416098421286
As 7.863925583420603 9.240657930757965 11.709174003152139
As 8.043669789000251 4.725668728041012 10.341846217811689
As 7.703110039520341 6.193388578087867 12.312855937710838
As 5.879867354145867 8.438361949595324 3.9923150611925213
As 8.023927816156764 12.085289009967642 7.214278948715376
As 9.119295066013784 10.746579952488053 9.020588165412516
As 6.382317684357171 5.0900491889520385 5.707740423651601
As 7.4229239614029865 10.37050264301891 3.6660764785604116
As 6.0774280938667 7.483666847731281 6.330744222646331
As 6.866559578688573 10.149241672706525 8.271438310796391
As 5.900925690768187 7.799612115327613 11.781799658947904
As 5.581153761142663 7.275014364746126 9.311796570578336
As 5.150559871316655 3.9665022275927613 7.545329775399587
As 5.601605213010252 4.873089595207608 9.826725614368785
As 3.545839838686613 7.414434230401613 6.3254802884941075
As 2.9925774015200353 5.213963926881283 7.3319551044387055
As 3.1270997395583304 7.237597878021265 8.792849752506687
