20
Energy = -88.95101013 eV
As 8.23524061333009 5.676879704560277 2.625368323333969
As 7.057266019193191 7.620070826072489 1.5697486105067235
As 5.9553644214670225 4.599241459362521 2.811429911041832
As 4.917754064272653 6.8789160311820545 2.689938821979885
As 6.547656260584319 3.615921620873234 5.018085238635514
As 2.84611479994614 5.203297035161374 4.968526381383523
As 8.135393622887078 7.910964026001964 3.774808104530418
As 2.5002795155218127 7.6097310130285605 4.489698917829496
As 6.036266317057382 7.28532955779897 4.986183196947557
As 4.926812787010018 1.941517901081967 6.102758659949274
As 4.823966159007456 5.282047391438936 6.641213598604437
As 8.599571717681737 4.5696138832600095 6.1733677254218415
As 4.2504674678501155 8.8256062910157 5.84441398952335
As 8.012565261377498 6.786200205464077 7.0085263031256435
As 1.6484225919285376 6.608620775367811 6.633351842966252
As 5.875951072594021 2.028452749357479 8.36615733644054
As 7.864800729100613 3.632177417528339 8.410437983952004
As 3.787887479688114 3.262613262215411 7.844031023694206
As 3.7695494708960466 7.334524406745444 7.793731181085554
As 6.555798939253468 5.675403753129816 8.595352159693977
