29
Energy = -127.78612414 eV
As 11.997327786427602 7.911173517691269 11.918728499746937
As 9.788894244993248 8.58270801533071 12.74307949008189
As 11.89437357479218 8.273483438622657 8.028865125011432
As 11.042241213218837 10.11553959733485 11.23795656705522
As 10.703417971616668 6.521772215544586 6.806608307126477
As 11.669400067888404 8.476179860196904 5.5596648184909645
As 9.918951066017101 7.098791378380073 10.733234786442997
As 7.960206698019017 4.797204784420216 8.05539575651316
As 9.831164956244313 9.097539965209647 9.23831037428048
As 5.575465822634921 5.365124708829984 11.526066309807632
As 4.808366568348656 9.562937155616451 10.55361440111125
As 7.040447196495009 6.411866674113175 9.65774304512613
As 3.425465422372911 5.829188222401374 10.37948534726639
As 8.182952128687148 7.055603215214412 6.893801964488889
As 4.354191113469833 7.4727237772200885 11.962516156526
As 7.158149694046085 10.095728175586327 9.897571237324211
As 6.283996039373158 3.849594684193288 6.561491050308393
As 9.339125187266571 9.24181525725657 5.145510239946013
As 4.840501727062825 6.738462177014268 8.51941745714755
As 9.060733693567537 11.16223542019274 3.6248652844222566
As 8.834115545633637 7.91094887390329 3.1174238166996897
As 4.46371011500959 5.459330483640441 6.433333218683671
As 6.7851921185111825 9.52109236191427 7.6388970008437
As 7.363832214616617 6.0282303980129655 3.881156524690131
As 4.358799012239865 9.096319542802135 8.132184840933403
As 7.548266699976597 9.875484061052589 2.4271938503239094
As 5.384335222699713 7.170061716283434 4.834736642042275
As 6.0813834403832905 5.88394354723516 1.748070754001687
As 4.122813569656949 6.246908859798905 2.909421056049315
