20
Energy = -88.14227567 eV
As 5.5970420860329595 4.855746457936414 3.050948453609863
As 7.166782496687016 8.897155625562345 4.642493736366055
As 7.220702209009157 3.0108665058931403 3.6754129807927427
As 5.706988453593104 7.409000871895868 3.199945478813195
As 3.6455999599546454 4.066710069768524 4.339829973748325
As 9.140182880853507 7.869648418414424 5.720879550919864
As 9.36566671851546 3.9407615845985267 4.459712867193286
As 3.9111019223188057 8.07001659101451 4.782263974032963
As 7.897519530991665 5.759838995528937 5.452607978055766
As 3.6046808247259943 4.311965370855875 6.820734788148505
As 2.547229552758454 6.036784353535281 5.343107886701394
As 8.029438629193978 2.470057664891208 5.983191836148478
As 5.720092622633532 7.854238397375601 6.475341480859694
As 7.977274628124752 4.451826910448393 7.535623211429842
As 6.5399819906170045 9.877589437419585 7.880558140579045
As 8.544769896822242 8.599767940997559 8.10815798579234
As 5.639420403778946 4.332270964893706 8.309674008653793
As 6.611494284083305 8.466487468723438 10.032652317809534
As 4.373824159014129 8.157841189903223 8.94561780379848
As 5.425120435002124 6.226338865054228 9.906159231257922
