23
Energy = -103.14932116 eV
As 12.346161654624446 11.087315132591081 8.234321621198236
As 11.433119604424355 8.684590870459887 7.672184532292109
As 10.25019894835653 10.124224992701224 9.292990689969223
As 10.976553348776788 6.104346066014123 7.91291694934336
As 10.345912729496032 9.120509407302558 5.487031786985657
As 11.046664217201695 11.730849394779074 6.302528153643243
As 8.981605328657098 11.61874398403377 7.713423173446069
As 8.507946291907118 6.254027438017961 7.841016696751486
As 7.182697449787535 8.736655502919414 9.090751316842674
As 8.141695420216454 10.248126837617926 5.859026111179026
As 9.890311066841358 6.435442643535919 5.786679949935666
As 7.889567289522272 3.8305372963078144 7.540545534822434
As 6.492830865752103 8.583667788582824 6.714947809027964
As 5.564070163989869 10.733154271233742 9.441419417105129
As 6.069473822725965 3.659995586701437 9.193332750315419
As 4.685988272403142 10.278995931488273 7.17414944192891
As 6.685931074065505 4.429027584478183 5.4578807316316675
As 4.6750837280457285 5.645864204006205 6.184090015467962
As 4.460559529401378 5.438216703210116 8.638674950647442
As 4.529272269821202 3.2017164531915543 5.676100143730647
As 3.648610781726524 9.156492956909876 9.13258510770577
As 5.239805205576682 7.403664350888714 9.93879656810538
As 4.932108679780767 2.0174748400521234 7.793433941004618
