24
Energy = -107.53390732 eV
As 12.472914139305388 7.947763182314229 5.509681142915097
As 11.087516372335454 6.55390770007818 3.9955652704216487
As 11.083892365975494 9.809904241679872 6.3229180501823885
As 8.773788982029176 9.480709077313954 5.491013635086945
As 8.811758993909148 7.542312950033179 3.933632955779699
As 5.731598442509498 7.1487490574480725 2.5527952932805165
As 11.534992929276953 7.782327841765322 7.78174142054765
As 3.2482204426859465 6.775069781047003 2.7940481473935037
As 9.266711523666249 5.560219094959113 5.352275908983719
As 4.437604125282797 8.327408519035401 4.260933563854141
As 8.174967964120345 8.573171087401997 7.701228060824277
As 6.194859437224248 4.8682965141336325 3.510321378597036
As 9.450140911413794 6.449965864616421 7.66128219193241
As 4.2221840994798585 7.046531774567489 6.360520682096791
As 5.693329055083021 8.482460424403895 7.793597691558488
As 5.139047582499023 4.842145467564007 5.730371083485601
As 3.741378940596499 4.4405049089485775 3.7418161529222145
As 6.019461561496415 7.7801372904280806 10.182422833443807
As 6.0806881242883355 5.329776547373404 10.576232471602996
As 4.138034293834497 5.2696977768118165 9.033604369529902
As 2.757610219125223 2.5835813516495887 7.096711921956023
As 1.022676887490755 3.7057881293027926 8.034341400358256
As 4.038533787284539 6.619428369253378 11.110954145269684
As 2.931305342154676 3.13335957093863 9.525206751044378
