23
Energy = -102.65677383 eV
As 12.747823478390327 10.491936020623209 7.123308748088002
As 11.5749931736628 8.355063594299898 7.324149539040483
As 10.94580922917123 12.133746171470605 7.063760943972211
As 10.134252683014454 9.02672757026194 9.204573278371173
As 9.669699424165781 5.606608972139355 8.606848430517994
As 10.049390504101424 8.721641313494828 5.444038054234013
As 8.167743264769099 7.556949849382868 8.75598975701078
As 8.829777310732473 3.4701505372966173 9.451330869769588
As 9.099335106673204 11.122064081917706 8.392101045343832
As 9.07293224957303 10.945204782477912 5.929639827807464
As 8.21999717716799 7.221238586072725 6.2585207554590525
As 7.4494383049398705 1.8915957629459106 8.132069084729341
As 6.6562862750614045 2.7421692525449073 10.349536788539051
As 5.4726617990417035 9.731276598555901 7.443675134863381
As 6.405545413376879 8.766668605865629 5.378282938936948
As 5.953049437453968 5.369054684458955 7.749016594135032
As 5.495131365209996 3.0695948571263276 6.981895773702413
As 4.6687654695658525 3.8467047102039222 9.194846978431523
As 4.706184257153861 7.119528730357318 4.703126007586843
As 3.774041699262615 8.15984819603061 8.29023954524846
As 2.9917903546794813 8.84753831371649 4.544373727697771
As 3.793180102564498 6.183079505200964 6.800051801799603
As 3.0899118800623424 9.970156487504088 6.7290427869485825
