25
Energy = -111.36666353 eV
As 6.499210448566692 2.876201957279271 0.9458571532672967
As 4.328779856914272 5.482483882153454 1.8754899975173644
As 7.884068753008428 4.500839437113844 2.3811226406897323
As 6.181968260578318 8.280843234337873 2.729641158061417
As 2.512063077703452 6.518109552746068 3.157226953957841
As 5.994874109058339 9.695514161183969 4.815818005896674
As 3.642284161442611 8.664295871438293 2.5164882251008613
As 5.782452368628322 1.5409519609624904 2.96895888336137
As 7.870221696714637 2.488902002838416 3.8860673564810564
As 4.187593018727567 3.04541310469768 1.7797928754389893
As 6.1992040356343345 5.9348477948197145 3.629202077879965
As 3.8795323299805986 6.774047410968281 5.284105281588755
As 5.915380590788991 1.523937485642827 7.237933967730026
As 7.819018799154701 6.422942114625169 5.745329491524404
As 6.6884248218338005 8.3108262017827 6.822061472044995
As 3.8363829698298786 2.6466950068910706 8.163102202564895
As 7.798199903405085 2.903233568852094 6.370319528906162
As 3.548199154530226 9.24652388661098 4.980560598898891
As 6.242467025164433 4.786183602192802 6.6725046743919485
As 5.8962763883438525 2.541331623320192 9.524812372029423
As 2.5504821770107404 6.8405672135472235 7.366648018970226
As 6.959422914728845 4.834346970384863 9.033498984858202
As 4.602386951344553 8.042527167932535 8.263579657083238
As 3.0783229596315205 4.903617599652404 8.88903575418219
As 5.024399767547852 6.116433728297238 9.882459207845526
