29
Energy = -130.25338716 eV
As 12.777299064379838 4.433476070615303 4.489974010195638
As 11.0484271102331 4.836284886680162 6.312835278691571
As 10.765584638092143 8.474437278916765 4.5202774143356015
As 10.839034954096835 5.964918360893688 4.161910633604581
As 10.842484056232374 2.882106062660918 4.848001670606133
As 10.35659867918038 8.910280204516928 6.933891114523998
As 7.820054404435923 5.6244560270465955 4.244026188347372
As 8.472671801566314 8.06052911147875 3.563846979290755
As 6.947315944053571 9.080919617120061 5.219085008604912
As 7.361349142827289 2.7461744920932287 5.4758378777356675
As 8.007169215904186 8.209006027453956 7.261094039264837
As 7.853268680019125 11.372973864911545 5.179669999022839
As 7.7567367374228375 4.9592832872882875 6.584153402161738
As 4.12840229927063 6.573393118114931 4.968137664224926
As 8.734126080891684 3.348509500646788 3.4704294672564666
As 10.032476670659314 11.279577558791182 6.4091562329356675
As 7.238168928912971 10.024802569030435 8.7778801726314
As 5.40336259872912 5.4113473660813804 3.2849474737951816
As 8.879849145049876 11.869166315454555 8.544802003512718
As 5.036503397599793 3.3122817444218713 4.548606741683094
As 4.733005738810782 4.81183299962727 6.5290956624511765
As 6.683025451855552 11.958262754949462 7.309005635109495
As 2.324216641046269 4.62657470930251 7.344635883579333
As 2.8198516277641508 5.973628654379538 9.362331058388486
As 2.6179214549158134 3.55177587712393 9.568875123839902
As 0.5155982383945725 6.81518720028224 9.741520715120622
As 12.777299064379834 5.099014634169015 8.7994095732339
As 0.18403009719481123 3.2208648419044534 9.91364203615425
As 13.189189423643315 5.172443715712688 11.236429791364863
