37
Energy = -164.9797521 eV
As 6.2965098596013895 7.784147289242844 3.2651869342887005
As 5.560814830801737 9.52725001748987 1.6500792916014246
As 11.225527664507508 7.238993205663025 3.7208369650169812
As 8.709351839579792 7.228756866612617 6.280128729022304
As 11.012728314433522 7.550357885099308 6.166124220259372
As 4.798337127123534 9.6339574092978 3.991767389536709
As 9.209694462664391 4.6718780135983655 5.273648985914864
As 5.917675383319924 9.766561351501501 9.685922061975788
As 8.257819555724023 9.368662579462562 8.934827072963238
As 4.992438989913361 7.980396882661516 8.226817389917814
As 8.688494571055427 6.940961439850077 8.764729085846417
As 6.434625248625821 9.758793536286749 7.271035411702126
As 9.25257507842116 6.002672003771505 2.9003816933499014
As 11.191173351897648 4.747558080141881 3.7471355190771134
As 7.990115704984831 3.117008404707449 8.485458147117598
As 10.185032452127292 3.5523553024311143 7.4792061671857635
As 6.428907195490925 4.562750941874024 7.103862447348552
As 3.1461243193573454 9.199405466972763 2.1654780319871394
As 6.022173915798854 2.295257165610602 3.94242914023418
As 4.6726914058876625 4.379407244627642 4.263800507159807
As 8.476439869934396 2.3776655774659172 4.47565884230198
As 4.983488526094181 5.913817361339177 2.274759420301697
As 2.6604679050868474 6.784593090636191 2.3824107331970983
As 0.9340850834715073 3.6271253540123327 3.500553189076235
As 3.1681808306624566 3.1008910377266306 2.5905703824707755
As 2.5522785586796237 7.094818419885102 4.863794271931614
As 2.332286815845964 5.558440077025636 8.131268406002668
As 2.106923579999233 4.40119577796637 5.7876801738499255
As 1.9215150062015163 1.4988311899237436 3.9786270796885748
As 2.7748870955361165 1.9938286017248397 6.48139928345321
As 5.110479191470222 1.2393383034382757 6.0507509674896856
As 0.24266616909211416 7.169143990325111 5.128217959698609
As 4.829731282622025 2.831189247044686 7.916665458901015
As 6.3787584192728595 6.113000955593611 9.091120960117024
As 8.899824538478429 1.5326636749899323 6.808073856278082
As 0.22846533701890154 4.444852762517251 7.536063039408829
As 0.3164569606782266 6.921220187595857 7.593276971135014
