31
Energy = -138.45786247 eV
As 2.3291647505958126 7.379918211830616 2.758266057054665
As 2.2654109826270594 6.025855160618505 4.851795204975231
As 2.835035880670233 4.960991591809311 2.674487011789168
As 5.236569402166654 4.3379777354537294 2.480384140356765
As 6.772054938752242 1.456859554788884 5.309805841301361
As 4.246324514177091 8.704214232906303 3.796545191822845
As 5.458997500679055 3.568652383557888 4.937741751597004
As 6.1360562233155935 2.4199918797247544 7.47605387645146
As 6.761326923440345 6.245472777676639 2.9471656631289997
As 4.678470529876218 6.702788822811127 5.184305118196746
As 6.398624924835639 8.576905060617028 2.665722145708801
As 8.84291327247708 5.822848754936987 1.6686149889057433
As 7.8253641598415555 4.650979392678652 4.974699980159638
As 8.371081115096855 2.7844383262465136 6.68330313366509
As 10.48495827331754 6.230353142647416 3.501037413623109
As 9.47606505462679 6.417804987750446 5.808314794868309
As 9.497955303602886 3.9718367092348217 3.179668127888063
As 6.564895020587393 9.560503402797822 6.128659066295089
As 5.105670720208987 7.917531393096608 7.330679975206963
As 8.950056447454498 8.855085973551414 5.968769579977718
As 6.833431695313333 6.333634904291555 8.119661648419129
As 6.7010597874995295 11.13716620463972 8.05621511771029
As 4.229296054244197 7.175720242622799 10.922911688447435
As 5.119248649089782 5.236472126614225 9.589886525111059
As 9.797765255953163 8.798788529188 8.289161304424047
As 8.949346238020183 11.03793732395552 9.038858732532281
As 8.09242131432656 7.736054709470192 9.755733888598117
As 6.965135273712478 9.926887842629494 10.188490282960045
As 4.212344969361552 5.644256023615063 12.910094843298333
As 6.126572237822929 7.141682722666342 12.55122262317545
As 6.2689322142259565 4.772939503489953 11.784293910270065
