30
Energy = -136.83803855 eV
As 6.281658658959817 11.76026468111789 2.474042461773423
As 4.329911190830349 10.819212766128198 3.7679678151681544
As 7.06998527662259 9.440190393602165 1.9940542864740114
As 5.13657558192443 8.506079900922812 3.291088334882957
As 6.264211464069424 11.816853718595047 4.960147980809806
As 8.901149053535297 9.611496813606896 3.6016286955470456
As 13.47106569413621 6.401901919922141 4.066099895335813
As 5.995365095441917 8.131465954008608 5.557508280223178
As 12.114224111286825 5.596858610635314 6.010181831467747
As 12.725963129735886 8.606400793519555 4.957242117577194
As 7.682084009597186 9.92183524060714 5.716003701058605
As 10.63178987217764 7.63327685209486 5.994784194629367
As 9.459347161849822 7.213844321134137 3.8265270825854616
As 7.31946888828841 6.208145428839772 4.701722641588766
As 14.1286744269885 7.058055007267781 6.3285763197507
As 8.57796401651941 4.93096453366006 6.4196018614068135
As 7.038730168902761 3.160945324650542 7.267390271336297
As 9.034186590952284 5.818104633123592 8.699936811090698
As 5.121793448334891 6.387731875270407 8.971306444435825
As 5.642438541444099 3.9710131956775627 9.122031494286203
As 7.333612594619904 7.563463450543974 9.020840275205048
As 8.02362996029125 3.6806990101733104 9.57496629251654
As 4.433804289606021 6.315626036605307 11.358613835114067
As 4.020160332769419 8.699133082168496 11.712698812530787
As 7.859359173862315 7.915839768306292 11.419974245437166
As 6.290589940234151 9.758939855485812 11.769050890879655
As 6.638151554596363 6.0273296222120365 12.409515953155255
As 4.060718378818176 8.457750868793987 14.196365383144146
As 6.348308359287015 9.532384978041238 14.25240829889391
As 6.095524919897528 7.084637248864257 14.588169377274193
