30
Energy = -136.82142763 eV
As 4.226796100293473 10.318796247726645 1.3435589180841632
As 5.513233488840674 10.203520436061146 3.485826859892469
As 5.747444299700325 7.779510268248705 3.276165163913149
As 2.54467547203387 8.501159682626673 1.6062550881165725
As 2.100204564824616 10.700699826638239 2.650121053891495
As 3.4054449726547236 7.0387157982098305 3.421267017438554
As 3.39800610218087 10.564747467425633 4.779642113068615
As 6.404429404636471 7.0928599065408475 5.5871343221032514
As 5.578673742947862 4.8262687985203705 4.913307242040398
As 2.639423839744743 8.320979900904387 5.37964056443439
As 4.551611774977528 8.042757554136747 6.955460563587771
As 6.3562882641317415 3.309493263940392 6.7629761293501245
As 4.041743419322322 4.130465904826338 6.700321986271145
As 7.350035581765054 4.883970746076832 8.409201540831614
As 5.752069588698346 5.949373122263188 9.799202481877105
As 9.460188167831516 5.945627591229725 7.440386940487152
As 9.120413556868792 7.9459648924041995 8.824428052283148
As 3.868179216397415 6.076480031802353 8.29102400343096
As 8.650926679693475 3.2682840585104005 9.778832432689681
As 11.453751675645087 8.779338484703516 8.622248438299797
As 10.989058080430281 10.892141794576986 9.768912865151629
As 10.774121825537016 4.357505627963738 8.885274376567581
As 8.888407257856219 7.061654050145499 11.172734211747954
As 9.980145331373436 4.828182028793488 11.15046059488291
As 13.399314675260216 11.369815254424635 10.207495109675463
As 12.563248673469829 7.493396474512775 10.402503241230278
As 10.666177646350707 10.275436894495607 12.173576760349693
As 11.000872533650597 7.857751671340458 12.264903395944867
As 14.243530297924213 9.199798379720626 11.06216376847782
As 13.078736315282068 10.732456391552319 12.63212731420409
