35
Energy = -156.38695698 eV
As 10.558058294572294 3.1388028644869057 5.777012827864341
As 11.241707344724091 3.1872102040978736 3.370099716239063
As 10.842983584575153 8.563651417745914 9.332942178523348
As 11.419886253377422 8.717796776384759 6.916766562750774
As 10.228699344275675 5.152471883606212 4.421509372102581
As 8.634638501906812 1.5523159261360338 5.156802595323361
As 9.323902451584216 1.6720974931531407 2.7524027861507094
As 9.851344617986124 10.349848306554014 7.868148968114338
As 9.495077834562911 6.483689319180442 9.138305666608929
As 7.964449052486867 6.455537200338564 11.151229741847287
As 9.015233556456012 8.745445060939758 6.168873665180537
As 7.785670070738784 5.124524955235486 4.180695042307754
As 7.299739039787215 2.8070533789705023 3.5400273067310875
As 7.611264984899737 7.546551884715281 7.915306552648735
As 7.350329564602813 6.142618354203132 1.9658363719617005
As 6.939547081234709 8.5293578439714 10.32508891265331
As 6.610716628835108 4.68340511086117 9.99922320969622
As 4.365902848316856 12.461031012105286 7.039255595780927
As 5.727748785948889 7.95748752883108 2.5523115030277563
As 4.899362005920915 5.6534557130126055 2.135033074624967
As 5.640212031172287 12.532025019832545 8.906869683930058
As 5.614795436182845 10.380274690400553 7.609910571752273
As 4.265661117978936 5.568664051135484 10.144083900082851
As 6.8364827048695425 5.180879723625131 7.525015795394211
As 5.496030548739458 7.806425278742086 5.056903360173244
As 4.5554222039106325 5.2601758286768145 4.625890884487247
As 4.606062389265764 7.9891854708427115 10.746397376748794
As 4.318088937008543 5.527579624232465 7.613816588597444
As 3.0223706246640414 2.9249916503286806 4.922387314271834
As 3.677746571981599 9.39358644942327 8.84500097253366
As 3.102630220619273 8.44614208162217 5.161044161399584
As 2.3092042619632123 6.199666659096945 4.2484251226085465
As 2.827836088358975 7.566231073664059 7.430968506140023
As 2.8484793007916873 3.4082659020164736 7.265565975142647
As 1.2148454695268098 4.393684015656909 5.692977890426056
