30
Energy = -136.24702829 eV
As 8.45422341067197 7.672337258368382 2.2700986456845107
As 6.75174375317968 9.53255436443274 2.5058465965944716
As 9.525456089409175 4.67233980354315 3.3052265567768973
As 9.10567919506897 9.777995769342917 3.3522991598936716
As 7.61552078159426 6.142814927173686 4.06594074938617
As 11.378657229354001 6.188523631418159 3.8208334340893657
As 13.179857244671215 4.482693308759626 4.122778018727862
As 11.993439758571654 2.331475564807974 4.4603658761761835
As 5.750009248466196 9.052320069432632 4.743054707872018
As 9.691262858245938 3.060645967907398 5.132812969586175
As 8.00804757222039 9.235091471929527 5.515191877591451
As 8.517792152492136 6.933143148773092 6.25961211977847
As 10.978333578583467 6.602982617380731 6.221441927831458
As 12.961758369047992 3.5874079969446644 6.419631601172078
As 10.655867262038715 4.330088752798722 7.0650614758799115
As 8.451417683325426 11.112171739282992 7.10792662112215
As 6.383611893005307 11.224937988440102 8.46050708414554
As 5.481525001091815 8.932200044001787 8.261197664894159
As 3.5951653068876146 9.521620344287998 9.770125679581636
As 2.4971628763323555 7.341747665875148 9.861848492187134
As 9.89113075023435 10.369776922340648 9.009305352413806
As 6.972487408071183 7.439119009483321 9.630773197744016
As 7.956745768432363 11.250864035540241 10.443545663030498
As 1.1875894211862559 7.956499855537623 11.895650436187639
As 4.0116661132097065 5.907017265362837 11.25027567843318
As 8.693452964395375 8.929092939058846 10.601121019032858
As 4.80927617970416 9.56841519155611 11.904192515684842
As 5.8827681369171225 7.35866375944256 11.86294210326356
As 2.9011648615807437 8.976949304815294 13.378381273111444
As 2.7096494075947195 6.500971557545511 13.294473777712613
