30
Energy = -134.32747355 eV
As 5.283316717072775 11.491294679030592 6.326918116743872
As 3.1692972276438995 8.769660783694775 9.347492681200828
As 3.235347883058069 10.611146625980144 5.298773363761382
As 10.99259947451636 10.429917898061351 7.397494590237121
As 6.191591982716801 8.684115748367057 4.4774675737690135
As 5.343050725716561 7.790034399101022 10.019047114895708
As 8.996178470264004 8.950047476371003 6.986337222092083
As 4.74094017225237 9.041288929231001 6.539622946326325
As 1.9863133741638745 7.107794562828352 10.470711769705048
As 4.07197098731955 6.021975782562509 11.258651018019192
As 11.671221251605004 8.969777317463242 9.331957895710216
As 5.259617761872893 10.947565537246236 3.89489873654876
As 6.91161225775901 4.682466496877367 8.788611897604108
As 9.884342471028383 7.7257664971322875 5.054776843428932
As 4.624479672781385 5.739485302251575 8.842736549414706
As 12.900603144567679 8.879734447223576 7.195108737331081
As 10.814223113650357 5.663357374847344 7.792344444462882
As 4.0060622010567135 6.264642936439317 5.097302486432202
As 6.97352644961653 5.776011446813197 6.560857128449166
As 9.320332544076575 5.366775720320373 5.778217504080841
As 6.541706070122101 3.325126983978267 6.710326813119522
As 3.2297010259592964 3.990712531445704 4.508203784142059
As 9.661896639590346 7.511645274919678 8.90701022798788
As 12.018402174508763 6.89165158727094 6.004440396055916
As 4.975319334400387 7.013428907283562 3.151299544920641
As 4.080392338811211 2.861164818727598 6.526673859553006
As 4.802445198806449 3.2611453221511386 2.7411741334012314
As 6.397273706716936 1.6248019338972748 3.7074318095192074
As 4.739901780490119 0.7600367034868537 5.364631352434016
As 4.1881473696849145 0.8592394968271789 2.931292980483729
