34
Energy = -149.57258182 eV
As 5.462152758718128 9.743631472278484 8.018105358027675
As 11.43668104777125 9.921098462772258 10.66695366017668
As 11.47429546126549 6.32398936485394 10.767599085079928
As 5.471714572027285 8.632938732926327 4.64813866743409
As 13.556895774862008 9.340228223700732 9.215552375804375
As 12.40773170989582 7.335568714224109 8.591990617812492
As 5.394764770708166 11.858956161685926 9.398614237626797
As 10.869868544067824 11.400441421090358 8.670943171188833
As 5.20306939769886 2.8767545786681943 5.771550022526438
As 7.822481140541033 6.922862050663183 7.1773709775348
As 8.454143325546521 10.807968538696912 8.42231404565225
As 7.380787052143464 13.064342763451888 8.490629225122511
As 5.708708651993812 6.256745014904272 8.36440440152245
As 3.8348351653531174 6.968431916233259 6.830106796701634
As 11.88748759928586 9.559622025421502 7.376439091947167
As 3.950392146865308 3.0822806852277447 7.9657245888972925
As 7.007810733190736 6.713978703438968 4.859663481819393
As 12.125962363453676 7.820284781352085 12.599687695094053
As 5.453257738924754 8.19011011817648 9.939793647377059
As 8.538111709058045 9.690575189930275 2.588010843042958
As 7.683111238932436 2.836092541331854 6.275597839820754
As 8.583561218016513 4.253523554933424 4.593655694868319
As 5.223346568041178 4.2817095899836035 9.589556709421487
As 9.104758672539571 4.760538049757785 6.960393745274348
As 6.962562108655261 10.523459391275349 4.345419479050454
As 2.6579331395940815 4.847695495964535 6.657212485385729
As 9.323456527396159 9.925101232010373 4.91571314423463
As 4.435088738585265 4.9934138388138445 4.875568079832024
As 9.743227651763942 8.502887959381479 12.931865666066951
As 3.337177252365281 8.722956348626795 8.80785922782759
As 7.610269910262722 11.763974956877595 10.567222356819771
As 10.483979595928613 10.81262808983796 12.751897538843066
As 9.135788418837349 7.678624461668602 3.90819164971676
As 9.75648045987732 8.060366113282878 10.392773555254358
