39
Energy = -174.58640041 eV
As 6.48295490040162 8.37069936979771 0.0181001479842986
As 10.369586570343206 8.897069898071418 0.5565995015537122
As 6.7764648009336135 10.335194705160852 1.4467251829092276
As 8.635025307807881 7.1579474543388075 0.2332227665221208
As 4.23750355203252 2.4852293821072102 2.1777872714040365
As 4.784746672911661 4.939881786148904 2.3815063046938896
As 6.187144934724216 1.4985079214454755 3.5075091436170105
As 9.08847039445352 10.083260683373645 2.312303282017494
As 2.678492320851776 6.277805503779602 2.7744524465319156
As 7.243302592720479 3.628207731446193 4.130558677772889
As 5.981321009908411 8.20807039511202 2.442013821851842
As 2.7886632316335023 1.7978849286456122 4.129914792584508
As 3.5147607083626515 8.645686819623245 2.509294957292624
As 9.498126196787522 7.645463144933341 2.5056919625809977
As 5.169819383318413 4.907501964870265 4.848092422657543
As 4.719551369066987 0.8571788946134429 5.487080596873544
As 3.7604724573621837 7.473511492250784 4.726859819635908
As 2.652474602547497 4.054322742087598 5.0780882760568105
As 8.915710385838667 2.8429075194779996 5.8067721379423105
As 9.86904326911153 5.121817398294376 6.345440855811389
As 7.725634543896546 8.536288483570674 7.195456055669216
As 5.704877796075533 9.256162730284744 5.9415939767818235
As 7.567947817821165 6.035124602114737 6.731056242671269
As 5.025238790368938 2.8709761891904444 6.928944410414382
As 2.5844173990032777 3.217567472247356 7.401984293121144
As 2.148846514816025 7.705182317242673 6.612183513987349
As 3.7618117853937383 9.272851404345918 7.557861746182073
As 8.459244799908957 2.6008010569874007 8.276176546993046
As 6.9191571861940995 8.945222491199045 9.53749250352919
As 8.815290263535214 5.066755982220773 8.660430606868198
As 4.985276476786656 5.903992434173534 8.043114464183688
As 2.561992692229758 5.5129383782413495 8.492160392953032
As 4.704873904094412 7.861450207097708 9.509579290284297
As 8.198302094546426 7.409340271506131 10.985766400715754
As 6.131143891560151 2.0304889902416905 8.986796990267964
As 5.756440663842394 4.361742919839202 9.948555496626454
As 4.333614915465614 6.647999103167149 11.81003799165553
As 6.717939257709303 5.913011539164354 11.985955524650818
As 3.4706450153479933 4.5502841613003495 10.903169653863817
