34
Energy = -147.92650255 eV
As 8.430264636579794 8.231758892685717 6.197978280857688
As 10.260460985950244 7.08509268975332 2.6008554134976194
As 8.043514849387776 9.810332255829447 2.1486391126553093
As 8.115426065677147 4.846568821779993 7.639381400849381
As 8.153805094320855 12.777976979373378 9.97150238101956
As 9.61005893111443 7.2022120142834485 10.510838323493765
As 5.904383179668666 5.802221364852219 11.114451550647756
As 8.88813174434886 7.688331141906791 12.851549494436355
As 2.7912496665628996 6.4818617749513905 8.408869858687332
As 10.80735069044144 8.986285559922829 6.038097470466178
As 6.570213116034527 8.104729711941344 11.879847393619166
As 10.403355077863148 6.173397507570432 7.729636536455454
As 6.1184063622387415 12.64299482142158 8.554262205465427
As 10.539089785269269 9.498332703402754 2.16159842595129
As 11.402361485363013 5.037873649100689 5.838259124469011
As 3.5295062561778945 4.919646119934021 6.905882199711915
As 5.793452380565042 4.016325612429019 6.616192406238942
As 4.539237198219431 9.584365637132173 10.045322673625414
As 8.71755703905975 2.429946530144845 7.482820403206132
As 3.827000193925172 7.050887663250045 10.531985315373259
As 7.71385806883328 7.372544014210696 2.6810596897563865
As 8.418711309313917 3.4986186359625395 9.703628525555645
As 7.839187567647868 10.779264544450982 11.42920218660219
As 7.25312719921519 7.2350428876430115 9.610337651633934
As 8.116568512399564 9.723231397473874 8.192444496443196
As 5.728730569969847 10.270147388600737 7.923228438081227
As 6.3429077561419165 2.3663637777096387 8.274285190100443
As 9.896655922386214 9.730249548195065 11.78186449487875
As 10.652087052822628 4.980192130614905 9.849017119790203
As 10.71672453881849 10.682222706045193 4.2936103005313955
As 8.429314981783943 12.157826098730654 7.592267316539927
As 11.715118494575247 7.140181116396183 4.611323915475949
As 3.24737333338578 11.19450580843288 10.804927810853775
As 7.050607658204563 9.093143923405671 4.307283823565655
