31
Energy = -137.00645549 eV
As 9.516095006512307 4.490234923993336 8.08412174581852
As 9.732490173689879 10.040053637653294 9.988334226281754
As 4.615625016123225 6.7650447287555 5.180513440386029
As 6.41849189663432 8.343237825155711 8.243785196592913
As 9.265363932839525 4.316642591867616 2.6427241963767742
As 14.022129809105653 6.032208283994597 4.396638243241586
As 5.183196169190466 12.75087180793988 8.572523769048837
As 8.210849145733718 5.580440821995238 4.358869460202858
As 12.657468583767372 7.480740769477178 5.785929623897478
As 10.457198352326945 3.3437575507149107 9.822560278514237
As 3.057229127692632 9.73067937455021 9.67253647318279
As 6.421464815223191 10.827886647231402 11.344119462116582
As 2.289506127204938 6.46648037761261 5.586442192343732
As 10.243862255069814 6.650304166382674 11.465468958273664
As 8.24699525012461 9.986747239226773 8.028322550285257
As 10.70678640928606 5.900581905035453 5.20215226123345
As 8.5297229802895 9.76014795242878 12.146524104218432
As 3.9241152645961814 5.691766076098948 7.252429737653168
As 8.83832106636272 3.2182264568420815 4.825697591663439
As 11.808503825230389 5.443243670797798 3.0443669959135247
As 4.9230795081510985 9.353004461289569 6.508329216631801
As 7.88452692383551 11.84118711794602 9.574955527842123
As 8.063722162158196 6.324050536915699 10.402494716827581
As 8.183993411622904 7.32665476959142 12.681555661332025
As 4.94833987090295 14.239688340853542 6.909114818492833
As 10.934166039872373 3.6488933034066817 6.251116441084867
As 5.271884662183928 8.859212224290228 10.39442472594092
As 9.128061070852587 4.4311655542888255 11.643811907860973
As 3.4756664488548004 11.141960158768182 7.732063772505245
As 3.072903032424769 8.055422684311205 7.591862423851511
As 12.771474501814339 7.824116871542915 3.336909593409677
