34
Energy = -152.16613875 eV
As 5.935692123607617 5.17763739700056 11.273426586007593
As 8.524868238378922 6.0448068158985295 7.908096774367748
As 3.939814649264735 6.049050665496566 0.8546344476159299
As 7.047034927066436 6.285159269844778 2.462328885680621
As 8.030639649379927 5.824388950731379 12.422650777045185
As 6.188157272643648 6.65704078977859 0.1447661574766149
As 10.632948084006358 7.397204764743318 7.689209698114506
As 9.594823700890336 2.1814943112701397 8.417765850216554
As 3.8719375421254845 9.895610486249153 1.0819049216770795
As 12.21272105887349 5.700844222690057 8.470864406582406
As 1.8274579168349365 6.090030384603357 3.445632134531506
As 6.0045236708601015 7.081846325409398 13.030399612466473
As 9.338665519574699 7.737194908959914 11.593165111808005
As 5.854102695643784 9.167115966905092 13.030399612466471
As 5.965451741411221 9.141760468520387 11.737674016647798
As 3.4636809355501343 4.573244669494211 4.417711710343317
As 1.1276404838454588 7.543653201097891 5.341908498035928
As 8.168910462651821 4.058206438839633 9.426875833541414
As 6.143424766556027 10.079248168931278 2.12349084333371
As 8.02081554905159 4.69782758419553 5.862926194543339
As 5.888598112820639 8.044527736622738 3.6675248034175083
As 4.8390612813734 6.128736441060756 5.826882581815983
As 9.759799563233605 2.9136286029964067 6.047329708120028
As 3.214426293755794 7.890570067890352 6.590181110006345
As 4.562400777248274 4.7871141248798414 7.9563060033670086
As 6.828643357489581 7.859109552664195 8.340872988655699
As 6.637952415413398 3.409590222335966 7.5369119877949355
As 3.5762095140765626 7.860831457818303 2.7141980792499445
As 11.325378961104798 7.410615379789288 10.064964218588786
As 7.8652362209370335 9.15090034488387 10.247231296936304
As 11.599605280959217 3.370670008177892 7.666477659783402
As 5.037489050644129 6.682102272960995 9.511819040078777
As 5.0985346978142205 4.578397425616984 2.4338945959840363
As 2.709115060047508 9.36560214677661 4.661768612303622
