38
Energy = -168.83007979 eV
As 8.168182334221434 8.838460980152005 6.482828618791396
As 3.4763670315817956 9.041644497007923 0.6798543911993099
As 5.89604400464437 8.430502300854217 1.2045035140030056
As 8.515659684729725 8.028454243355338 4.130413602546567
As 5.237821258094606 10.264842337092151 4.0537462954556185
As 6.541752755627375 7.119739982448591 7.296423001980127
As 5.204419259748459 6.3290553851451365 0.07554705368122888
As 2.781516866120384 7.991475284114126 2.8349617908930735
As 2.831152342539992 6.605853244349556 0.7918168852068013
As 9.96304366424357 7.160383868385049 5.9259203838395065
As 8.14032713705033 5.513595041870679 1.7568662258544758
As 4.26717446285813 8.006937185996037 6.7860608362684545
As 5.184007861430013 7.834332908930385 3.5446278431601415
As 9.56511958641706 4.378043399877401 3.413074648678768
As 5.181395930553245 8.1895773228854 9.105547274630139
As 8.129579014879122 5.69945518190432 5.04708810737477
As 10.094586506783378 3.8219427024312864 4.318451690980393
As 4.820854820265481 10.358962425114674 6.30668010397895
As 6.225721756052209 4.2887184887116705 1.1874340540097612
As 2.216543326428613 3.9526275574733156 3.106021776593379
As 5.6740887543629315 3.2532184394124966 3.650102446604474
As 9.178398040017951 1.4161651319640873 6.219340747744529
As 0.8443341165142606 5.781937382929749 5.635818939110534
As 3.6247747495289095 1.8635436417187654 3.4269601074503084
As 7.640457609196663 3.1802171854612338 7.00555471410392
As 3.1998045439117613 4.857284385847531 5.230583519589839
As 5.20020850312009 4.485221218027821 8.451606981577067
As 4.3431919667456675 6.020513407226326 10.190631291960047
As 2.6488482546206904 2.420251520516006 5.669846803022068
As 10.019591750240004 3.863533996506641 6.868285634512168
As 6.86884598344042 1.2284688118552844 3.322281222844597
As 9.169917274733029 1.9261358725203308 3.705614127462163
As 2.8800780584644814 5.339226276994184 8.259580484173673
As 3.185998183088972 1.4422954570865116 7.891957465013042
As 7.149004475709794 1.5109570097282266 8.8221459993809
As 1.5828730663609953 3.2207534352406673 8.683332135770678
As 6.709377238977295 1.0198890333503976 6.349230611668069
As 4.8475760838847215 2.2942532361450856 9.54772844951665
