30
Energy = -135.50362954 eV
As 4.438194088521032 6.246246393516968 8.745440902029278
As 3.0759353305473387 5.912778419940846 12.7568239613493
As 6.183924114298203 7.400140633434775 10.045234524891137
As 10.340080783918435 3.093820266992399 5.216079779811683
As 3.8755238697915346 8.032465001104585 11.77752323725465
As 9.844657344874193 6.648722895556872 3.759545075731063
As 7.975296312434201 9.910894680755803 1.8102366406459784
As 2.77441554967651 7.435357121220438 5.048979898831105
As 12.050091622517728 4.417723617977216 4.490329721111849
As 6.581356376206947 8.394326218811631 5.197305626466623
As 4.837537991120448 5.327523473350914 3.012434348563796
As 5.876591757622879 5.794015935669298 6.668444567653291
As 7.84758287280603 10.335980340043182 4.246197207312153
As 9.834375536301543 9.178836781669753 3.3307799927901196
As 9.380144186133906 4.397330532060186 7.0477627665627995
As 6.687164747348356 6.017416746103496 12.088755046289679
As 9.47057103947739 6.75375413214294 6.204891779871904
As 4.921278864451033 4.301286117024628 12.085215083185972
As 2.270762204928457 6.795151842056318 10.6180460250193
As 6.844515649318396 6.717859388366196 3.3645277546403567
As 6.884846459343009 3.4205972969355285 9.430076975862804
As 4.50487821393303 3.9510771782206158 9.694489788293563
As 6.989222615380564 3.5685754698737067 6.928409743391503
As 3.880128816328883 5.19071474362283 5.318428777479521
As 4.387800018862572 9.342733778123453 4.657623505665314
As 7.940165327966171 5.581753104293545 10.011244103787952
As 4.21781021071205 9.096434934982536 2.1642886164309205
As 2.9531297808525303 6.961903006144673 2.5384456267642994
As 11.804135060777906 6.733229455304959 5.353190359093891
As 6.346114050024672 8.05958129117637 1.407479359694684
