32
Energy = -139.13378971 eV
As 7.818327489954814 13.402683340420246 6.755437469969689
As 11.193470780991625 12.532354876720747 7.8103162114959686
As 8.833898677864816 10.831574023800663 3.8564334566349947
As 9.397119751913534 14.072769466539322 8.381385533979495
As 9.366475477208509 11.625454797383178 6.173707904877557
As 6.651731531978275 11.420743810991569 4.465457446485618
As 10.544078743716447 10.52164547537633 9.194580796134101
As 10.151501533279058 7.586705528771647 5.506335287234519
As 7.310021831907096 12.357480239761504 10.69548849149763
As 8.593387301206722 9.821955179322751 7.82345257059862
As 6.110329281766131 9.042807830320106 3.917626947160048
As 11.514544602935123 5.788868366248391 4.436084779393521
As 9.710838449869811 11.926918659808127 11.059947336237519
As 6.57511987796748 10.863933610098854 8.837948684729936
As 6.47109926745852 7.766432857094199 6.026856844899062
As 3.710258401906689 8.621697547372403 4.302343193871549
As 11.018916757725544 4.284448442198106 6.117584347546054
As 4.311028247440932 6.72368690286951 5.47902966526829
As 7.989993560149536 10.886997691714287 12.57364815401988
As 8.19380780959269 6.095840476987295 5.242483481948175
As 9.566863015257256 5.9296976502406284 7.3073211939240075
As 5.966690583531704 8.685558507882625 9.941576377048353
As 8.26255360543799 7.76312573103799 10.191687723531155
As 7.035930278662662 8.633188328131608 12.166981760990405
As 5.845808810343967 4.814735955753068 8.525266982947175
As 7.427747457311182 5.395491242932174 10.333510038061178
As 5.022349979505883 5.027328685687912 10.911656721829813
As 8.723348569035132 2.4178185072520155 8.202517946886967
As 9.05851412398087 3.8120310973324596 11.045841770261697
As 5.41503504137544 2.8229161650000805 9.901110654254046
As 9.958116198742083 0.563600925955056 7.857662767772071
As 7.707821411043693 1.9051807790317483 10.441697642308513
