38
Energy = -170.46595556 eV
As 8.971092322926925 1.666125746090142 2.910041819559116
As 9.37309980670746 4.557035835204413 5.625982178268107
As 2.1362776039432676 4.278194350627963 6.684158958566878
As 2.0563868861888155 4.919466029513081 9.122013931698184
As 7.347302752533886 6.947194449873991 7.241468764179422
As 8.98921164164468 2.081048432944552 5.398554484264147
As 4.994760793918125 6.013779262540989 7.040880051939867
As 1.9724825700641178 2.661378581549002 3.8971478046294217
As 5.103573174321353 8.897777632774867 5.906326104758567
As 3.8205146683269176 6.671721607650312 9.174063001798254
As 6.48497647048859 8.376433817316208 2.183115385194257
As 5.854994979885732 3.180439782409903 2.9487041594965135
As 0.2893877696372819 4.627806567920453 3.5739672623770105
As 2.483202054723615 8.23950318096332 0.5306387436713959
As 2.641160446370201 8.18302292305997 3.0171217553140264
As 1.7499220630528585 6.714519903291012 6.002150546236279
As 10.436954720887542 5.109030067702449 5.951628224163694
As 4.310173577079356 6.803527907679914 10.244107572988458
As 7.261917542206426 5.737533580052065 4.9738973397155055
As 3.625307339075227 1.8773507665814024 7.299078160945163
As 0.19674735794556544 1.0710117121635734 4.637395160261937
As 6.594780058442343 0.8437921733188869 2.5754295030456746
As 8.705894646272007 4.850927406943411 8.042752022243514
As 2.2978140360783543 5.7518961624323115 0.7310584336958469
As 0.6545871199267832 1.290008173045338 2.2423249066379123
As 6.572644178196252 2.299672559137296 5.490362909532953
As 4.696234204187794 9.465604988846563 3.5438248556660126
As 5.5648758662743125 6.143419216426995 1.6990905206155469
As 9.373099806707458 2.6172913358037078 3.265213717057308
As 5.9897350097347415 0.01706598621128993 4.8997473592984235
As 8.22736732333029 7.779334943646599 3.8358645690112962
As 1.5342969283752725 7.275497929855112 8.436402134468299
As 3.5761120640956467 0.6802812728041436 5.266371181464744
As 6.3601072433167225 4.396046776976432 8.666377675341558
As 7.984843842995697 3.850664538947511 2.1726392558600494
As 7.477776639894874 9.148142302640933 5.818786586757043
As 6.060038487576591 2.0525658663655415 7.872329481040576
As 3.442630299860181 5.848722135061217 3.0156778870247916
