37
Energy = -166.08767329 eV
As 4.025900028775284 5.077956122076347 9.231967134217838
As 6.466266155630016 8.299794179034443 6.583006117192667
As 5.765304720785969 9.911621631763062 4.763098275519272
As 4.181266364252817 7.963125958097389 7.517195370917064
As 3.5420016572004793 9.88285890633445 5.925144664296947
As 9.088557805569405 7.438774220843306 4.560585986288387
As 5.008863697705118 3.5717710381803585 10.963147417873605
As 7.6614253831948185 6.155202348197887 6.124006553393655
As 1.982858756330277 3.683349090659032 9.479798939746757
As 5.851821431918693 3.5350551828224823 8.585101798773264
As 5.02157860652515 6.834239046434432 2.8538165900631194
As 8.81823502167165 7.337049362192548 2.083731358281358
As 5.232904432362537 9.281860683440343 2.430236792226434
As 10.280101552643764 5.692481803225841 3.3133534809642864
As 2.201337819081575 8.14395502098273 4.756642876301727
As 3.501398699672034 6.25166578329916 5.7674878135009635
As 1.2305584163090277 5.1293804413035335 6.1584768283130185
As 6.473737951614015 4.708224775376034 4.453071304017974
As 2.993306409457653 8.202730456259689 2.3992719624985344
As 6.572538361868654 2.4348288025443092 5.61934271317471
As 1.297646726857381 2.870612784757626 7.2564545684454025
As 8.389004239393545 3.9834198113874595 3.002124561480023
As 4.781162795991956 1.2945205286151185 8.462798209755663
As 3.2865022505340824 1.774762172473465 10.387782665193676
As 2.0934954830702126 4.377203161639571 3.891773828995459
As 7.837567920901315 5.312263153104857 0.9506862388750443
As 4.408480075334852 3.7337453151736675 2.0345733808214708
As 5.375541796770571 5.652089897565554 0.671765446539048
As 0.8263486281839534 5.464831849250034 1.9864887412263796
As 4.230216003381716 2.2483396839796943 4.8133533630833805
As 3.049887875939598 1.1274626628376987 6.715073874839967
As 2.181964576012857 3.8282668102139983 0.7237018435481954
As 6.431843384476833 0.16103622396029454 2.3386646043895745
As 0.5533638530446039 3.054288961663314 2.436792764353069
As 4.728661035665684 1.4660355166131929 1.0246344539133923
As 4.125192289038742 0.3110884795034246 3.191461863445221
As 7.912631063538954 1.2135814048992704 3.9528588842385375
