39
Energy = -172.20487709 eV
As 9.471286716653157 3.5300730908489264 9.316604270974
As 6.424308524606386 2.602346248185214 6.694074766592684
As 9.259027968825448 4.37929066318636 11.630725461171771
As 6.755251032964348 4.682191026501152 11.778531472941374
As 8.309459001139881 2.2788527643380787 5.1193433487059306
As 10.130738291726956 6.787701847666599 11.825013772736714
As 11.302902024544078 5.063915280675075 8.682597676606745
As 10.761859990036474 7.342050557145616 9.508260306065441
As 5.985479055611067 3.0090220270458894 10.239410690339815
As 7.121100116554495 4.1869555171508255 8.50201354645232
As 11.84806938378572 4.0729130797282425 4.863382558431791
As 9.481807051214483 4.437391278161546 4.780871674586377
As 6.91598986587203 6.751907623712578 10.321817868983594
As 8.401994871869773 9.705270811507427 9.98833108535603
As 6.677270816556955 3.2682194601712826 3.297906758440842
As 5.618362875161514 4.477183122345622 5.229264145010285
As 10.932190825422097 5.812666985844873 6.279938600834574
As 8.505751639129372 7.64177258540839 8.54115690002174
As 8.037739569206153 8.195446638131116 12.008030461965049
As 4.244876419473 11.370076311604713 4.126063047349698
As 2.4480363272570456 7.835771127708167 4.036247022766204
As 3.609671786832621 10.481649307756445 6.30353629630248
As 2.9247996268009206 7.850967836517237 8.769660966551946
As 3.309440864633165 6.853106844778623 1.9289154460301026
As 5.7625112923585275 11.227071534268703 7.593839659362666
As 6.11121742744034 9.889784213083459 4.251697709422748
As 7.242762738816499 12.857354174653882 6.627303554908867
As 1.9444582970121327 5.804145594641926 5.439266375475916
As 4.461688091243859 8.264176635693255 5.4486092152166
As 7.324269356144227 8.918140241400483 2.313455556212864
As 5.811606000234886 7.093804206905265 1.5209317051488138
As 3.764558716478406 6.297193340090211 7.092367111075947
As 5.935253405511583 10.197409075727355 9.933322324398995
As 3.7078566029900135 4.4729123582702695 2.1878897478690864
As 3.2672295633686503 3.904048108998824 4.49892835620531
As 6.926560334799941 6.8125659442559705 3.6919023811808245
As 7.725077048011026 10.544741947861791 6.319457354720608
As 5.314542593770062 8.090913559283482 8.791190193032168
As 8.30394461381097 5.08994775661321 2.5990913384188095
