33
Energy = -147.90771703 eV
As 11.742195133167302 7.35999478163567 7.766087002770505
As 10.008951088684901 8.08616819822337 9.44067202356183
As 10.839506713675547 5.036760706401903 8.208804622976395
As 10.617762819651551 7.460164782558151 5.467082488796567
As 9.22561819334 9.494641398264898 5.991248927208603
As 7.819115029258067 5.698968361354647 11.101567934011763
As 8.65099278841821 6.1223496395655745 8.789253217069207
As 8.54698907729136 9.807960475382117 8.376647770641513
As 10.035186318062989 5.056271505288667 5.802742081786373
As 7.525544590548416 5.448337271468296 5.859878112180396
As 6.523793469599331 7.82842466450133 10.978815061260844
As 8.999419243496888 6.065425352126459 2.8708658257965385
As 6.448388972642807 3.91087309798486 7.525849819629398
As 6.920148809027869 9.822934488606487 5.163428803247378
As 6.550554687579012 8.281695755666197 8.483721920358375
As 5.357468957337037 5.680395455369888 10.742771906265881
As 7.635840580097743 4.203394814327465 3.681649282335036
As 4.570743226801415 9.770918483703628 8.707661262691738
As 4.645135409268022 5.648241023585665 8.210117911109903
As 7.54308121825691 7.469157775955504 1.573618612215151
As 6.793944051745354 9.675926928221088 2.7021786148852978
As 2.907475464300056 4.035549292952389 9.005786618585216
As 5.221820857957278 2.4818450666371086 6.008476503597371
As 5.479590926623835 7.783541015523285 5.422578995968364
As 3.057435241772483 7.813520027491868 8.544086049663454
As 3.575572717358989 9.104726124837931 6.532202358308353
As 5.499869494608903 4.386683515101163 2.497303975524599
As 3.1690756890084715 2.164338047671137 7.4077771598721895
As 4.559770204871594 8.562853584568817 3.1940757128346378
As 5.19072682939243 6.695145758797312 1.6310001143866744
As 3.3193695831454684 5.670115477792285 5.699261816977833
As 3.8453865971137535 3.783473091944493 4.319761259648365
As 1.6997894162282394 4.1154674368222475 6.819289634166815
