37
Energy = -164.6820669 eV
As 7.447581660751134 4.482695573699846 0.3868461473176993
As 5.842026878785178 6.425241064836872 0.09356157235251149
As 6.3711550262161465 8.39898697337212 1.584858264294265
As 5.7480496253673525 3.034536103436237 1.6238394429212466
As 4.144691874728021 4.691201559098634 0.7107026611508398
As 8.708250669488622 4.443210007086095 2.6043835675079183
As 9.089228020855703 6.820818215978151 3.3451994211677962
As 2.4527829148145264 7.595792825978816 0.6855118173286271
As 6.566664415102283 3.9957957139791582 3.8057602199843266
As 6.678714278325789 7.2137460195651135 3.7790127139677168
As 4.086007788934291 7.995777242946128 2.4937526211627055
As 2.00430712336327 5.449843561911219 1.8825857053356834
As 3.5307422291222106 9.6973197526506 5.216463872013391
As 7.226205252925548 1.8339576364817904 4.922527295649767
As 9.749224810208288 5.619873083156222 5.37242803709072
As 2.083102498494788 9.4393762216664 2.306789520124016
As 6.8300443270963855 9.428854793623087 4.928538583861732
As 4.691273924538631 0.06961727162740826 7.351545710717722
As 7.106214424487937 3.283977109849347 7.01002505389919
As 4.75589630530821 1.7614176877328558 5.529772800879875
As 9.12605684419347 4.2219427301968215 8.127830743233325
As 2.243101794801326 0.3897442495512774 7.212711651455426
As 0.995958689520083 8.311669161495306 4.322499522753059
As 1.8658491554162004 5.989616049573818 4.309982885815884
As 8.665846214728212 6.560242784702025 7.3657080813336915
As 6.139929118905807 6.344852150342953 7.034802264290292
As 3.5359771426196738 4.348884695303392 6.62287676161696
As 4.457581440817918 9.6973197526506 5.656892928281414
As 2.916815369595105 7.72373022249792 5.842832629243805
As 6.195474541931916 8.903516911447992 7.2648765870997405
As 6.734380254397727 2.0520004438153587 9.114878715547261
As 1.583861205744029 2.8320372788439103 7.096159475249142
As 7.614712990438491 4.131148111134268 10.092316236053614
As 2.6230996935188053 5.816018913784403 8.417859265757466
As 5.527050553932122 5.728303267682103 9.420233360333476
As 4.491882939544961 3.5172555969918946 8.829252174670996
As 1.9858050003688708 3.659255424943686 9.449728687926607
