30
Energy = -136.33969876 eV
As 10.065969626949279 8.591724702984168 0.9788326325300387
As 8.928535066579117 7.009378400416121 2.5348102185754247
As 8.475905084322244 10.436275363106672 0.5143171378697505
As 10.303130486947232 10.723684006414796 2.2263873104212757
As 6.591881325831741 7.758252375693297 2.0651850464367203
As 6.439154064227192 3.873052219919432 4.234874375851061
As 8.43491255770459 4.914568542523071 5.283057746557405
As 9.41962178624679 8.218487537164798 4.595979890522848
As 6.810762347327845 10.179709830394426 2.3640623347467176
As 4.552729289036378 5.4381645716845055 4.674346935189509
As 7.216437004276386 3.107306100365964 6.5178127925809655
As 8.629013952761982 10.469250317576842 4.072706282613661
As 5.4685930828218074 7.7008980853273865 4.251320783766358
As 7.424389994768359 7.170569651160677 5.827359948499678
As 5.337643311539829 5.902812723188637 7.0280183218803876
As 3.8266689035131334 7.638503922208731 7.845986754183919
As 5.543579880590315 9.454452342729583 8.368542605440586
As 5.700297342050612 3.9279624848529555 8.239527170580947
As 7.813770614948365 8.622549778469011 7.962074168497583
As 4.585070682225893 8.076545051881256 10.173837319863308
As 8.30167485660893 6.758108398896745 9.517405815073374
As 6.1737269273881505 6.2706759251189235 10.774582519279026
As 9.55512763650907 8.357424262382384 10.968086027157971
As 7.6907943870924695 9.453351627415415 12.140492430271777
As 6.463820052959551 7.497029775186029 12.947139226993167
As 10.306647317148013 6.7416632670817505 12.64037728183784
As 8.247735985314872 6.151179531518643 13.93599457921459
As 8.88142420330804 9.9892659990663 14.251888296656094
As 10.873562446840435 8.512370595370589 14.309211080949872
As 8.799984627976302 7.9173474557156345 15.618347811772137
