39
Energy = -174.81786069 eV
As 7.356833967498334 7.902450049375976 2.187317082717573
As 6.690453803577834 5.5690731415575945 1.4279981509137878
As 9.71684451220581 7.422998150983512 2.7517806915099863
As 8.70850902451183 4.138571112657011 1.7363606989474896
As 9.736189617980278 5.130101067334171 3.7910797868871535
As 5.3178131750852975 3.2670519242044134 2.9339312021584
As 6.325918574840624 6.256600748680872 3.7762321233045997
As 7.655084989546086 11.157411631591392 4.043429744580474
As 3.151674309512397 3.929583701957052 4.104654580531323
As 7.965578550230621 5.160396840591392 5.481213820116371
As 5.967009685282225 0.8633709162723057 2.808866302058329
As 10.551627574859015 8.461092650481186 4.872903715737281
As 8.240772978005877 1.8861274521134455 2.8944987915328726
As 9.905874677531113 10.87588876127676 5.021917906987466
As 6.188017619254288 12.015206542356564 5.838552274554356
As 3.818844689035217 6.347413435370564 4.215702680424802
As 5.874841718073096 9.680421394749875 4.931179140844241
As 4.248766508790862 4.852085357518923 6.1510804565791375
As 6.587463620636666 8.085656858062395 6.70228507405584
As 6.719023069667639 2.3725066366732515 4.741930739250063
As 2.195175303094809 5.539328096352826 7.392124895757532
As 3.099536723119532 7.591883690298182 8.394617937312931
As 9.12057042622312 7.723825965850483 6.733769137886155
As 4.5859437746461476 2.7548753560352397 9.402320217482753
As 9.71784679899815 11.286016845354197 7.517881311234824
As 9.886297994987107 5.547108770866498 7.472508251860086
As 2.3192977343285652 3.749143709979516 9.144306650464538
As 9.03146730474802 8.070896803986178 10.361993888417526
As 7.33815069211504 11.747951324201482 8.019336656376577
As 5.912694968824381 9.757368593079843 8.398953954014143
As 5.224526100932913 6.563410246164489 9.556526635922275
As 6.618418382661643 4.3763645454602775 9.331974152426026
As 10.318815441866432 9.043599474452298 8.426252846955114
As 2.0859625637941637 7.537595378397837 10.563201297367844
As 1.9957190551693538 5.142434864800566 11.155306029162894
As 5.600457746717636 3.6996100922368482 11.420614793656378
As 9.155865973730883 5.670994526477324 9.755948340879609
As 6.544596537172212 8.546713148921382 10.465836748316276
As 4.216202891685899 5.971559274216036 11.768300371754306
