30
Energy = -137.33297057 eV
As 6.968570341780125 9.192307241651829 0.4582765717942199
As 5.104756281062908 7.578017013804966 0.15731731104759225
As 4.594563307214533 9.849953644095109 1.023984874888319
As 7.483805275881343 8.996272025463206 2.891506753095351
As 5.156687224606904 6.082260926011682 2.1383935381169454
As 5.129860636830307 9.650892972359284 3.4533343552357154
As 7.465349829421931 6.553805487808721 2.8343596932467574
As 3.9072805299770925 7.545286008392108 3.668718342025998
As 7.23895423674358 6.202252176144564 5.277298408093518
As 7.289077427957513 3.755990373924414 5.133810115678151
As 4.875516127404837 6.817798054913807 5.844031194497769
As 4.950110463553328 3.029524556405523 4.565529367795656
As 3.565476177659774 4.722590777520367 5.649260505806019
As 6.839811580524277 3.2451457356217936 7.539678561177581
As 6.677390003385011 5.487491929817894 8.594878171562858
As 9.155794409919018 5.736539942905801 8.861322472493324
As 8.814678353452388 8.156901489594924 9.083259935504179
As 4.401146500650188 2.8856741059079005 7.0592407624540625
As 10.996738273687644 8.866718493752169 10.012233769368864
As 10.465545248482123 11.245545889537885 9.79889319796534
As 9.08864421233367 4.818101393657954 11.204781578533243
As 6.627774374564062 4.367300343599959 10.864109201830338
As 12.248429205264163 11.985218222946862 11.379407452499413
As 7.162055426066371 8.311528946861754 10.967935059883457
As 10.634709598849179 8.504267047371647 12.419559907947182
As 7.407905776797834 6.227415498834131 12.296846088785832
As 8.716212893895626 11.672450638762577 11.543609712726985
As 11.970583866468978 10.412313478594278 13.277262986790161
As 8.425524960578752 9.543722068529414 12.712542985664609
As 10.488497644379388 12.40816370460068 13.14006731288199
