32
Energy = -143.86850349 eV
As 12.166841402813462 3.1189427066360125 6.947671769843702
As 11.43902593656845 5.435696713873184 7.594946673360451
As 9.533702765568243 4.646599126837146 8.94056719770077
As 11.308655185279944 3.4886247695440438 4.602053099490772
As 10.823656609152287 5.880356539004531 5.199901218695135
As 10.030332612472996 2.1181257729265233 6.220026915619861
As 8.580148526990405 6.938119564263194 8.924026887730761
As 8.487672781283443 9.532120935903473 6.328556712219475
As 8.298538923637043 3.7470908692014513 7.00671529838617
As 9.086892534353462 9.516451583875583 3.931471244054213
As 7.339223639587666 7.307113367579527 6.7026452393034655
As 8.361285509225253 5.820314340866735 4.876535009291636
As 6.511168174061695 6.650434375241728 10.31751866185566
As 7.217435938127496 10.963126378771525 4.678094707722773
As 8.066297509734103 7.480832522951912 2.9603985986648405
As 5.660794666670076 8.588883376144661 8.975088718766104
As 5.277199237423268 2.860731742711695 9.541657855613531
As 5.780889917090133 7.527365237946591 3.962016217023345
As 5.16278456118832 10.93177223709322 9.81874211407949
As 3.1960020237073654 8.107724598463056 9.100874958540265
As 6.880036477124223 1.888150992714266 7.934629248417443
As 4.790863753222844 5.28664518503749 9.110207277232956
As 5.1020439698160285 9.922694833368492 3.880951524056799
As 5.263719669114754 5.028337130783216 6.664884593409611
As 2.761550785794026 10.603193870559288 9.302164919535464
As 4.7958911774365225 9.300263532603026 6.3099351064185765
As 4.634345926904684 2.581400438022187 7.139167923784848
As 4.214049277334783 6.667344852116178 2.2513980298557836
As 4.250402660640811 11.4739022573588 7.527705209814583
As 2.902313557111565 5.77003049811585 6.103928042602805
As 2.5933008012044763 8.185274520052921 6.671088616189579
As 2.6135835507417324 5.762985190814199 3.60508047210074
