35
Energy = -153.28636028 eV
As 4.751787504694258 5.856484123639694 5.565613527770784
As 10.937589731264213 6.390891298939474 9.571381717969341
As 7.834728223716605 2.461090954681678 6.796733843536695
As 2.086221127266441 8.39504739644442 3.9053963336258493
As 7.686835335301364 12.357243053796756 9.256929453583325
As 13.92888990891149 8.492570839315965 9.806134259067282
As 5.218758200043561 10.588461750916283 10.07824319480695
As 9.796136600414666 2.685981400123127 10.177045558321202
As 12.26086104204487 10.207152839477617 10.650296430801925
As 3.3359368547675654 6.492956854295756 9.255011338276354
As 10.089686564408565 6.481371695090203 3.758797357207025
As 4.095768586916796 11.97175138455483 3.0856710477138702
As 11.826542020590079 6.9975961161628915 6.5881701618862065
As 10.340907028921789 4.574050385407431 5.311348306118441
As 11.314952707779591 10.519302258786565 8.327433023382662
As 9.349822389075406 11.512762474603816 10.898565506000201
As 6.982767306690102 9.981888678850426 8.54741148681735
As 5.2341838990302705 9.750054638624787 6.696720535951433
As 9.250195126708258 3.9899291348312533 8.108163393488146
As 10.182501884340878 8.390481410811406 5.361716257220525
As 2.383369175868678 6.66824392086934 5.55284202730088
As 7.827248505031372 4.151825271531863 10.174080826206493
As 13.086269280878238 8.963742275290976 7.497868797473343
As 3.626590166782576 10.16465810370358 4.197293449225693
As 12.867828022976841 6.543043868329595 10.835297678889747
As 3.060591723833792 9.918028499585562 7.998578255368587
As 9.90824324444637 4.894669048683693 11.312910249235822
As 8.184397863913928 3.6774678758726185 4.8295213395612056
As 6.969409579926707 11.730115871422388 11.553437939128976
As 3.430115738324475 8.845580069698505 10.228233411524362
As 10.091484962102014 9.192291404209383 10.023671877436103
As 1.845199374944667 7.713863864854949 7.717974477142037
As 6.321714601933423 7.529422977949479 6.479607798002262
As 12.23271590692296 7.6790993287653135 4.203177207731041
As 5.354444054534266 5.7815073627207845 7.965718977478852
