36
Energy = -160.79360401 eV
As 3.8145409191126536 7.242858277292176 11.044037995498432
As 2.5800371522190244 9.57252220420687 8.129130960074553
As 3.281234766824833 7.576342092940303 6.7837656434204225
As 3.9938572426297423 3.207643478681882 4.621180449774027
As 6.049057298797295 1.8390944196028234 4.277385523180415
As 4.529765096851395 10.310635502814415 9.44165860438744
As 9.385442598441818 11.568953804824996 6.917403466224719
As 12.062175976018594 3.5869563488317486 7.477917042655546
As 8.299330036750295 10.589202771914843 4.906319551192997
As 9.748259927881646 8.467574325930006 5.099895088158082
As 3.3195667818594874 5.054688076222373 9.963784548797166
As 1.691475174254457 8.075263019548531 9.917100765468772
As 7.401917717536573 5.359826155071362 5.189140345450489
As 10.103945322782408 5.047294248278402 6.961011410908757
As 9.638075169890069 7.872529323438523 7.453473659308998
As 3.7758890036143993 7.48997694419037 3.3081588438284375
As 11.633134503807224 4.3753518618318346 5.171036877317068
As 5.942479293531846 8.546734745710861 2.8101987235133126
As 11.142088355192449 9.677408562458979 6.787695202744495
As 5.8415267903182935 11.671636713845823 7.826035988066823
As 6.199008179214254 4.996125658701085 1.9250176206302272
As 5.752759046363329 8.16493521091666 9.751871896068195
As 4.67636778265188 7.28205676359703 1.0926620002044491
As 5.220340095581024 4.765097542220116 8.37653520514856
As 8.019873108572456 2.2693529382707287 8.019652977912797
As 7.129833626962555 3.790663310110397 9.544196790399681
As 7.7794387760030155 3.5054508038238947 3.6620777496228225
As 10.314932319708433 2.511416228517246 6.144592210138583
As 5.110243602159391 5.391032911562845 4.114158139908248
As 7.704658860696588 6.689939901301747 3.008432942690478
As 1.8224784844447925 6.119673555417685 8.279093060102126
As 7.8440531449592905 10.186314997058174 8.331323968725242
As 6.087992680278711 1.3920960711234045 6.786267476772836
As 5.6248033485513895 7.1954813229814025 7.467793510035256
As 4.136087462217109 2.8942457985672827 7.127778839968423
As 6.3899240702864235 9.760217825159147 6.3288086386670885
