39
Energy = -173.10841559 eV
As 8.37181838482652 6.296596711511316 2.368613254288947
As 6.130751225678842 7.382483045417787 2.5531117189683283
As 8.591964093909727 11.006972913451824 3.2909460425791335
As 10.58626812872509 9.49180914456902 2.9561023203021692
As 6.778044226948037 9.764560874150284 2.035890701568485
As 9.461091435591879 7.6534826358492065 4.118436574964597
As 3.1142880869096645 10.02553566865968 3.3684266679732713
As 3.195368852747155 7.912417826858471 4.315453036699783
As 8.311493511497469 4.532228599112484 4.1550420256013965
As 9.491872402428674 9.08954160200367 6.5008924619096335
As 7.559601793932023 10.35059068462152 5.5133941223193075
As 6.079454399949924 3.486311761883059 4.375011028573091
As 5.520230975627415 7.489339298253123 4.996932809485537
As 11.34391636503178 10.163559353382222 5.256393263394831
As 11.416586552456197 6.235245945399703 4.757435326552986
As 5.232765313903964 11.138507251874586 3.3265502811055176
As 12.569205909754562 8.082726854457949 6.083298216568704
As 8.01372676041304 5.891896733147885 6.242897167819645
As 4.633969530433362 5.162694499583752 5.475827643928728
As 6.4120118068496135 4.0352541861142095 6.866688809681269
As 2.8581776858854515 5.876058579980726 10.256151085516521
As 3.9370216366436157 7.137854371028151 8.399319665811234
As 3.065527863882781 8.358952008370148 10.391013565071603
As 10.359871784673574 5.267071915714619 6.886439484604512
As 8.018816061219901 11.664287096811035 7.7343500971110055
As 11.490341983563596 7.120878863928162 8.192342796052037
As 10.295676900279894 10.718174004381487 8.276044885301761
As 7.243390597073219 4.733166873666899 10.022627677114837
As 3.1873208455360786 2.4595197734376306 11.136755977612609
As 5.341903233274683 6.177152029542574 10.231466196686668
As 6.453905909857181 9.854264437340577 8.459779264054397
As 5.158275847849757 8.131794319068925 11.77405845283969
As 7.853471289777273 7.970689084397509 9.297909623714512
As 5.025526655390148 1.2543548400881173 9.95531879985258
As 5.002763114593013 2.9043398924235113 12.790429849173337
As 10.186022496334958 8.71442403116879 9.738570031991665
As 4.284743332440046 0.5652393571477915 12.239341545164349
As 6.830228383388263 2.5939250840369756 11.111426651216764
As 6.945409043903812 9.658922270345624 10.902135300006238
