39
Energy = -172.95212309 eV
As 7.803452167537785 6.501529927906445 1.9858299609863088
As 4.631040645856548 8.08582496214815 2.3903433141701504
As 6.586117074518187 4.33752745944997 2.4031991260034626
As 4.714346813723788 4.3254514300782025 4.042093101246491
As 4.095428544175575 6.722565730792381 4.5542333500702155
As 8.080240704580666 3.0915795180120993 4.022336056771368
As 6.91728846962416 8.480226409488441 3.2230830792202116
As 9.896138894808612 6.311319175639412 3.2617218912534485
As 10.34899548172615 3.9326335844021774 3.519653779614278
As 3.398983710266767 9.898703836475429 3.5678800570705596
As 4.9439779654298235 11.637140204090894 4.251625847882765
As 11.237047737628249 9.809863588075707 6.228589178470303
As 6.359484949633867 7.337098290371553 5.4359910189515634
As 3.928219088692108 6.173113137286162 7.383709667069148
As 8.882723081323096 5.122533722917109 5.350606324950452
As 3.3878764436937963 12.26959544401593 5.945696106978664
As 9.30437099140463 8.479541373428432 6.8512369537650315
As 5.982862430509787 3.9270066755962487 6.26884807595671
As 9.400405877935784 1.8640018375676923 6.655129203096662
As 11.485140966772219 7.391013900603295 6.183856846234993
As 5.8414891384096705 9.539610710592969 6.482412307241296
As 10.670158167971847 4.000524098787098 6.756656459055297
As 3.3485973317988016 9.86714073779387 6.216128212888131
As 7.133725720215687 1.914847012468726 7.429487017280044
As 7.58660266426611 5.629935309698527 8.242067066888183
As 5.448461189581474 6.42842356935235 9.362690228657781
As 3.869955367546241 3.685494321501556 7.582021321008631
As 10.001240036336496 8.447241317474287 9.287135124849046
As 6.087186473077939 8.915269238803619 8.829869853643999
As 4.863845752324454 3.843307931203577 9.860082628765536
As 10.918676337137216 4.927692666329911 9.10599369236052
As 12.056286711454929 7.117796422468716 8.647712406189155
As 3.914142509977295 9.675502936281267 9.88035405509274
As 2.0299045771647553 9.236122322165695 8.317437565234384
As 7.303351813951348 3.4184175555449015 9.415573472443752
As 9.077460691583353 6.260965338841142 10.145435261492606
As 1.6847064259090898 6.7848257599111275 8.26919954156432
As 2.1164422111596473 6.229135014244613 10.603298325745683
As 3.8912826304950032 7.6071353183939046 11.268440310039072
