37
Energy = -165.93187457 eV
As 11.18981531402031 4.15588888456682 1.4244255011684397
As 0.8011382028288074 2.9213773532414224 7.790292658277233
As 0.6044362077562787 2.104954689012277 2.738618297594876
As 9.764716223804912 5.5810697615809834 2.8835135321618317
As 1.3988399459877443 5.28020928610736 7.406977495575584
As 2.672874604446598 6.405171518826431 10.8825974840652
As 2.7057336101698573 1.730942912545979 8.832911157017495
As 3.5386613843274883 5.584595152602839 8.640875020361143
As 4.820221954984737 5.298258074463474 10.26243586381671
As 11.19467639497635 6.496442421377668 4.699166986817161
As 0.1671956243848295 7.424942801586417 2.4072561138836415
As 2.171186325812311 2.82076050488997 4.527579201931019
As 2.177205837912442 5.315515742871416 4.974455707994887
As 2.9301437367658796 2.7847622310375524 2.160004391727142
As 3.3833611570189377 3.682370462450412 10.215820460724697
As 1.9297457105089675 5.6352747762069795 1.9196512166149704
As 5.440656075447391 3.93592256542903 1.0343720471035223
As 4.845162964883289 7.3882596931462965 0.44312329203875345
As 6.365066925679121 5.841575328365255 5.701213871724163
As 4.821665258079989 4.327842505792984 6.947428053969962
As 5.174688803932018 6.196318214501779 2.661214115944563
As 5.934806326838708 7.948237212439331 4.3301925283127245
As 4.293793041209373 0.65203286969304 1.9016228130033872
As 5.293453410192652 0.6129999391473245 4.132683132087811
As 6.767293203704235 2.423980626550147 4.907696169020125
As 6.10070742880555 1.621411053612364 0.41800293677507866
As 7.161442993795733 7.531435093816132 7.344691007610549
As 6.985758346807603 3.815808497613536 8.202512511061217
As 8.05490370770723 5.871896205679351 9.047874904026633
As 7.702090076326588 0.2818731486231597 3.8357385292595465
As 9.111777981055484 4.6131473247308605 7.178478153042727
As 9.207856669910207 7.0714807196128975 6.023380353931141
As 7.395199943960521 5.36453577696966 1.7867950954123695
As 8.285159550493738 7.573726141649739 3.7964748265272537
As 8.259492030131726 3.555565314067309 3.251401395511898
As 8.219551199435454 1.5628413185752639 1.7222544278564897
As 1.034932279308457 2.864254323096136 10.26243586381671
