33
Energy = -147.65495656 eV
As 7.796119319074698 4.263446167705431 11.275931146151809
As 6.366772933180766 5.991873999132999 10.218088093369978
As 7.824726378068046 2.229140557498517 9.932189802926398
As 9.782620503494583 3.854947137124799 9.867479052357943
As 8.469661427954463 7.178980155458559 9.505358366692295
As 8.00110967666146 9.620660497497267 9.95169280671353
As 2.434188248157412 3.255438721718641 6.806107745774658
As 5.619899747632315 4.950015520943097 8.080386338748957
As 7.0850772654799625 3.015047218652287 7.654466203086671
As 3.564699594309667 3.786375712380738 8.923515527310578
As 9.241711619737337 4.251498004964279 7.431439465023203
As 8.268386779896543 6.556010270643958 7.112987866137333
As 8.388216573259719 11.103294536041798 8.000337439627659
As 10.191938750645152 7.995861567388059 6.4041845335758145
As 5.321743103123677 8.719445958791137 7.528697286639741
As 6.064409010070331 10.717253005916707 8.86840307218091
As 3.4094192775600742 8.052291885359113 8.937662866037284
As 1.8736811881146704 5.339812010302317 7.9406218537734965
As 8.33770762973377 9.588474714106361 6.004106489641215
As 2.9479725678579385 9.243082079001946 6.937489386954041
As 8.061934200265615 4.603070194387465 3.40862888943905
As 2.6785701747917328 6.786742152498345 5.953066313409498
As 10.157189851956234 7.233194735101133 4.026030073443474
As 4.243091153053978 4.083234353593553 4.768336189850481
As 5.106836294230912 6.357270443679778 5.4437631163328914
As 9.483212763376258 11.036447302650252 4.380969539128507
As 5.836626569444875 3.6536989091168 2.7800143617592714
As 7.651650298224856 7.058221146142598 3.752346083652667
As 7.794592913885142 6.1678839867163795 1.462353251796409
As 10.415334408970804 9.493662650764469 2.98650142239973
As 2.5123975753480834 5.516205176686312 3.6458622943174177
As 4.308501181854174 7.186239964265962 3.1287521750178255
As 5.2983942433235 5.6495724865076955 1.4206241694685187
