30
Energy = -134.52987203 eV
As 11.670403113414839 6.820473589513863 8.523987011173357
As 5.268241179408445 8.298441002011678 8.100942167890237
As 6.828068632445173 7.80687152796922 9.774423716628249
As 12.509972337246444 4.53406824259852 9.063506744232283
As 9.179536222831683 4.681542539647889 10.014565342252382
As 9.943555752344771 9.28406402638315 5.892758216305222
As 9.139139971423058 6.589403789200398 8.488325970804034
As 10.49062493590369 3.1098064745931127 8.64047694999057
As 12.454815282588703 5.408327948741061 6.690376601125548
As 10.118191616575968 7.07161421241942 4.822451110749045
As 8.647044404944852 8.820349594418051 3.8507978050407012
As 6.172702896086268 10.371897074774232 7.04283310439077
As 5.442719660340015 5.790190470711555 10.334523790521622
As 4.091345891631903 10.654392099559761 5.653214859995787
As 6.863052988524757 3.766932923915363 10.076541812173595
As 7.539790758077955 8.499323593169184 6.062296861162824
As 8.607556661035192 5.567305693161438 6.280665229161397
As 10.46579320178774 3.935096463757302 6.276013296519342
As 5.5867372138536275 4.651533769227639 8.116623854122496
As 2.8942546147795993 8.41937035448671 5.80256785870821
As 4.872268908748206 7.503054797906839 4.5419577982493
As 4.471566852850124 9.715673542721 3.3460791646868895
As 3.808066379180288 2.9728531873845827 8.574649041555165
As 3.198946155939476 5.153441262331774 5.678921523042849
As 1.9978662261083073 9.320056498471372 3.630768368297556
As 2.3092262412268005 3.1720792217260367 6.853518691721762
As 4.10319949753923 6.314082409256181 2.495908653019407
As 3.2067527203633652 4.131048498695729 3.441739862661995
As 1.7551388501156449 7.0908031605583925 2.5043725490899558
As 1.159831338067457 5.342312536071612 4.220602550110854
