33
Energy = -144.39319837 eV
As 11.293187859779236 5.726103389918506 9.945356171584123
As 7.283223661539061 6.530045972292422 3.7658561628798832
As 11.05515502659973 3.2067595755086304 9.61121340881859
As 10.056273855722546 8.944962287141523 7.994412560160933
As 13.509568118021935 2.9083175709778017 10.056912632538483
As 5.047753757859048 5.578040057979101 10.065631384235676
As 9.527002437119986 7.066240373343739 2.8600009499539
As 7.08159526342256 7.463423982653295 6.179183051789244
As 12.683223704242463 3.331240175528309 7.745361975514573
As 3.4782697930661413 8.01067794244741 7.632003119653853
As 6.571716783800905 7.679352839645198 9.960565204108565
As 4.4180084107190725 8.73709738265026 4.721340063010003
As 3.2381058287713986 5.591056634880132 8.34911028978607
As 11.250070637092682 7.430336128989011 4.698527595105558
As 13.261229117654693 5.034333590943314 11.250956687708394
As 7.891726337641336 9.641452040576436 5.348668271016893
As 10.520677183977961 9.535377029121195 5.6594559673034475
As 8.86903555427488 6.760316017806505 7.761457742167092
As 12.478078837847471 5.827722353999091 7.721548499060341
As 4.785621809677799 10.77253206922487 9.88965904894067
As 6.060499009938799 9.394930868090357 8.136719666253176
As 8.165577809128164 11.946992623649239 10.466034702459504
As 10.457616811311086 5.63584135764005 6.23616400132816
As 8.207062043788968 10.611963608842954 7.786516912112153
As 5.505597587388862 4.950555249413482 7.598604863330567
As 2.1610031363857813 9.727974770351686 4.80454447989931
As 1.3107000800120308 8.800561621191253 6.72342975830797
As 5.488201326963376 10.664195234247119 5.418055499698394
As 5.67738315215519 3.3290824263408463 9.333420973698612
As 2.903898506922668 9.174868994533384 9.825201440195894
As 4.815166216579985 8.76895983663767 11.373301742474872
As 8.118999181976625 14.08842887848704 10.399388289745744
As 7.776117291166857 8.751444293392717 2.8353187187730198
