34
Energy = -149.77246202 eV
As 7.53469905167641 8.727969853996736 3.1867404970054607
As 9.320685439437446 10.805953944207996 10.496112461709707
As 7.162515065221474 5.070720226837729 5.43628310846125
As 7.9989500825638205 5.38046586309173 12.730971783177019
As 4.047110454743825 7.390487910509593 5.652505214009414
As 5.639582515779518 10.848770945399615 6.154432010742155
As 4.915334789972983 12.981226904621776 8.976021073320199
As 9.692577780760153 6.717314983123788 8.184334844451469
As 5.926697396188198 6.980070636304376 4.121848342869389
As 7.424729405770021 10.906522937497549 4.403668289117007
As 9.686229260806135 10.17403678708945 5.161716902231399
As 6.81837612752368 10.084471762321133 8.191665771009122
As 7.6399972085617955 4.801859383435742 10.482937731889702
As 4.9567973907000535 10.621532653948002 9.820263730145621
As 6.0273321655211225 6.507816656246498 13.199517362651655
As 6.020787747992816 12.427203988428001 11.126474309049023
As 11.710266911478815 11.564173312764023 10.06641741862288
As 5.764731899004848 5.773075565901195 9.445057115297594
As 4.607720906596499 4.981503002120876 5.9512206898131765
As 9.811537657782104 2.8060679145854355 5.707915173915608
As 9.8139518701627 10.634518044746319 7.657630858220495
As 9.153155799037403 7.729899803002067 4.902439263698671
As 6.9363865956358595 12.490129525461892 7.530997026365051
As 8.019693103769397 3.1881302012873203 7.3960041530718
As 11.567812082487944 12.420727259609357 7.741941689408162
As 7.616352133368839 7.077195905827904 6.855736310316517
As 4.702877329249411 6.779655963656865 11.255997116056038
As 9.104473235336362 1.0359311645699323 7.141686725457629
As 12.209434431521887 10.08372626260106 8.137901552693828
As 9.568004166307784 4.361053362999176 8.955084656398196
As 11.88649118514275 4.12915490249246 6.239498004155037
As 11.560403761164643 6.373799128560656 6.584285215036057
As 8.332422178705844 12.887221131217833 10.341244977312428
As 3.716076389153036 5.793473807469073 3.778590993249232
