38
Energy = -169.1932698 eV
As 6.372236875843946 3.868679865708682 0.44385683688677735
As 8.106632927683728 7.049967845879628 2.282121758710713
As 4.0243097335219185 4.374802410322151 1.2109892555543673
As 5.614755217181425 7.337626364119027 1.4413969731845937
As 8.09787408544212 4.548601400442549 2.1593514346584146
As 3.6631189132303033 6.496193982360736 10.046036357566987
As 4.340056278227735 1.594144797539187 3.0797604347342493
As 6.144088795242121 1.5010015793992604 1.276239756581999
As 1.0327370058352292 3.80307679224358 3.2829546370767053
As 4.4523369194757425 5.957734622344155 3.1659018291110894
As 7.724369925333105 4.097467378336271 6.144629915106795
As 7.114842889467294 7.075374470694579 4.48984387300668
As 4.149355982014215 9.328968224952265 1.8910791712706796
As 7.686891804165278 1.524413443578699 3.2527774283973643
As 6.906640233451651 9.643174544970478 4.4522098610898135
As 6.587986495104328 3.705515865851857 3.9989286972472695
As 5.967502001898337 10.014200664702672 3.9800882849041863
As 0.6289326799996754 1.3255346395313006 3.0601679392452477
As 2.5914856035116864 7.360559917627862 1.9984197587788533
As 3.008542554352476 3.8858514425995474 4.845990268350525
As 7.85020578548957 1.798517293640648 7.167365407352585
As 2.467715521913243 0.12095567470235985 2.397951882512159
As 4.641302488643863 1.9563050767848462 7.080690441049767
As 9.990133576770976 4.073463974267233 5.492788426679572
As 7.565430254589112 7.559173649469602 7.575233181663512
As 4.606269341320469 7.986027726662047 5.854363947985804
As 4.447425623206402 10.014200664702672 4.2936213254966145
As 1.4691440478127744 2.1983790210349836 5.941985329763336
As 1.6399903654408277 5.86013080836176 5.692624240669405
As 6.144365274986412 0.055064752362784054 6.493091832908666
As 5.500622770257407 4.569768250321471 7.669360722157879
As 6.261998929226863 9.5255902331554 6.883769181634987
As 1.8909023056582814 5.987896669741848 8.158732208886354
As 6.159839438401657 2.4987261541489465 8.94430975299983
As 2.4063931226710147 1.9755042327807792 8.288804931952397
As 3.2436891907908096 4.14135340455686 9.085947870376916
As 3.5746801074433767 7.866095676834052 8.18684959584841
As 5.729871365324891 6.7634858764671755 8.946537196470297
