31
Energy = -138.72568932 eV
As 10.71527588549354 7.9571748673282 8.771530912142074
As 12.161653941329513 7.432104618399254 5.384525059497254
As 12.243912336947334 5.716755304302318 3.6250234316687826
As 9.749395528746387 9.955872910987406 7.646744061224239
As 10.124504290269606 6.702460320132047 6.667423162355525
As 11.083853634504731 7.864345630281521 3.1286313091418534
As 8.393266253253046 8.739368394833603 9.269292421282175
As 7.84071475122586 8.447708415207156 6.828334870493243
As 9.957704512634647 4.678672509624079 3.8989493590095705
As 9.911831477067413 4.1869756242641785 6.3219752119758335
As 6.069743110590356 3.0591198931464447 7.345701101830509
As 8.913797691403502 6.983525342280186 4.107374479698697
As 4.134416746954038 5.280997699528696 11.959387019063117
As 5.109191722267811 6.954118728335785 8.556506779694088
As 7.424872401033742 4.889584999738229 6.2270785245147025
As 3.7703973730306415 7.33798303692907 10.664213789543162
As 5.217777378665371 4.549163219081519 9.289683881669294
As 6.859539974497363 4.169917087212081 3.787305302804123
As 6.85799597187106 6.442312852134765 2.745097925942344
As 6.260253187848778 10.483203333151671 6.501230119238361
As 3.0175073035618696 7.89041195581116 7.524582092154069
As 2.037605385807054 5.552994845815173 10.711007980783583
As 4.442020641908837 4.4912935023914695 6.169816146568798
As 5.576689544393658 7.30489287824606 4.725185013314167
As 4.345602787455052 4.011718305172447 3.7518437585992856
As 3.845376891366058 9.981597502571196 6.380671826998346
As 5.2618290082728345 9.751642258871675 4.3306970668125615
As 2.091222230794015 4.155849292497045 6.757882269384848
As 1.9323586705637417 6.508701374418268 5.7641544115687475
As 2.8658299221147465 3.8034197029259205 9.137042702888218
As 3.473830054059443 6.406084204315561 3.711078618071639
