39
Energy = -172.78151825 eV
As 5.33242719826592 5.802590832731594 3.257004298356217
As 7.760206312181401 5.619591548209152 2.6202508618062406
As 9.206836760704949 7.6664085566373315 2.706669029097964
As 8.003043649212612 9.787746419628789 3.193569274353145
As 7.043061806206308 2.582715950243398 4.711295810407806
As 4.254035127141153 7.980418942038679 3.377564294211993
As 9.885516421982697 7.5407584904564 5.125376454392708
As 5.1471828911269455 5.46387908252374 5.818347713150927
As 5.5258317380431645 9.8919576188226 3.3070888114509476
As 9.50045172888699 2.6235615647419928 5.065740424897664
As 9.583813162127694 11.50791724093142 5.549589507427583
As 8.192709112099292 4.773043460652893 4.937012591503016
As 8.146685581580515 9.467356688481441 5.724574969388579
As 11.390924548151842 9.427602866246831 5.251329646527313
As 3.64154014799512 7.350101042632436 6.565687524831385
As 3.163912925967726 3.966306333887359 5.493014500565908
As 1.7885669236458528 5.638899461166265 6.828841457038519
As 5.841961448684096 10.724028253553568 6.054322962214309
As 10.163437520420182 12.322073694465052 7.840009675636483
As 12.30229497496864 11.106126573195775 8.382515470950345
As 9.35908171490804 8.681754290891462 8.51904344458761
As 11.704492404434802 8.809975630087704 7.663549397592269
As 7.2003020984549995 12.56603671576204 6.155621614646265
As 3.1798426468397594 2.4028676442676464 7.481550400396776
As 6.9331774628875955 3.254406765495312 7.1216807260261055
As 4.877524120853239 7.809590735206161 8.697380951865473
As 1.8921717077828215 4.08776551096247 8.790566195203027
As 6.589409282507949 6.047617099955064 8.977844273603312
As 9.214360428586128 2.509052723067097 7.53259695237399
As 5.304651722902108 2.1748127978345893 8.714785286443002
As 11.16132193987928 11.237364201994 10.618204877405846
As 8.955905188886039 10.908988405157684 9.505312947282047
As 10.425769852077432 7.49780526932011 10.423498139394178
As 3.2842694766972915 4.781872826535933 10.732052816065915
As 11.62970479375465 9.033889609901271 11.592932713663894
As 3.3128765343504085 7.24521334791353 10.50745496156632
As 5.617647051860582 4.122384732170432 10.258784100373328
As 5.070670298995501 7.505527932794263 12.231947586909383
As 7.059017302461827 6.726625147951392 11.312023344905436
