38
Energy = -170.07843476 eV
As 10.503204705457005 6.728169113080122 4.947297924101247
As 9.819098272593717 9.010100854515734 4.943704184001904
As 6.08659308187565 9.552366367975768 4.077757176144873
As 4.0067114955066 9.479613598932376 2.709904779159155
As 8.764584606847453 7.445128821145581 3.3132909812007014
As 5.542926320228969 6.33806150410029 1.1986741875606148
As 3.3014668257606155 7.086943690898528 2.0937755529824966
As 7.901555128498921 8.08769959511681 6.606910990473443
As 6.17214455700307 8.014668418605176 8.568798294014504
As 9.198392738604905 6.054364828578337 7.2466927248447774
As 3.8993016716105555 10.182829215726823 5.101259470458309
As 4.76298876752915 4.211132595671217 0.1860480263016426
As 5.94101301716434 4.149978208319402 2.2672231349630403
As 6.623589150862082 7.168751805782174 4.668423904481596
As 3.5797133626980906 6.097642812083821 4.343369813421165
As 1.7005526444464478 7.678939242226326 4.784202265992593
As 7.8587987761349565 4.353551370914734 5.9907356008588115
As 7.3693792754126335 6.089111418164387 9.369963000102091
As 2.5362895780594905 3.5871881760830164 1.4824660239054792
As 2.813798656864704 8.632444564972001 6.8096029290107385
As 6.850505997330398 0.7102902234828782 3.5055764287827906
As 4.3447019325147735 6.732723969650317 7.348955058041905
As 5.819830786737836 1.6490046362294835 5.563007166697116
As 6.2614724801500286 4.278389153535329 8.021395426958252
As 0.6726520366613034 5.077500851502239 2.4214910594657373
As 3.6457079449875076 2.8886074206089174 3.593266257697594
As 9.175604925708463 2.560687924834934 7.172032128055738
As 4.5368668638283465 0.7657106485873563 2.563724256509519
As 1.2796512020357274 5.196678750791625 4.851224001904511
As 5.04848353192598 10.434683822158565 4.627516826859549
As 2.954351974833309 5.861194045748341 9.261741607183763
As 2.07268661258058 4.1102366002777915 7.780408774098458
As 10.503204705457005 2.8431403838526745 2.905976149116004
As 3.941494227346745 3.5968577376745037 9.110604402344128
As 1.3598377870771734 1.4104397767985006 3.759790706036068
As 7.505353166004199 0.7310204382874348 7.1793802064347885
As 7.513067231583312 2.3602407934185354 9.054647021453793
As 0.9710678904716714 1.5132514171180527 1.3767821058608343
