39
Energy = -174.04409996 eV
As 12.65278305754444 0.5286756124773692 4.185027657643588
As 9.857501762094902 2.5193575227919314 3.693374832717543
As 6.7440810763938135 9.895510719640724 2.684542012249415
As 10.195928829971594 0.06575315900091012 4.097333916303428
As 10.606673145357163 10.027013653107192 4.048262483506883
As 11.840415359867746 2.662285263540508 5.222399415089436
As 5.714932158106995 8.944389976134346 4.811657431466709
As 3.4385138131418578 7.979114515828662 4.355438831346152
As 9.14872405577806 9.30228783302827 2.1532608477549955
As 10.612917498870308 7.662949029495678 3.342619478110851
As 3.80339749742151 7.286307228449973 6.722742607817855
As 7.807030547416759 2.885427176112061 5.037860010664885
As 7.418320790461574 11.612463201279935 4.289195752763473
As 11.364065907537993 0.4459587723931875 6.26884529529173
As 1.338540521169251 7.201480376332747 6.905375198959866
As 2.5423914848982743 9.351269912194688 6.307159315581042
As 8.72106603933051 9.946699500387885 5.775514451496793
As 8.463961801272983 11.270344785807458 7.89745554450043
As 7.673564696700238 5.318833667610847 4.596167039838987
As 1.3856568329710872 9.818841004580955 9.186647459633981
As 6.823223958922119 6.034371440420425 6.842096214193891
As 5.936098647925645 6.8859645805809215 9.63612877462235
As 8.315980766819331 2.5804676445414767 7.477700855381264
As 1.400745126602426 7.402708439854214 9.421629281274233
As 4.863173069801765 4.325205633126558 6.790167075767326
As 9.04704908504775 7.814119425611584 6.980082063444751
As 9.896336983302017 6.248041584980977 5.281893883608927
As 6.059630793628705 11.905599150546145 7.713854689940234
As 5.231982345435394 11.358171085169035 5.384083012244441
As 5.867533852778225 2.2900030807535616 7.817740355348559
As 3.2513692432947376 10.78069247163414 10.162390992559622
As 8.576566584615401 4.912257021078411 8.24152223921316
As 3.587449696864549 6.5649293311732455 10.519502333883066
As 5.445422752121392 3.207263604445405 10.10409570335
As 6.670350922821471 9.580047123593472 8.376352965582136
As 7.285907800214711 4.939049101645304 10.395530857323552
As 3.601194956056175 4.419099749605037 8.930555950950223
As 6.594268912803207 8.990977969050139 10.862215133576816
As 4.179693899678424 9.000514927035132 11.446024310038748
