33
Energy = -148.41925595 eV
As 7.50721041939285 2.7746289287773727 9.223800861309467
As 8.037937388116033 5.043672116794284 10.103671811161234
As 10.394100923953573 5.321525214898205 9.276238862819232
As 4.56809082253721 4.652088801404995 9.924556349289759
As 5.512264426945162 2.5005270612827095 10.748220581010504
As 10.580577973913877 7.586210570699202 8.234744409285762
As 8.549592776355762 2.977645787722772 5.434282481197489
As 8.162259500871874 7.774343259265268 7.665971795699588
As 7.3831353559753845 9.033999392097307 9.64155917963236
As 6.436544190903879 4.803602150204329 8.229377471790471
As 5.3024211837268735 10.021370995791536 8.730160263769049
As 4.406383428654662 0.8333995294436606 9.322195062170133
As 10.911098661103022 5.5187774613415 6.868403501710809
As 2.8862894517565927 3.9445529644751325 8.28630313629582
As 7.880478376287467 3.1820601522667196 3.0421862237813637
As 10.102307092837162 3.9675930563964577 3.7945025666332053
As 7.287321954668084 11.44590108048741 9.05662703021928
As 8.863551627865915 5.430403074066563 5.4023705841712495
As 6.4463389523526855 11.041177877040628 6.757314611762817
As 8.069176481858017 9.433017258050096 5.832985236402755
As 2.1092111705873466 1.7098719012149741 9.02764455748247
As 6.288783468101231 5.049414401152011 2.49549719496535
As 4.821221603200697 5.085345465945391 4.4510817598123875
As 3.744672227995472 1.900951968625509 7.182748757254691
As 6.30933755343035 7.832379053415514 4.928747165169658
As 7.369491859961016 7.297533649994689 2.764283060766621
As 2.9046016112999182 6.1022806028058305 3.2627140320116546
As 4.76715593927309 9.48613840260054 3.8007934333566147
As 3.825310619148861 6.791431879293475 1.090054129396293
As 2.720414759424324 8.263450031564123 4.4251365204467605
As 5.459049043091004 8.590014846654567 1.5711681272531923
As 2.5241621829291434 8.828862029201973 0.6513655650877883
As 1.753815500142369 9.66013756368476 2.6576022055429935
