39
Energy = -174.09141504 eV
As 6.936505228788811 9.238484924643314 3.2792438898619256
As 7.256715589919104 5.681418959713432 2.798022738847208
As 7.1756180342668765 3.1650134402551178 2.4832422621646377
As 4.7222765139308045 7.969720240394728 3.494210837489593
As 9.720028463065457 6.073075393215644 2.663041315055814
As 6.688353609194985 11.484597309653632 4.482314900663027
As 3.11999231992627 9.854884460453153 4.170933495741528
As 5.242061017668603 3.472835404577226 4.126099220454951
As 8.033623421652626 8.36445901376861 5.388506501630952
As 4.967535351760153 10.22160727653151 5.70730892393388
As 8.534274547137134 2.9689926923656706 4.581423822695993
As 10.29439476330547 7.628150655563278 4.576387404423085
As 7.029581742378836 4.907243797993805 5.194548559913549
As 10.622841230211769 4.219699783024656 4.097338108916796
As 8.554818876121049 10.703415222082839 6.04581462602191
As 4.338048527879264 6.791157775295784 5.741218103790757
As 5.075851962978337 1.6683144110531436 5.917437146502414
As 2.2412886320937617 8.217921352924723 5.889032834559214
As 7.245464181454317 2.0341003106591695 7.218243684928378
As 10.03854351372188 5.621226421393745 6.099419580226166
As 3.967347644580034 11.432457485701603 7.68911915936491
As 2.11482544339993 9.760590137546554 7.890224493869222
As 9.32933117122614 3.7890725489749157 8.680444504716549
As 7.53971785464344 5.428065807550513 8.888686024175575
As 11.822497217117753 5.135445959727898 7.728579047670767
As 5.934516546614051 1.9226325044109163 9.371638900966142
As 5.302835515402221 3.518259940191568 7.594643131421481
As 5.838836563978379 7.497333691076905 7.621524221328195
As 10.048043222308241 8.206526647913943 7.950355111854003
As 11.512786246381042 6.922987317442547 9.257953882388485
As 7.733205319985603 11.01271430778007 8.430231636349475
As 5.57234794658977 9.856611997457842 8.67885477357714
As 8.984587804550424 9.303100005588393 9.822967346343116
As 7.581395103963989 3.5114458736931797 10.520787559089321
As 2.775761930294402 8.378635705370286 9.920677057644413
As 4.234639271803337 6.4408739667023065 9.208757500347868
As 7.91152533725567 7.1111433812299625 10.729526330838649
As 4.721645713401861 9.550309323732039 10.978434094021901
As 5.459357594036811 7.158495527335398 11.30582824119931
