33
Energy = -144.83483366 eV
As 6.1587872095653555 5.490629110814336 8.492489130894935
As 10.533856348222272 7.050944484705486 11.364942127474178
As 7.377614807110922 8.244279218737013 6.5879250662796895
As 5.739491708862213 8.088631159690822 2.7965749606469945
As 8.035497110033623 12.25715587321514 6.513407076017726
As 10.327090650288897 9.353788423730128 11.992663808878689
As 11.324599078603605 9.77104541822922 9.859642539244222
As 6.4360362958527295 10.4578683753403 5.772525100670448
As 8.635845182913076 5.1145736328013545 8.539566560965701
As 9.943989866283289 7.692569056153775 9.016054329123204
As 4.352961119383646 3.8167254531705286 8.465704955226123
As 8.18412747268804 10.998807684807229 8.65719307969717
As 5.550970013404883 7.171297507042346 5.238822123693194
As 5.818999833685821 4.770285966309327 5.678023233215997
As 8.785188626893552 7.1266257353042395 4.796154966079223
As 13.206550058118895 7.017372357654256 10.81082139970558
As 3.432008975391509 4.753166566750874 10.595727611766494
As 5.676726524013449 5.641130893996784 11.11648227214329
As 6.382665218480184 10.427907258297234 3.223851623641573
As 3.3696300188970874 7.306984689304444 6.485627471148928
As 10.47064934016906 11.914892715452233 8.803115449346283
As 8.087729877758203 8.740990645565097 2.766944754935694
As 11.355817394009364 5.097874439168696 6.154357998668047
As 3.3493869880752785 10.118863735268842 8.351453016357691
As 11.899682681536047 7.009013074137135 7.616241742211684
As 9.784532334553257 10.526220877776842 6.8470742202780075
As 4.801338108547582 7.968188241659528 8.433740235990435
As 4.298637623930138 11.453364755531389 6.822220503272062
As 3.410164719811341 4.791282624449943 6.358070835824595
As 8.8788088889681 4.73359419279059 6.220894423172003
As 14.200839561964981 5.35153555572027 11.7781889209828
As 3.843235116756624 7.202122555709365 10.614935513245413
As 11.232579539666478 7.484352519876425 5.2646643408608815
