33
Energy = -145.81444442 eV
As 5.8622852270561765 12.203948817060954 7.904593731367134
As 7.77134781396193 4.924964035937369 6.297600977258223
As 5.756857221131227 8.162737832078793 11.086946763359364
As 9.970798721560646 3.829431547702438 5.969660714087165
As 9.354401489848822 10.75485068710498 7.546305425926753
As 3.841073560362449 8.814032115532239 7.616849218659088
As 11.808935775784976 10.668588856162755 7.773322855037255
As 2.3667925986062106 10.560616952313579 8.43568943403155
As 9.313997328075908 9.31147057497115 10.758736999901242
As 9.055600850260033 5.904053990389843 12.546908602222375
As 4.05444240072443 7.190757886920875 9.585838580821232
As 10.620084569385623 4.132238903725268 8.370145654108265
As 11.46471476553461 10.503283701123177 10.249807736825158
As 5.396481336776199 11.360464664196552 5.605277750362697
As 10.563844699772602 12.435354938654589 8.985833972263316
As 8.00445058923471 2.5822755829692734 6.978265819363795
As 10.726005045842363 8.540887832528941 4.812807701756058
As 8.51465911472423 3.220787123352859 9.364452976798686
As 7.491099375608227 6.541409803290587 10.670774662931859
As 5.806025911695694 6.259968663743441 8.02632857567049
As 3.502460784784764 12.529849392926419 8.511332596960678
As 11.274359900319544 5.857049519841765 11.453401455231448
As 8.980985153495988 7.648357133951285 8.95791466105106
As 4.3705035081798576 5.289509755807279 6.209422881338043
As 9.392765809285702 12.236717427915105 5.5331166906496065
As 5.91818867612044 4.4771021663186295 4.7151136201715795
As 7.4104145079965775 11.624349171658928 4.246765862177198
As 10.466789615286094 7.920136256641776 12.541157174631474
As 6.4014837043648605 4.532610824816596 9.755962432833464
As 6.1065917563325876 9.796223628531921 7.44160796783301
As 11.135977053621689 6.478801640442688 9.029032734672743
As 12.603475248891927 9.845488230707849 5.037640458485423
As 10.655704053561562 10.801520910294089 3.84598732177588
