39
Energy = -174.45405115 eV
As 4.859310175729561 6.541863357874142 2.6014450718909248
As 8.352211352017802 6.418799459582851 3.0563170664446946
As 3.470377550603475 4.252580427184714 2.920230143291866
As 6.3867373450827225 6.963786460551952 4.514955239361797
As 4.9231672871659296 2.1508959114023636 2.8999063249319676
As 7.1589207670929556 4.185633929015222 2.8809989055501535
As 8.608585442664186 2.605235301445055 4.221141038310505
As 10.223603858327703 6.25499536332963 4.644484264508151
As 2.843283611200915 7.821269042559412 3.3123476292645684
As 6.2449284776686085 9.456622683810131 4.674432508992633
As 9.900796100959594 11.643718271702545 6.311311395709316
As 5.308639228182028 3.9965670415884027 4.688816448065966
As 1.665691267521998 4.1499081244474665 4.675255721453187
As 11.370388616956395 9.742506297395295 6.903601482434451
As 10.349484843458319 3.9005148313571474 5.446015279865993
As 1.598615054467155 6.595047027559317 5.116802243635335
As 3.7585431103950877 9.631726567214043 4.794680325365485
As 4.9818641721389145 1.4820443791653521 5.2794676306405925
As 8.96165427608762 5.537886877815777 6.6709913160071945
As 7.231683063442476 2.037888414628577 6.2005933975941
As 2.302086147313799 3.26007049531235 6.970697113504883
As 11.590963007598178 11.841508445716713 8.169156028359302
As 3.5534314424691633 6.390207991163291 6.637066485229092
As 6.184860049923992 8.638450469892257 7.138707832877869
As 8.163634870941378 12.012658613602639 8.131931203311572
As 3.6562794053138057 8.791023066762286 7.183272124794636
As 5.636303802225208 5.996024681526319 8.654916984143009
As 9.803922206353784 11.72637017718535 9.955534418150522
As 9.466569107569338 8.560890867276578 7.973374218705482
As 10.603470261272 6.389718701315817 8.363782057116062
As 2.023751131757039 5.375476260554094 8.315138059852208
As 4.418437400270465 2.656741550295964 8.255885514428403
As 6.372420444992659 10.440407994901745 8.856588922220325
As 6.668381507501628 3.69634797619799 8.141566801748368
As 3.8977732753635213 4.596619248399041 9.8162180528478
As 7.416487983449518 9.12897222205692 10.755809025672587
As 9.860672278985053 9.285120389465893 10.287224718965795
As 7.14896922881368 6.599810900081786 10.633059961710297
As 9.116959191431427 5.327948523371551 10.0301353877523
