37
Energy = -165.11657987 eV
As 11.838671540051395 7.131816419376995 8.988724840236879
As 5.708713746562184 8.316297900871204 5.139502153549327
As 6.070959652473652 4.593025626238638 6.695185440423581
As 9.719815986476945 8.757166034667213 3.9264744615221914
As 5.422069755835586 11.448372506316268 6.336154294523896
As 10.737176524206518 11.441624766955641 6.971128200985088
As 5.2721356290154 8.716705169252641 10.903254766957705
As 11.936652603041669 10.792993614278073 9.825055604231833
As 7.387204469226979 9.539509724662445 3.683340703645068
As 11.808824651082258 9.362455974527577 11.893566518760359
As 4.254554778354575 9.475934518764339 8.784102296217895
As 7.089623424550939 11.86508813142606 4.552301179935079
As 10.21061727073969 7.882524390092394 10.743527802486076
As 6.723325615223436 6.114421188457621 4.7543985451293205
As 7.866905021214767 7.028865028527598 12.970332017044518
As 5.10345889937871 5.833248390139644 8.576897108769886
As 6.853014769222689 10.490340787744769 11.000179215079955
As 7.911991982149644 3.487340288648198 8.031370659332703
As 11.149799345452248 9.173019785210634 5.980357361684025
As 9.914895471756198 7.59168493151586 7.4684102258883005
As 10.03540114747115 12.27186422283776 10.583349511067388
As 8.235575185995382 13.697094590732098 7.7558286644250245
As 6.316956629886917 6.316430476414554 11.079416804441042
As 4.020097315903139 7.476678050382279 7.318098404978649
As 10.067404618178884 10.941205654042722 12.759720505854354
As 7.9297122749872635 9.62018567872717 12.992780830784167
As 6.3622367277515615 9.41071574601171 7.3881106503775005
As 10.269476476504652 3.874715701735378 7.2097551085753
As 9.593074147049965 10.435847622119747 8.977761887248901
As 11.521602569450357 4.638255697626275 9.207583332100072
As 9.092219713807532 12.81055715248079 5.64288424285398
As 9.144822899122275 6.3302034117065045 4.077911950986945
As 7.640406825423031 4.278950570170667 10.3377528783046
As 6.136663027355868 12.892996597133948 8.199537319095953
As 10.811926770136983 5.925874353505695 5.891234198260329
As 9.942601785065794 4.147809307674973 11.102943368389392
As 10.194137680095237 6.182906919224168 12.545793876052688
