36
Energy = -161.06214765 eV
As 8.888855632220482 7.588467527424207 11.41413274462914
As 9.869770456832729 5.203374849201309 6.887246081582531
As 9.122378496419172 5.459379256589805 9.98767866162181
As 9.646759121636947 2.941806407812211 8.148960507524407
As 8.90332553357412 8.649311767741505 9.189605906125859
As 8.066389007669656 6.494021118186417 7.9970578083109825
As 7.850589059690503 3.2780781666249146 9.85613506781881
As 8.742970292810192 4.008892684853181 4.967945976896311
As 6.832158956863436 8.66195641721508 10.550727253801849
As 7.778447255158395 2.3259812104932647 6.56908985023095
As 5.787971125961472 6.3709349720925506 10.370179999298577
As 9.198905842099702 7.247768986563987 3.6598478459763326
As 7.600658682658252 8.290384360897676 5.282026211133853
As 6.429971708608253 3.970527023683807 7.905328310661454
As 6.420144568252396 4.987003733506819 4.6250595683886635
As 7.549311560483839 10.616079523381963 4.056849039404129
As 6.727488343320559 7.088076996580439 3.2886073168678247
As 8.952539439632385 9.355615014848034 2.270776290670763
As 6.0287695872092675 3.1706062464991343 2.9875943774275364
As 6.656208906558646 11.873794030550618 6.233843402982522
As 3.271118851808885 5.320786218008581 12.74117508095339
As 3.738893736162909 6.704927830479943 9.011199119439237
As 10.401803329890999 11.352488950190557 1.7619695167500276
As 3.7126875848187697 7.331887070305851 11.402421215990117
As 3.089261047383718 3.51960900931372 11.36801266382881
As 5.108657944909172 11.045176859996861 4.499221266846122
As 8.298519300851305 12.515899400393682 2.2305520643405723
As 5.519452346695441 9.816555789448808 6.561961615876552
As 4.261274141377903 2.721034205719207 8.01599560182671
As 2.76041235117223 4.3936697889549094 9.12108400750166
As 8.42974554740081 11.086461137042374 0.32179784860242067
As 3.966874508274531 5.664062135466805 5.439491759060126
As 4.104309551845113 2.0212086261826934 4.037191413519474
As 3.3980845223303797 5.8940272134227945 3.189261830162632
As 3.7292937234290973 3.6484998660629393 2.1973560617396113
As 3.17146736622592 3.39711503649946 5.868086144444907
