37
Energy = -166.52219863 eV
As 7.42062199129212 2.106477165042113 9.811185359605085
As 6.494452989940776 3.304467708320535 1.4051898326468917
As 2.7955158915730327 7.80267463291437 5.115320921643543
As 2.3823084507876255 9.291018185988971 8.43019246615063
As 9.734643238084841 7.057715839102056 6.114962707600641
As 6.371559023649172 2.266028582419783 3.647116700134242
As 5.2909591561261395 10.018464791581756 6.183969814957038
As 8.39818008027152 6.512991829425183 2.835269961349133
As 5.534100140315529 3.6426749798329814 10.058324676980245
As 8.957886156737509 3.0350983579720303 1.2812030062276873
As 4.741525076134913 6.400775980027888 3.2530943595553126
As 8.729695682697836 10.434945240938868 5.334474578483742
As 6.411259979587824 5.77953399753604 1.469444289738905
As 4.710638519750225 8.505462562176048 8.113239076570082
As 5.760071084938673 4.640717180254886 7.711743734982731
As 1.819458485551815 5.49923442837873 7.32556405654618
As 7.719856671604651 5.9217793365996325 8.93233910101769
As 7.470106884409007 6.77885678978603 5.147859012315125
As 9.652800739580378 4.404174421903378 3.2285233731444096
As 3.587819549096442 4.229856718413816 3.493613936613067
As 9.714010984094859 9.240225162529734 7.27457842822197
As 3.9235781276953983 6.158034838813183 8.453495591020465
As 2.752817149104976 5.952339679013862 1.8660664087258887
As 1.0403930952317277 7.8299125124243805 6.884398902064859
As 6.853481486279065 9.078639529014465 4.4666903638118995
As 4.550215167285622 2.3522851702224896 7.116049213013826
As 9.103365714832957 3.9971373477090064 9.557934187718281
As 3.282379613266101 10.25108472904643 4.7642334245523985
As 1.0901568443488365 6.8898908455102434 3.5772840878863077
As 1.5557754214954134 4.787165442449111 4.871547777514566
As 8.601148901298494 1.2488865827768518 3.078672848501785
As 8.397394897016733 3.0107940065150505 4.849400933725217
As 6.300039723853638 0.8324833263293219 7.906065986685143
As 1.9246447283094101 10.970527063840692 6.656997773329931
As 7.563447770669813 5.066175674475687 11.17004201269883
As 10.75760305288136 9.055798465311113 5.034549857419963
As 4.299149642786 1.338733154900731 9.272423506838274
