34
Energy = -152.47755085 eV
As 7.294436628772305 12.08620635041704 9.15180405501987
As 8.005045153934738 7.076813906467695 10.377655608548075
As 9.373514201555025 10.820652369656411 9.592375293698554
As 9.660822391889914 5.50350910868605 9.307306476622964
As 9.213787432297707 12.223744420057393 7.543113888471101
As 10.842974342972026 5.113694553112671 5.659109368651307
As 8.401555149409651 8.768934738218338 8.533762544669901
As 5.79465777948615 6.428742782538163 9.426455068499754
As 5.2711902409363 4.612206389666241 11.004338142922453
As 9.766298317026113 3.0477581075761027 6.533378825672863
As 8.095626631895795 3.809850538643193 8.295447463974622
As 6.330312593459373 10.098431939965288 7.846436981133582
As 7.518446068734743 11.21913181546974 5.978411937591024
As 9.44648508730694 6.647738675004975 7.052234999652139
As 10.481586584633188 8.675897486917863 5.910368377435147
As 8.915263812448416 5.721712612699303 4.2013580365648915
As 6.384766426771462 5.354001921641838 7.279723718295143
As 4.481678313474946 3.7292524572985464 7.344023511718951
As 9.843178369530358 8.005591881204909 3.558609896323647
As 8.150732608048484 8.842566304327097 5.267731651213306
As 2.122196286311763 9.012227514793516 6.600762430716174
As 2.7182291762211648 5.527141155460287 7.5326310114167745
As 3.491414597700627 7.109450464714058 5.782373490181998
As 8.810513700535154 2.2367834646249616 4.305884823310363
As 0.0566025361081437 8.058525273296462 7.5790726691552806
As 4.198901185901949 3.0721735571002036 9.732350294388263
As 9.520958480859834 3.920391883526388 2.591713940136994
As 5.694803948868891 4.512312492855857 3.099902711643933
As 6.359747131064653 2.5319108419925342 4.426834651992254
As 1.8335903048634465 5.406135525999672 5.214201201332781
As 7.403701058015872 4.102277894944812 1.33186092577606
As 0.030249522084570213 8.937932244768424 5.270413633068245
As 10.842974342972028 6.519884170416407 5.677377985194335
As 5.841353336336331 2.2904608223865206 2.0150200514570917
