31
Energy = -139.04704031 eV
As 7.475792044810543 2.543337909615946 4.362167551876845
As 8.309678180750213 3.818249829743578 6.323717005012122
As 6.023054860587408 3.3711204490808524 9.805609111900123
As 6.151033673703726 2.870056197322501 7.283103277865008
As 6.57794264518145 3.942283505152557 2.7761992765914303
As 3.799698802558685 4.428496026085176 10.110281754094856
As 7.502328715348595 6.0885475706419285 5.673433866044408
As 10.33083829557136 5.385587298044299 9.467131234353674
As 7.468212354234813 6.183354261469956 3.192584282416673
As 5.865253948347937 5.773965798435722 10.386350679915335
As 9.311048696180604 7.675169346990698 6.373291742172774
As 2.8119702023552278 4.522974855183501 7.812004994887248
As 11.086018776670738 6.218910327409653 7.2628495244818145
As 3.350172488045984 4.259476004159326 4.204922103156153
As 4.772895228914403 4.694960171406614 6.368290403074629
As 12.372334492137806 6.659923181819363 10.351151419168099
As 1.06507463146583 4.059821354493568 4.911520074072344
As 9.09287946612689 7.370530126410114 10.27573052125028
As 6.075300532328651 6.575146468224995 8.025237618845738
As 12.432113963206334 8.041376163847838 8.271673472698573
As 5.238485890447892 7.417722171887755 3.291975722982872
As 5.982428559916882 9.228599750315553 1.7764067649508808
As 7.935615658357779 8.357856163823971 8.354451172725375
As 2.253186329544513 6.871121743022016 7.16951485358212
As 11.111667488628704 8.816323096406004 10.215469212136437
As 2.0010679985137823 6.298357156665594 4.675753957540354
As 5.720357398657213 8.737092967703806 5.367955486735694
As 4.332709306995443 8.258623389915419 7.436542952019531
As 6.340301217216379 11.382698069626192 3.023560170084236
As 4.095579044316488 10.779691948429965 2.2380205608668433
As 4.587118003813569 10.840785591601312 4.6852581274327
