39
Energy = -172.85979579 eV
As 6.425727629507467 4.188895113287385 2.422948634882533
As 8.74274777654908 5.11995710763649 2.374468517586519
As 5.667605487205368 9.20660697798923 2.685080560329946
As 7.914017403638855 9.246176612158777 2.0642533197722024
As 5.158950381393405 6.25039654308919 3.1286821166443755
As 9.418228788024651 3.385498558924742 4.073177093868526
As 6.973207544977119 3.676913610147391 4.846741279310737
As 11.42127417348315 8.879642175656514 3.655265253034528
As 8.503036288646793 6.641932011150955 4.373480807805007
As 3.0386678844363835 5.150358184799819 4.00036844770741
As 5.8370919490133755 9.20637517571226 5.138279081346191
As 10.374403030154822 5.313831163589485 5.419272588236699
As 9.059424247838116 9.065772292269155 4.2412913103932235
As 12.012865987296456 7.761952487535416 5.60755253616782
As 3.3623072101416023 9.234599216500664 5.640156206700825
As 6.159323606642862 6.624952293077763 5.468349094928083
As 5.4318433291611585 1.8342472631703246 5.601988331485025
As 4.275584882014913 4.016846670150753 5.93815044292941
As 3.43707395611177 6.762763890351579 5.884637117915679
As 6.073873718347133 9.120005619486589 8.33853074527675
As 10.3639291348012 8.348315431891514 7.382209368358
As 1.8199189436893255 6.063348093141264 7.6245286679193125
As 8.251679771380076 6.857468945058066 7.814010127415333
As 5.373879757651223 6.108205331775983 9.307637502255865
As 3.6055833789084057 9.496393863886619 8.17035882836898
As 9.715830627874007 4.792706861037588 7.766268798100854
As 6.959804961262012 11.42923977046602 8.021079671164314
As 6.6182190446645075 2.3985795638909013 7.725792475552771
As 2.4966727765077743 3.6766731431466093 7.631760763221459
As 8.973985220652262 11.111025253668094 9.430166805705298
As 11.168172640578458 6.566086049392262 8.94952558316829
As 6.79583740228815 11.843371214203806 10.468817656952206
As 3.175842879123792 7.29564076779825 9.380502368064507
As 4.960419409546213 3.573373873195869 9.03221321156837
As 6.17093938674337 9.381485535789455 10.848884158545228
As 5.3773523448036435 5.636326700874717 11.703253105623581
As 8.975787986952911 6.815731567050059 10.201043353487101
As 8.639976515656013 9.177074521785759 10.999348826531437
As 5.929283723983219 3.401601726913561 11.300296423327744
