37
Energy = -165.68598309 eV
As 11.23773795626124 8.345198358656466 5.07108655173561
As 2.6960353251917866 8.125158866518893 9.601882123637857
As 7.516254156670484 4.588332691189564 4.6904845220599505
As 3.888430616230338 9.365923438502838 3.3850957557814922
As 7.180425167284552 2.2501519410718127 3.6994313202659304
As 9.96604205249475 6.464739922692731 6.063516112177388
As 7.655813424917174 7.408069985042362 6.240352869172935
As 5.299296333897572 1.965256837233975 2.0783331923291337
As 3.974904653166032 2.9741873953864224 6.462833263711866
As 7.20320405782329 8.579159170739121 4.0813993788669505
As 5.332045459769585 5.837295804689553 9.330669894988658
As 4.559994008106181 9.120565382293567 7.218564733033596
As 5.386515496092411 4.3410705527920985 1.2252952317783359
As 1.91563236722168 6.542620512442824 7.9187871370802885
As 10.056259184728194 4.732287948183612 4.265138167910634
As 4.047828291227885 0.24857374873845078 4.179013987679953
As 5.8134290720473905 4.433217187784928 7.337744350350838
As 6.855144764954602 4.147257691748347 11.927909475597366
As 5.423212075708284 7.561902167193231 2.5634148269495833
As 2.9979753066667514 4.172429570324213 4.465839704578414
As 0.9143472931490305 8.824799057138307 8.081589296288278
As 9.775504971193905 10.355989202702519 4.954871944891736
As 10.938592773615097 9.792044942886593 7.058298958983131
As 7.725652003537146 5.149002768728703 9.734792811669182
As 4.4986079276308795 4.278083548288775 11.114555798299099
As 3.7899949278950285 6.9471212972599625 6.259265961908534
As 5.535664056212963 1.232842244340007 5.727449604905578
As 8.474428839764025 5.8049072044555725 2.694916576824424
As 5.089758133202841 5.265621609057532 3.529063980534796
As 7.223115220947499 2.9159148503433068 8.689408375459704
As 2.3625971868759947 10.066302435085676 6.440216710235396
As 3.005844415613182 2.153070994443067 3.031866878125719
As 2.213612958926085 8.205068160177687 4.791354928837778
As 8.436800540366592 9.67187333847707 6.968727938786052
As 5.520090594998638 10.18082691589138 5.13559261321028
As 5.812127086873789 2.259618338839262 10.67356567746221
As 7.777318205537451 3.7983368677542946 1.4159568844236528
