38
Energy = -167.58298366 eV
As 6.6268868155079845 9.604552941288741 5.5504028714650815
As 6.7159767396326995 7.042851758759427 4.662963547563578
As 3.7561934374770463 8.630989036636553 5.151586815606135
As 7.766264303081298 8.112965191764385 2.703819906692549
As 4.282320004358837 6.368830829590231 4.203449663037923
As 2.4976266268888474 7.735370457795233 8.900938155109944
As 3.710979646254352 9.34666350587431 2.6750299870213943
As 5.624421469412615 7.671457613888594 7.431985359493167
As 6.108224234180504 10.05269985157949 3.0963982015844835
As 4.595245988853425 7.110539325190194 1.8658071535703076
As 3.34293994138808 5.108487532668366 0.8879956756089359
As 1.3838403801591415 3.7664154361410085 4.582116374467001
As 2.0053649833726266 5.256225768047734 6.483036186117774
As 1.7511950975630393 7.753373665589639 6.398430751222197
As 4.159604563602551 5.877975284053274 8.680285828960624
As 5.341901147958008 6.703639853598172 10.776924824294781
As 7.936690637385304 7.623282282193584 8.315466983016949
As 4.744771896278125 8.816780341821993 9.482673422503183
As 9.004658625879024 9.177740148311202 4.777304962882713
As 8.991805790599054 5.740951987313527 4.514139056485306
As 5.372749304559218 3.3257201414725084 3.5651898831100635
As 6.837595881274922 5.119123058001241 2.3169121031589737
As 3.060480136586373 3.373895473167673 2.6817082595861335
As 1.9925121480922001 1.8194384797236425 6.219871152394253
As 5.655269626013828 4.293537901763086 0.22025129098218524
As 6.252398877693402 2.1803974135391138 1.5145018201002025
As 4.281194034338672 3.9543259966018316 6.334212567713391
As 6.7148507696128386 4.628346925770876 6.793726452238892
As 8.499544147082677 3.261807297566178 2.096237087493441
As 6.401924785118253 3.8866384301709136 9.13136808903277
As 7.240977336494632 2.366188718724707 5.845589299670833
As 7.286191127717324 1.650514249486945 8.322146128255572
As 4.370285703811017 1.3926021245564568 5.446688594462565
As 4.888946539791175 0.9444779037817698 7.900777913692484
As 9.24597654908222 3.2438049624452043 4.598744491381034
As 9.613330393812383 7.230762319220402 6.415059740809967
As 7.654230832583602 5.888690222692591 10.109180439668034
As 3.2309064708902255 2.884212563596725 8.293356208584113
