31
Energy = -135.62061488 eV
As 3.1474093237334646 11.922307886123617 10.460966536737368
As 8.098045735881936 6.922786149859629 1.833312894380602
As 4.280578398562282 7.9458144555751336 5.643182507059295
As 5.93975507538398 7.789125056249374 2.1987629542226625
As 12.520906125156449 8.531747505263093 9.620954022473814
As 7.325216329797478 10.735241457574384 6.967611095208444
As 9.549010234892496 7.133621025570916 11.80669635100764
As 7.854974727871486 3.9847899244550153 8.153336315466715
As 3.3578214727163016 8.479244833554343 9.646622275595304
As 11.5572000096328 6.281921360533124 8.798971878478
As 9.033287258714793 4.600717297234097 11.80669635100764
As 10.673051876240061 8.837262794396178 11.25611082741655
As 4.558021924795265 10.10890503602887 10.839750034838302
As 10.356226926949361 8.112161783388476 1.940393790915518
As 1.338288939326377 11.347930940628892 9.061534870661774
As 9.111598605214942 4.840542552633289 2.6150519274329316
As 10.907450310882213 8.473301615654718 7.720347052445933
As 4.025822301910637 6.131830501804164 9.3581061955567
As 5.0597343425287615 6.071922279102187 7.036891122943362
As 7.314646777228692 6.626105479161945 7.981052257324631
As 9.570075126732029 9.835016059809684 9.255846698934649
As 7.040490815788952 4.040945598131404 10.468210731349275
As 6.513500326108648 7.799952171630893 4.5707978989386895
As 10.213513146766127 3.5785286889130727 8.327599062073295
As 6.335662069702721 6.4603938703023065 10.289585553372591
As 11.016841322892821 5.791126080142642 1.351870922853277
As 10.812288480735118 6.280970537869241 11.13997032738293
As 1.436822294575822 9.097823938456672 8.472745337506268
As 7.2286539386174455 9.174655636988279 8.693804259848031
As 5.644067223620749 10.031061661353117 5.366315843039362
As 10.76415719427999 3.3772559114583687 10.603892142760316
