35
Energy = -155.86038837 eV
As 10.193883287926942 8.13979090884521 9.749465870388228
As 9.485970718537823 8.645748324766819 7.411136746672179
As 10.426512306387089 10.677279969216405 6.30022154251319
As 8.208654162762272 9.584706512833746 9.3292414110514
As 8.580997304955336 5.600729697814463 7.258077946141001
As 10.514707255716774 4.93254470767349 5.881362108803397
As 9.440531784891206 5.714339194089842 9.582891758823553
As 7.077540738464466 5.914712155296194 10.416396917072827
As 11.91621945584112 7.279008781527985 4.678438015442979
As 8.983553782156784 3.163550719939909 6.907417657894374
As 6.545007138973294 7.780855801869112 8.841037293559582
As 9.163397037377704 10.084289629250158 4.192257759046672
As 11.590359216501746 9.690420290532154 4.318606330192485
As 9.887650468627156 6.269725349978644 3.799716777851907
As 8.162229596595266 7.827857537217811 4.778734307548395
As 5.800200344339438 4.943501942357912 8.424177980876223
As 6.844521866388658 2.4761592409629185 5.893427485052708
As 4.305182329339335 8.378368572974411 9.737129045558806
As 4.699571512746494 10.906891243325662 8.980310626342396
As 6.6082870404090395 8.087309399200297 2.8248266033733813
As 5.850919537755355 2.41439467834858 8.169433245112915
As 3.740728008856356 5.558352871775406 9.716063557377263
As 6.12768480466509 3.9177213620905142 3.9128184160828816
As 5.017924802013073 7.51764683242068 6.024528484925091
As 5.182237784437274 6.013255183371326 2.8497120046119093
As 3.496900674666401 4.619007522282368 6.252139111701501
As 3.483012683477629 10.824090151684823 7.1110307996106785
As 3.4584877728567363 2.4378285174568846 7.4161230748739
As 4.872477862435328 9.26091086772889 4.24269027105356
As 2.105026963466481 5.7540120906936 7.956405312165579
As 3.131943919006836 8.255986586961372 7.511003934322181
As 3.412108900606763 7.219072985982459 4.133724580382944
As 4.042219520879945 2.73563364362551 3.2688813778718653
As 3.1406057325738725 1.3697351968774725 5.13790168847012
As 2.0254087147284254 3.5272265603896806 4.515334988596079
