33
Energy = -144.79874273 eV
As 11.468721191056687 6.3292317382883825 9.981318204010265
As 11.256562557626193 8.487856716497141 10.93088291762497
As 11.263349038045018 10.194374139943463 9.025378057461337
As 9.98879381192879 7.245204593079662 4.883404552739815
As 11.530751782439534 6.031737864004257 3.274108374885239
As 10.168951328291184 6.648979028627226 1.4880320381386598
As 9.821246757375912 8.711364103795743 7.730005579372599
As 9.652629348695752 5.339444816143599 6.499133321792527
As 8.523964448979957 6.018767580483538 3.2831506416457255
As 8.540527204182386 10.862782496344327 12.097568357631737
As 10.047342446321354 11.915029130177953 10.447630780935999
As 9.216999161492907 7.102364247123671 9.767789609513574
As 8.628355980410111 10.735989072360645 6.676963549242745
As 8.528208145310943 8.329631235541799 11.899462224164207
As 9.25948544175104 3.8817206287311716 4.4748561495826475
As 7.588637302799165 12.124598615123858 10.181209379209477
As 7.311826954259347 4.642932343364642 5.896306995565621
As 7.3304611000466 9.955011241123156 4.702653767934965
As 7.347505191429444 4.774417205157029 9.379876908247452
As 6.270193015853028 3.428057861398124 7.6997762264879945
As 6.831165614962125 10.595726960006747 8.340864600201092
As 7.981771947233356 3.2762355553462252 11.174952413477731
As 6.075189631215747 12.019018584124648 5.0418722852844775
As 6.3130032384178225 8.006475900587594 5.897820928716379
As 6.103116976316235 6.131367161658456 4.301724214853902
As 6.280380061153575 8.22901377473515 8.902329744121326
As 6.068179464630783 8.298719085708228 11.390591388113824
As 5.030062222821504 11.94903801018506 7.186483394872325
As 5.81253586347456 5.809554174722249 11.207197984143853
As 7.483794366531712 4.949702303631911 12.730945922018421
As 3.816738566522649 8.12624968337698 6.03147137360365
As 3.7853008775374235 8.223594352220223 8.544789573164948
As 3.22578378537678 10.214741864058132 7.2153498107236596
