34
Energy = -151.87788497 eV
As 11.77364268369935 4.038584522055328 6.223882568623222
As 11.195552893369081 8.991635842468506 5.73519383224414
As 10.082834093645163 7.814467089101806 3.894136253596616
As 11.399636829415636 6.343883732764912 7.111541456856416
As 9.63831135571299 6.254891022401689 9.055763687211048
As 9.426961653215564 3.65779287798727 6.054794459433955
As 9.590931765684266 9.536851888030997 7.555599184430027
As 8.684152107458582 4.0228745775487615 8.479319866169932
As 7.818984383010279 8.795948332572147 4.1414569065021904
As 8.089404469656321 7.5715150678226335 7.608438703518897
As 9.337269346027455 6.236953244206756 5.781805328765791
As 7.868125238406539 11.15515952029193 6.654137855609065
As 8.236524280105044 11.216674186456872 4.172066726488336
As 5.101473402787005 4.6601673806328625 2.2598709469521148
As 6.326765661970248 4.672792764339704 7.827107543211845
As 6.065807475412192 4.461330353113638 4.59996091419487
As 5.068239817731919 2.484233153682847 3.3870419805605794
As 5.61523408788996 6.46863654113001 9.383486394646187
As 5.471899700641181 5.335679971819411 11.61126593310693
As 6.616692700772904 8.497981499255346 1.980039136253447
As 3.027863204925608 3.9157743344016094 3.3803353518976706
As 4.899773943516155 2.9423776703492495 11.125324470860948
As 4.939986401007377 2.7998723426345413 8.633289523919027
As 5.777440763218265 11.604491673972003 4.366599567108202
As 5.523526151676664 7.819226030951785 5.61520824802531
As 3.8027422723414137 4.6212711400100766 5.702071144738065
As 4.534154509499157 7.950292338240646 3.288504411980043
As 4.911061159701704 10.243732792169448 2.4579509483314856
As 3.229860075925956 6.425807769568308 8.72692458651076
As 3.056982977957953 5.739330920858295 11.986748592475605
As 2.4555995198780787 3.5621760719384157 11.032090575332466
As 5.496236832886924 10.213191053682294 6.437361991081355
As 2.7625681956924604 3.9667927773771634 8.467919693253766
As 3.1677578404761957 6.9716073114771655 6.256759011424135
