39
Energy = -173.09581366 eV
As 5.376301556908164 7.151125227091015 2.0994695874266545
As 8.82837493047778 2.9107908768138633 2.722631575897454
As 2.9846197763649562 7.288840875242421 2.6914318484104887
As 5.423690006882149 4.720306260139732 2.76287983147005
As 8.833067370519359 7.798257302148666 5.379730213081729
As 3.0443139906364247 4.218821272518364 3.5590412224503107
As 5.797530047154396 8.611510964618464 4.1166755567558315
As 10.091772945479276 4.921736557648568 3.3328331110498315
As 1.5565893871375176 5.427436471350248 1.9058565135572378
As 4.066368192545651 11.464868158421748 5.598949198116353
As 8.533619361371384 1.6326730084538688 4.649037526138871
As 1.8992064871424519 9.466170160916173 2.4053821997391815
As 2.6239375545273305 6.259717671205464 4.961116294337524
As 6.050327898176119 5.185123014026622 5.135581841115705
As 8.557537332243305 5.3110524765562985 5.268159427054174
As 0.29002527086096785 6.3013195109457225 3.9416497557818064
As 11.19580049247827 7.933454966391559 5.845775787856837
As 10.425079331516143 2.150782406152284 6.124959114058048
As 4.303233473197643 10.3581624372601 3.401740084378632
As 4.657804930768378 8.027304081192453 6.610094112195069
As 5.942083626128252 2.7548921656005185 5.793578382884844
As 2.9731133029083243 9.82358108146724 7.118571721620614
As 3.573748741278161 3.0345430622352776 6.919264807275042
As 11.626567318990128 4.102229932678837 5.107932546234281
As 5.363331327094506 10.321553786881825 7.410069223580865
As 2.6736173891640314 5.003821545318578 8.263593958594512
As 0.03404531986044666 8.72580413568392 3.704025147048014
As 11.685984735548614 5.858608773243897 6.917064073532947
As 7.02579780865097 2.2527960550518906 8.005367091852072
As 7.57576772041928 6.995732900534279 7.471603683923572
As 3.866676247400374 7.045696625157345 8.976022163634248
As 3.9617987293694625 3.1815300209110062 9.367601281576269
As 9.40057962355571 2.940814211428814 8.270357329253091
As 9.434506537320537 5.43431163343839 8.122353346823887
As 7.719344483175378 8.056415174556665 9.751434437404676
As 6.066673009921868 4.393784076511098 8.79719530008018
As 9.01929450177542 6.073107045179827 10.600878760191629
As 5.630884094718567 7.018012438006821 10.795372944765676
As 6.881460983180207 4.837787473868521 11.089194835699388
