34
Energy = -152.01046379 eV
As 7.595111327254615 8.180154436854155 11.843081348648354
As 8.632581612801967 10.350508110465451 11.266982699075898
As 10.024284721168897 8.26108952163281 11.57247108814791
As 5.417245906748725 11.488571298703706 8.24642692299105
As 4.675636918984086 7.4668434796302305 9.607882319218614
As 6.8937834507405995 6.419564132096423 10.219512490515111
As 3.125808762115208 5.35619228483926 9.070746820779311
As 9.356431863630899 10.478663621636725 8.870221592432278
As 4.158281077208484 9.976221279839304 6.713063314512104
As 7.115551729289699 9.693305367373206 8.034445808697047
As 10.286593734591923 8.15520237350349 9.049331230994483
As 6.335128529211045 10.970517183301851 6.0204943531047315
As 1.162592585857714 6.566800772874369 8.421709690778423
As 5.064491679074643 7.676516924818673 7.234110758166658
As 8.301708409878847 6.874699297906818 8.208809208213294
As 9.656725737017261 4.740129949006792 8.192277108725389
As 8.047535766959408 2.9771400911666697 7.416262066491387
As 10.753134416545127 5.505487649122018 6.110287420645146
As 2.8498557048245563 6.182515463553527 6.7729549513666045
As 6.845864852220604 5.151899866645378 5.336585214229017
As 5.95167097050109 4.437222182619515 7.564344015919924
As 2.6850723810960972 2.6784770798826876 8.044308109880081
As 8.933906714280951 6.52778428423986 4.783146002121373
As 5.024417200049415 5.9347418407269465 3.770736902424902
As 7.940308372732793 2.979094057083755 4.911410772648276
As 9.948759749669895 4.2810900435015835 4.13355149671374
As 4.643829645851417 2.5073062753697677 6.541957713334768
As 6.243738363689672 7.764004306637545 2.677811459839965
As 5.274869511804816 4.0386647471315165 2.241601368545576
As 2.51470745515854 3.5682265864377296 5.883366164296909
As 5.553611092912957 7.5343552347254255 0.3380402734681765
As 4.945271133197687 5.071034726004929 0.04959516652313848
As 7.848307589896092 6.843877197453968 1.083114749928667
As 7.238612669515015 4.407529969694503 0.8147910331036557
