36
Energy = -160.73601028 eV
As 8.376598320040141 12.37683016540934 7.19497113181836
As 9.052151177805504 11.719453740346912 4.912832584174131
As 9.541105415394403 10.507967808621851 8.481857098910291
As 9.52092703744868 9.185330875446008 6.378368474145019
As 10.520166583203242 6.9629397167766385 7.105633573319092
As 7.3182925746537055 10.669126286457772 9.624121922251923
As 8.281776644616006 7.436536800958696 3.8585002777929907
As 8.53718328998442 6.097133470453073 8.390838885511503
As 10.076585238047178 5.955158653735588 4.864969505772357
As 6.078296504270101 11.44414214413888 7.561194182194635
As 7.194162240609463 10.866838471602493 3.8578060937772682
As 7.328821739846835 8.0572889151022 6.1117631314138
As 6.955688719841953 5.484152018949123 3.031225542260053
As 2.843882768650041 6.642848843853111 4.015580535136235
As 5.76018366917428 9.914576469005226 5.609306969013915
As 6.486997239688953 8.609203943899962 10.769342091028049
As 4.754270764510488 6.433298960306537 2.3454556697103834
As 9.074574316751082 3.7441718142689338 5.50232375331078
As 3.3434693568695795 7.587042814437796 9.62372091720813
As 5.660952659547777 7.448585895271704 8.725296703163783
As 4.208412101747402 6.534741074793875 6.10051025587705
As 6.637812971218025 4.20856549187942 5.150534525587979
As 9.874507353433074 6.4034871101235495 10.44818368745355
As 8.77867661390213 8.083877790794363 11.545351551295903
As 3.9144227977867465 4.116270277573009 1.8767263550036217
As 2.22215299865589 6.974576333368593 7.560126825862211
As 6.884110793462932 1.879648791054366 4.112165771140456
As 8.952440292456009 3.677828053912389 8.028585342064257
As 1.872163027526194 4.412758693178966 3.3389062655726267
As 3.4163379540849106 4.659582519928958 7.5327244334696335
As 3.9451738550557875 3.4385504351059923 4.258085822964877
As 6.640739657518898 3.2299391620586757 9.000377021720238
As 4.531313232714824 1.0587803897120767 3.8385065684303448
As 5.7638508875364565 0.698081809815583 5.982462241420465
As 4.910835545009644 2.2448876402648095 7.728131837992642
As 4.795258321517159 5.290091281972927 9.58780711681241
