37
Energy = -163.89344234 eV
As 5.423336504012811 2.326437861390967 4.072837751531468
As 7.394108946581666 7.260477602053836 7.622469260792488
As 9.11567839873663 6.819941120955704 5.916586200576117
As 5.982968346443019 2.052306299188076 9.772316640938289
As 4.133672552057719 9.40068488404542 3.707132267159226
As 0.4064978016392713 4.687966608939787 2.2424390417662927
As 5.803880464781015 5.320584250553354 7.615673944854193
As 3.9016996115080387 2.14414065286084 8.466243770724521
As 7.489054186627463 3.6435209392324084 6.989976708723419
As 7.234335072855194 4.248012674843914 9.382667944461865
As 9.794780784321718 3.765359186959009 4.346172079371241
As 4.9537395007025795 7.2898732556229096 2.616982962218453
As 8.189355341704946 4.948195248417549 0.4948717440436063
As 4.229521998804248 0.16844078389171555 3.880866402492629
As 7.889113882685956 2.8924498813939685 9.78112253315487
As 8.40116295997549 1.156047076207572 1.060817318854445
As 9.035879765277413 2.087153501731429 3.082445711284827
As 2.024204594841859 0.50443561589668 2.714078003367017
As 7.530037094597058 8.723581980894279 5.572125173303287
As 1.7623843396204044 9.540209064024515 2.889555621336161
As 0.9886555570370135 7.701691361018905 4.405537350833178
As 9.16966627125854 2.6596704193749 2.2284212724433976
As 2.999685668221474 8.398407856284605 5.711958160727545
As 1.0867388715998088 10.009654406982953 5.237597664476748
As 0.622563113628162 3.619996805302306 8.471521220508603
As 2.946430099438706 4.444263360627394 8.81448758677585
As 9.16966627125854 4.431791622323769 2.6177704222669
As 7.324611455123615 7.779583811790987 3.202952624741645
As 1.5808971738417532 4.8594150364320745 6.798387971971379
As 2.877909933409266 2.0851914731820904 1.0312179671343653
As 0.06051353967290324 1.3406825239215472 3.9682207004399217
As 2.8819724279920433 4.319532288433341 2.0515112525005827
As 4.899693005438625 5.985674723557222 4.7435434402820515
As 7.605372525582905 5.55853680542611 4.284482101652828
As 5.163515421663905 1.3274631612507843 1.8162712332243118
As 6.003005520829522 1.5974894529023675 7.285371279479749
As 3.518902704275998 3.924310259665276 4.412559452399174
