31
Energy = -136.56841404 eV
As 3.418851757515973 4.405533216016159 10.105126928687314
As 2.9376423248288432 5.922606574524985 8.222970816762667
As 5.1125612712301765 10.01591632266597 12.022577041931068
As 1.5028815036628123 7.703972461178158 8.820514215899909
As 2.9478769403501044 10.58234930078412 10.90149534599648
As 10.818368886751522 5.79983595563949 1.077365605300834
As 4.672167250654074 5.634374187798525 6.431512839497129
As 2.322875131547247 3.5192774111404166 7.998737766307074
As 10.640790228912579 6.330622115487572 4.623323799934392
As 8.242901629819395 9.738347101062919 10.098701673986923
As 12.213939670278975 6.884133139332972 2.6933896052670687
As 8.371194655932996 11.890388809149762 11.300027645265288
As 7.771213942425348 8.982084030573343 3.2315802391813495
As 8.259673416356486 6.734472223719328 4.13493233468477
As 9.98146921233848 6.537400486526962 8.474764464189382
As 4.738171162235245 9.540830450829064 9.607621116223868
As 11.629258079856545 7.266669001647549 6.737430057703806
As 10.152189087212788 3.987486495778809 4.298947043165684
As 11.132577875405257 8.29231790412042 0.9043239281533578
As 7.024913940568205 5.253240615739973 9.579062142896005
As 3.0278425794259665 8.086184299195892 10.73119165484977
As 6.5620250128292685 6.693340749567803 7.617000109346012
As 10.394838499808472 8.795194822175732 10.793144659700836
As 4.673152591549325 3.239894178842606 7.008115023944646
As 5.513994800003957 3.309258592359239 9.355571578001241
As 10.34408173223684 10.246466537572557 8.841495974036823
As 8.293065403285102 4.934080962623929 7.422045697100544
As 9.56739486257538 8.572468348334947 7.127419533106285
As 8.849907189600179 4.95920893274605 2.491469576035463
As 9.272862570107021 9.670460926214613 1.6637534564510474
As 6.24532316732878 12.220290512104992 12.0863544968273
