37
Energy = -165.76974482 eV
As 1.361774600646997 6.423109580455439 1.6745754612705823
As 9.591643883540224 5.743727399910805 6.372578095127215
As 0.35516431771877527 4.967448616665219 3.3714223253852955
As 1.6708387094548849 8.943530419976517 2.1191891874043933
As 1.555112732227956 7.4505561234492035 6.937746016802423
As 4.344685975597457 5.111244714787736 9.45146242662842
As 0.9762578072731766 3.5396612383021027 6.471811687254762
As 2.3925147162409663 6.228260165933918 8.910878271772507
As 5.359714258144365 2.983052892394421 0.4486076969667033
As 3.6375791969057074 9.337175923586434 3.5685545926996527
As 3.9822742137312326 8.549152002065897 1.2546700017922094
As 2.4054406198593403 4.2218869619346036 4.5209327177111
As 3.6240715531016368 7.061987625703246 4.624562912318219
As 2.8551826882804976 2.0443745010158683 3.326573838482786
As 2.5063387302631073 3.808791764035453 8.395684749622284
As 3.7929756413773217 6.131220478957592 2.0188471554653074
As 5.15273670426452 2.96211877026335 2.98227197560485
As 6.740157057165496 5.041155411628453 0.08217187573076322
As 5.8876850841253425 6.315671463374684 5.103284823356558
As 4.680997906877206 3.9821373110838487 7.109817061256917
As 6.76450945630933 5.442872775737104 2.616590027226689
As 7.231499532488227 7.752908109642314 3.530783694860333
As 4.073827360683519 0.45617917938270997 4.895269787320217
As 4.868530411855006 1.45603729323408 7.040480636326245
As 7.68695766047349 3.745812350988359 6.446994707472016
As 5.939249296851841 0.6108242258086396 3.223649576905658
As 7.154995358021965 7.25431930822038 7.240315996062992
As 5.7836501464057495 4.004782552250266 9.406231686478064
As 7.22052477167579 6.023215677823529 9.45146242662842
As 7.349529725867198 1.219224228444065 6.8536106359600115
As 8.219031240099442 3.800277657780969 8.940658959400572
As 9.136111380445701 6.089940893625777 6.627268239305298
As 9.135444559920717 4.653597034243361 2.9643255304803446
As 9.429987727851463 6.808086247585648 4.256197873028822
As 9.356478730473828 2.9479142130181373 4.753888185644662
As 8.055339113951343 0.7487702088700079 4.52317671157907
As 9.705961854871592 6.647206023070359 8.729955487814605
