37
Energy = -164.66147038 eV
As 9.78056562732981 6.237256325989915 5.987634757140511
As 7.948975279596067 6.710720818879022 8.016578421458957
As 9.816378240663337 3.824505221490921 6.344142715394515
As 8.32025390757455 7.223279055853136 4.329453227652249
As 5.907430936953719 6.236527097346326 9.7444540852524
As 6.704516570674889 3.9765071221956765 10.181806561757174
As 5.775361139330119 9.69830125854799 5.319491782093571
As 7.556921288122941 5.951434287211747 2.3912313552165534
As 4.519111488871402 8.94913293815654 7.327068372838341
As 8.71090168269864 2.4349707968942074 4.5945110445909325
As 5.360759765749113 3.3757064118719664 6.845170282189821
As 5.049425369974098 2.3999784050515647 9.122803366372331
As 7.614880377696268 3.4125691546322927 2.528442949195821
As 6.215383824635295 7.384276318108138 6.060782826659425
As 6.548708700938819 1.5788333229186189 5.530244285548486
As 4.520167992947896 8.93834266611513 3.2689358652944653
As 3.451155206431758 5.968343306169502 9.393644574593678
As 5.096912073323965 6.547663815781368 2.5249849305486562
As 5.457737480411251 2.848278843972614 3.6666795229316356
As 2.931099270702647 3.5605839129494896 9.681128082047548
As 2.6792505257381865 7.566790372583278 4.259845092917395
As 2.2603361394145214 8.588158598611544 6.47006889971842
As 4.475254342642236 3.9829186878151353 0.576896708829529
As 4.3960381089727205 5.867094420243242 4.82947083494543
As 4.1497859650563385 0.9286742514018032 2.692892342683582
As 4.147921885846746 4.400321145075484 10.36846252235299
As 4.08188921289548 1.5656204558041062 0.22503760931981348
As 2.592637238361615 3.8067342306040857 4.538566932335807
As 1.7268260535205262 6.418855171639832 7.668445157961493
As 0.8304550076221818 4.612762972607793 6.220489883252032
As 3.2757146149275513 1.982658837986719 6.068195716707973
As 1.5349723633522256 2.7458108271676895 7.713088645616664
As 2.508634540570839 6.225214494141435 10.315350175910222
As 2.181374155819305 3.12003118697093 0.6246200283574664
As 1.6842746263357407 4.08965023262984 10.181806561757174
As 1.889813759555252 2.011421348327926 2.90086735738758
As 7.80176330501873 4.333659756529589 7.874868682929666
