34
Energy = -151.67935212 eV
As 7.96838873457385 9.054536180111846 5.608362391076694
As 12.54879945173167 12.49345104985558 3.493972741112803
As 13.41243030478737 10.388828761670547 4.498807443455492
As 6.726468053610233 5.764594853639462 4.094274613436125
As 8.33978170563494 5.1997982116038655 5.968413625601224
As 10.7361584678456 9.842272008678583 8.499769203134052
As 8.599957167802774 3.9278495745066078 11.051438767734565
As 4.9677798587694175 11.306425862841538 8.953377261193316
As 8.163174261325064 7.749118230708579 3.5126461484675717
As 13.146536142066916 10.819523085246086 2.0764666674312147
As 5.447113310687705 9.361801940238577 3.088235490872483
As 8.0345994318308 7.247601507975651 7.32108226614272
As 6.3371295110362045 7.113119385293558 13.828895676387658
As 9.25457374927711 4.6454131665052305 13.32221611559273
As 10.697726275857068 6.5708111641222615 10.186678483909967
As 11.724907281998458 7.239644516819395 5.358267782863123
As 10.455442685448093 7.444415225499257 7.853349399303715
As 7.014518331714393 5.706304105868157 10.27152064905732
As 9.900253824904011 6.014657868783349 4.245578551999372
As 4.273077837466052 8.357365379001967 11.056436023030535
As 4.975679768213496 8.829002724142146 8.637760598114122
As 11.68051895058934 8.861475631550796 10.634489530425567
As 11.160615616337187 9.3471793616121 4.491449054541813
As 4.791726380971482 6.71830946196684 5.3135626774958915
As 5.480333244225047 9.118760423634578 5.56889019277785
As 2.9015718706211726 10.182608229451665 8.299186955468226
As 7.085657325078971 3.517549089456278 13.042204421877814
As 6.329496483612911 9.004036756257225 12.234522005582706
As 8.783219814020413 7.067676007992749 13.473213013387245
As 3.3121391292682287 10.660318149019126 10.718280696608199
As 8.435042382677686 7.6250482945401 11.085274892104431
As 5.57889631205647 5.361817447528639 12.259237417011464
As 4.345145982536645 7.3179857552290395 2.931644086067992
As 9.465293751346048 9.965832411484314 10.59519917023052
