32
Energy = -142.90126754 eV
As 9.218788315143156 8.090102794278852 9.823443434644673
As 7.608458444091329 6.970872223548446 4.087180693323827
As 3.9955735918784705 8.016521627202684 5.467994548819698
As 4.2831217283935725 6.637481155489843 8.906501174361923
As 8.253794008596845 9.936802956111928 6.205357873507867
As 10.980400506893519 4.205862452004341 6.388662544546483
As 9.594260228475362 3.9580024229628132 9.720932887088178
As 7.978687007888925 8.47074918899581 12.031385391992696
As 8.920248527669028 3.1283328030475204 7.456803848291954
As 4.400730180438796 9.696464214498567 7.2711772941997745
As 10.012803887422592 6.3992418271142215 6.988220265514159
As 5.991731167620114 8.991976322487417 4.321434803172178
As 8.95926711169423 6.354738180612297 12.869852207165435
As 2.1069038324922524 5.565620536631878 8.283236040845956
As 10.301588297557066 10.952094351127988 7.288397701795298
As 6.730800198421741 11.587095316625419 8.678345212510958
As 3.92613106977929 4.162396962296235 9.134358908135665
As 11.919306271106356 4.536491280285162 8.673016534884466
As 3.5833910998734546 4.359888791434083 6.677282080707481
As 11.911353618586919 6.944366342976241 8.366931708430638
As 9.570755136051154 7.995408654458546 5.101184549426591
As 10.09063093156176 8.452901031814633 13.331076723012583
As 6.8091916498400336 12.343946709719573 6.281204793545273
As 6.766688420142292 9.16364417743817 8.06620789879074
As 5.8349756423179295 8.926709638521013 1.8629672872630674
As 8.1140887537534 5.327396086277478 8.40089485466667
As 10.89297387351256 7.058450157923853 11.351828223655438
As 7.895987855229528 7.886375512889111 1.810095610645937
As 9.130717907018063 12.178573816936098 9.09206645971259
As 10.53011687774679 10.196170982292792 9.639401118970254
As 5.292941059392656 6.236588057552224 6.6367539614333015
As 4.8574698495085915 11.325002091622617 5.444161114048917
