31
Energy = -136.70053287 eV
As 5.93874226341304 12.049518501029235 7.623471369404316
As 7.4016384579754435 11.830743042457204 9.596887543122907
As 7.956521032642493 8.247845449507738 10.966583084280279
As 7.943148010948469 11.426234071081625 3.4750216759358907
As 5.64803526690177 8.25657450531278 11.94245745386432
As 6.904591566195112 10.383109587816625 11.676879723672652
As 7.61442563715169 4.701287569105635 10.309992482544558
As 10.221660490090535 5.704725264668388 12.421156793148867
As 8.758033012565983 9.203893215523873 2.7205204394258473
As 8.48317967928735 3.1903444366569254 6.547834485467986
As 4.195430886764817 10.296582695944377 8.194347999183401
As 8.972533910061385 7.507938793572239 13.088577608905213
As 5.901339264893157 8.511637267506368 8.332107725208598
As 7.825382562559933 10.457212468864405 7.636907045791611
As 10.876110513132843 3.5926573101728705 7.108119524927067
As 9.309833015715613 5.527109135993366 6.753266394409465
As 11.090957353813248 3.624220639574468 9.55556784418194
As 7.0930476544991174 2.9557960068324935 8.62615882368186
As 11.44197138170763 11.481528082234572 4.313078318590039
As 2.489425603666057 5.44025203931969 7.930043106162287
As 4.201070795157528 5.260181183165778 9.72169230760311
As 9.723971742789576 5.9701604784773785 4.37992537903529
As 9.512124891238535 8.358634322158661 4.940249141773773
As 9.310802428570188 12.111502387050642 5.40917425574919
As 4.52084729546879 8.714989380228905 6.292069833091297
As 2.5641613755133106 7.197795986202275 6.474260536946271
As 4.155438448980148 7.763955827430444 9.998412416222259
As 9.86174783404456 12.962501125925447 3.1065955549943407
As 9.903320547828582 5.708604117545054 9.946606029076325
As 6.254814897433358 5.277941146314497 8.296253758059208
As 11.131554253652837 9.253177890422636 3.268271829318748
