33
Energy = -148.07125356 eV
As 7.989103419825994 9.266395658990884 4.245864870368657
As 10.03695177170041 7.813066726819034 4.196847251720849
As 8.921640525206174 9.424474766900593 10.8766869862334
As 10.779111897956076 7.220217641082791 6.476161388376105
As 6.765335049423712 8.392706253583642 11.760448448486033
As 9.759036237394936 7.160582921647883 10.191012595499624
As 7.208278545203541 8.984654464167889 1.880018132710973
As 8.02378067365792 6.621432009161951 1.4043458784248757
As 6.831074612765747 9.670159764268684 9.636882519290053
As 10.069106566049877 5.4296671543984125 4.844799045971734
As 5.859222337867023 8.092284617770254 3.741197696527783
As 8.816509478187001 6.717368539492378 7.978441664826907
As 6.9445044380992025 8.252148685406945 7.62316650662497
As 7.827453425290281 6.155153601281628 11.447123715360172
As 4.5823363606957 10.288917856406483 3.816464036737043
As 7.735651050462571 5.014031193184176 5.728927402901349
As 6.185370228748937 5.379109677930412 2.5262986526432534
As 8.82849584707928 3.660994208447549 7.517563787210001
As 3.5799519264412063 10.42714776584772 6.09350751068597
As 6.019181336690135 5.779476467931368 0.267006067821614
As 2.2603663653095527 9.514093963983568 4.227071059315927
As 3.381694008337726 7.971358743972656 5.826944233549286
As 5.116052399271003 6.585307985009423 8.43856985361058
As 5.994387400665138 5.037605568944093 10.202931938142783
As 6.97928372753805 3.065209701038019 9.049656893005857
As 7.572205326495336 2.921722822441606 4.329053130446754
As 8.515048470638943 1.51082180016888 6.179329492015513
As 4.646563183706843 5.052969780914286 6.536906916474668
As 2.524442979482758 6.554154126580312 9.333238000095548
As 1.4307531550330161 7.26664783497104 7.2585266252074145
As 5.008108643491748 2.8028125842894727 7.597484783208865
As 6.07342720894402 1.530120084190426 5.739117963399335
As 2.2261104356651047 4.927724062101714 7.518943986432462
