30
Energy = -133.75925885 eV
As 4.321333646675178 2.1746075718170563 6.475487864180618
As 6.457686900207288 7.553286117501515 0.4942974649339458
As 2.012663703048706 1.7685141964715179 7.17992053888715
As 6.463662198032447 4.285184720509342 0.6522744800059077
As 6.710926580791147 5.3434777547458605 4.436765147553949
As 8.319519044440558 5.961764911458869 1.1299307745758764
As 7.086350529044589 8.962035625288442 2.4523227986124567
As 5.422412114454071 5.822651156058398 8.218753603338278
As 5.372814345434549 0.8131724230268857 8.305778247208917
As 3.5785184506952263 0.745642358771368 10.075355067232488
As 3.261840791106243 1.2015619416981633 4.310160470833171
As 6.316723513454493 2.3293546642793834 2.2444586204814394
As 2.7092977493031523 8.434150731138732 2.5518636844479925
As 8.325052640215048 6.998419549965424 3.460084676895958
As 1.6483338019940101 3.007160456441081 4.978374061012552
As 4.909920492754406 7.659474638059695 5.183653282139506
As 1.8765791263694456 6.238931877509544 3.449938499401341
As 2.4456514348575364 2.8671132215891486 9.357647749850557
As 4.832501691987086 9.469279131349351 3.5110294178376216
As 2.790207095355986 6.360253758029949 1.1488608942978729
As 3.5267101170254684 4.7377677297705745 4.747724485054578
As 3.176567875714437 5.625221149251953 7.198857703006876
As 8.01760486143735 3.2944397356612534 3.998647073524845
As 4.948417845900009 2.7759525059397023 9.775471312372026
As 5.129084441885897 5.9678675560172785 1.903954581347507
As 7.422733754870812 5.028530002976817 6.8034181150804285
As 5.632729644957289 8.24277785325312 7.5116355557543635
As 7.415619973135605 2.669264344967334 6.2585377017164445
As 3.201211090157792 8.12548119228019 6.8632384325969324
As 4.040899567124435 2.9102361466019895 2.6951327182489595
