31
Energy = -138.52588866 eV
As 9.558238068512086 10.578640521379683 9.625681511950685
As 10.531421538856373 8.401451425178967 10.23935795797762
As 8.498942988045252 9.223823333217771 11.413836458607014
As 6.039435247031558 8.729369589081264 11.062440308039319
As 3.499446618294168 4.195903537351248 11.3692054239721
As 9.72823521462289 8.781932002828794 7.907067145668116
As 4.985243849071257 6.240056094555978 10.729691199725567
As 5.6881174173147615 3.838015048164426 10.309362334060404
As 4.836305286405694 9.049344851756478 8.988889991922482
As 7.580943872975703 7.504690708110339 7.838213146067743
As 6.305810040298167 9.491563211690739 7.035733479263961
As 2.386848385434057 9.88931088245432 8.225405764158332
As 4.299106332968382 6.523780479103946 8.32413549465241
As 3.654063943598833 3.960515098830097 8.96933198080949
As 2.495615690431699 8.937911801864585 5.988900264469999
As 4.8649455083184545 8.005451110818733 5.646720788598079
As 1.915096171255192 7.487085070218353 7.955966888932939
As 8.140825520393154 8.423825987135022 4.226121674242682
As 8.288714173479791 6.386191726820316 5.672966120848747
As 5.820374552082062 9.015529331253628 3.5556974312962857
As 6.16714767983855 5.125357858314539 5.407159746154695
As 8.94135613084675 7.555827646673321 2.055989095431303
As 9.43056268126556 2.5566229935172746 5.280705950762732
As 6.978156410588653 2.7380781722480356 5.774007537999483
As 5.062568998259762 7.174634444096342 2.10240810992406
As 7.015581240683823 7.284379571601231 0.5382622131744994
As 5.920496136255507 4.986138178178395 2.928046296295152
As 8.065058305430092 5.273385603763705 1.6816450143216728
As 8.872900877294938 0.3228630115438339 4.299291772339693
As 9.119938355490849 2.27394750854733 2.818722792718173
As 6.832334741238362 1.5682051762828115 3.552868082196769
