33
Energy = -148.07635123 eV
As 8.630523468999108 8.65903965285612 3.9307767480721147
As 5.948258278996153 10.62160528777632 4.5517396466908
As 5.45239240497666 6.80628625878416 2.605691541219148
As 3.832913946555627 9.38130099645424 4.04103294486967
As 7.8999127019843725 6.440979970981922 3.0501961783499763
As 10.892085641488764 8.023269122054048 4.782922419448741
As 3.930535293174316 10.924966738852428 5.9721633348799275
As 11.47504163541784 5.702512506515596 4.096841549005987
As 7.059442735715876 8.806579049182718 5.9059238430538965
As 3.0011338622059767 3.9893766997991724 3.2641507434872037
As 5.17121497965983 4.379893299716695 2.364416403275544
As 2.518976929882745 5.8670460573469505 4.896620771123293
As 8.22392186190761 10.233528579725109 7.587296089862892
As 4.63933206379505 7.162096513674807 4.9485180836309155
As 11.22083836929626 6.234361995115533 6.496429018043473
As 7.506840252229462 5.509795015973032 5.2921175860047
As 6.168683110148802 10.783565371751296 8.799940041081378
As 4.395069899226693 9.379382471473875 7.8480846975215375
As 9.784123178418309 4.477847635535717 5.490507944752858
As 8.789454121715124 8.367727522631137 9.40847015407583
As 4.4289836826559 2.6084480749543033 5.141709655347819
As 8.047811865233326 6.172415273537712 8.601281059169935
As 6.746278982052768 3.273392267614243 4.448951936152024
As 3.027735436857823 4.0485383550533784 6.565957417470643
As 6.856392932707713 9.250282336900163 10.801446686618709
As 5.639035408492538 6.7120436201785365 8.373546214838917
As 8.66304499896445 5.93036485876098 10.97183332748051
As 4.250834786013607 4.612207932341923 8.65360945704292
As 5.144226912252689 1.0549302571943848 7.141504405978588
As 5.1389385970169705 7.5078682510944255 10.65722732283371
As 7.279495633089974 2.126652433119468 6.801069125387171
As 6.869109815737943 6.72469705496891 12.220625376958642
As 5.884164991430116 2.7437473163801154 8.804147054570263
