39
Energy = -174.35005817 eV
As 5.1436080918163745 8.154964471999723 4.048993476261311
As 7.606825721334296 10.373099132497734 3.092549039997502
As 7.99556868727525 7.91865891193364 2.4764984408918473
As 5.642624341934622 7.184815621272101 1.8839393265468056
As 5.193359848273275 10.553943449358458 3.7819601608849207
As 2.7829857980093626 7.435545571595556 4.232350989758016
As 8.449827801562703 2.8634669799101578 4.63762480897253
As 5.361342477877868 4.817569638223197 2.7569675460606216
As 7.681256653473638 7.475658607300362 4.942538453958789
As 3.2082448925644518 5.005555291910412 4.142106269559042
As 5.339745398151109 2.1566379222622745 5.007964001761494
As 9.201876856832856 9.399580368331113 4.8237866537326894
As 7.305474669679013 1.483047747284012 6.383926629382684
As 10.464287042699436 3.7002476099855186 5.8993085113199655
As 4.564831953997629 11.17704363896138 6.290833852959742
As 2.9386284640127007 7.884219372894757 6.689695663618534
As 11.942723113256646 9.46547115234331 6.992289864285295
As 5.3168907778732075 7.473067191051233 7.403536887315442
As 6.479485731967672 4.42968368185105 4.987210179238104
As 11.930445175644087 6.956988442256718 7.118917450153089
As 3.522719603528556 2.28614935640159 6.81770109118292
As 1.9186770355931508 5.920928476279891 7.705225492399138
As 9.661482907076858 5.906563463036247 6.779740313638504
As 9.602602633692701 10.43863741898883 7.055597654917048
As 6.303900783458373 9.784868680603301 7.39581348474021
As 7.540637070864286 5.873649323246568 9.492055060651998
As 6.584619133488019 3.314518048103313 7.958516335046288
As 2.4236418630427425 10.270340047222769 6.75899623496619
As 3.834394201498656 4.801451436041186 6.672790171819467
As 4.777545286248893 1.9649217229629714 8.8659354538933
As 10.335343880732719 4.067342904070706 8.358079339709533
As 11.43191448251847 8.296744557881535 9.139319088645337
As 8.99367129465333 8.47008201351353 8.44515194180109
As 4.398937181160518 7.878648216203909 9.70066524716337
As 8.31573863151947 3.4775299344958426 9.726610372632988
As 5.735689242208092 10.02323110844548 9.81598666996481
As 5.662750031416675 6.214675161417397 11.085161235467698
As 7.879686275632815 7.183515513510937 11.614807026296967
As 8.055651033151275 9.446573884073386 10.5484856481273
