39
Energy = -174.94367184 eV
As 7.725767701693527 10.772370177475809 2.6853318715287493
As 7.539024922423451 8.558064126268974 1.399552523204595
As 7.100064889789957 6.987349937275532 3.2266668149164257
As 5.760172067467567 3.893808784332039 4.113653821471333
As 4.328658319224864 1.8665466500194992 4.552916492995075
As 9.452498951204396 7.592625349457476 2.730918189359552
As 2.5647800252494353 3.390079383334768 3.8099697615539916
As 10.099470658909258 10.026364325182044 2.741395190896703
As 6.955385805888352 10.382911410069468 5.066077132874387
As 5.557727482325762 8.383607219918325 4.5531584345214915
As 5.576625741101237 4.765809670424012 6.4120236955225725
As 11.952376036547054 7.191388769782626 6.976624211077413
As 7.762531302292194 3.910107097113255 5.6464278050040075
As 12.512073420083073 9.322665599155306 5.788676195978141
As 10.613029958062393 10.76051733095054 5.051964418371672
As 3.696225561277065 1.4681123978929373 6.904528127068201
As 9.57523198839776 6.334807049056097 7.002679501145646
As 1.4803703795768772 4.375308717694076 5.567990584482661
As 8.981635177810329 9.187057172094097 5.934624162806261
As 5.904456702622771 7.2201180023326375 6.743745078474757
As 2.1011213523528727 3.2190344720352466 7.618113392936305
As 3.5354337140413548 11.013357765159116 6.613424554018604
As 7.72531327648572 2.01465199612402 7.280179871721894
As 8.532986450379763 7.692197007863291 8.879098478187672
As 3.4780202587397033 7.017724866971607 7.41861888940751
As 5.154262344545848 10.207559726043932 8.341066572526193
As 11.903867560621965 9.318998107645035 8.227308649707355
As 3.509191512418954 8.59908401145715 9.351821407764326
As 10.440013730717308 4.684065861584347 8.754490854960794
As 5.576164653988545 1.6976755915847281 8.531809842661332
As 8.5348764600965 3.1853266700638434 9.338023517608544
As 9.454076762448635 9.93799672130389 8.272969813703215
As 9.977812301173294 6.424677290045169 10.543321805914815
As 4.9084412975267195 3.6562264527617607 10.006334930800762
As 3.5528622055174988 12.086956207227185 8.816375646122895
As 3.1137107511798483 5.055839226810588 8.98195391768775
As 1.901416466732673 10.274774753957299 8.365666479465231
As 6.891504977169018 5.039023134500154 9.440944977747627
As 7.841531525745355 5.75592566085937 11.580267077631778
