35
Energy = -153.77665907 eV
As 7.2509914747790765 5.744612273089923 2.447205897872556
As 7.976006010186569 7.918149584175286 3.6150195220656856
As 10.532171694104802 8.56950758563931 10.745159169814562
As 5.715039256785907 10.229806975311552 8.541940716760758
As 7.263315168815261 8.47922407755206 5.9551146533038315
As 4.576219601512974 2.791928528868582 6.9270464850459215
As 14.076407880991889 8.239952974955836 10.744114311147898
As 7.264677753643051 3.883328228137135 4.024198077295059
As 8.472526534365624 9.154668143196611 9.337528513698066
As 7.436978385860387 6.542880933083601 11.813510908848972
As 9.290204067792025 4.65965690284962 5.164135227833032
As 9.136065126163324 8.027956284142348 12.807877853772178
As 3.629786835593888 4.64490893927875 3.5182729922392184
As 5.221121322647011 4.5093044254786285 5.345022712009806
As 7.577405317895865 3.331543788246258 10.317173854534571
As 4.8323144065238095 5.824255444919839 1.9480306759500778
As 5.77151927588883 6.114845965089126 8.721240349589007
As 6.429311103299518 3.7566469239401674 8.155223782673808
As 5.415023495111668 12.379967122470502 7.4571365117702095
As 8.110088716213847 6.64231397200739 9.39660630378388
As 9.331437761264796 7.150827698970578 5.514032063881232
As 13.505531602972203 9.57120479915615 12.764205763987677
As 11.5541016972981 10.6422147614259 11.666512987131059
As 9.468544273480006 4.372330796782913 9.269583713926
As 8.685637947148784 3.334713825704746 7.182147593698013
As 7.232946892895268 9.058727807280713 11.564895474114136
As 5.269355701412755 7.064974857748503 6.494971582568661
As 5.721957667714054 10.93849645134089 3.970567295527392
As 3.796036036955311 8.88731749022286 7.8719537658879455
As 2.2576487212815564 9.930293667850139 6.405054007756948
As 4.610792626115138 13.187247663622474 3.9775213407870122
As 13.77095356171684 10.723690461461702 10.588654277357493
As 3.9941309338606716 11.429753783328783 5.685392429615892
As 12.118330575203101 7.129908951557345 9.812861470510772
As 6.705822417205231 12.8320150172729 5.216012822215102
