38
Energy = -170.58905533 eV
As 0.7836988588314417 5.091369736983949 5.986688799371599
As 9.567225199155638 5.491831857848224 6.884038537281665
As 5.374501250716853 8.052830412075187 5.045671242402346
As 7.80064808590853 3.5760790266010862 10.783346534231416
As 10.471809621505216 10.726113442157942 5.091840681915194
As 7.159999908512488 1.7789551741655543 9.09579261161731
As 9.351024179758834 2.8932750399262614 8.617666888680827
As 5.707901165635612 3.5602189434612876 10.045092736070776
As 6.05026155786343 10.130804567465756 6.219078299700763
As 10.796238596808752 8.274418604392789 5.084465879828088
As 9.437575465111019 10.721975112602996 7.35685083457816
As 3.9017573463321598 3.556398137002635 4.288917579786429
As 5.344109184691926 5.117934788313595 8.152424805379766
As 6.185650891887927 2.0856344193429024 0.989113719559824
As 6.662023899998238 1.8092045981903497 6.6525742471944405
As 11.627235846379934 9.640295707305789 6.987747223258394
As 7.492972436577034 2.55077171110646 3.1075196335396136
As 8.54947568223404 7.391741027188067 5.637587023365592
As 2.294065697184407 10.41415173199829 4.1097994967670095
As 2.237808022117434 6.927550954803027 3.629498670923079
As 6.427097907836426 5.774980897277086 2.1354286662271256
As 2.2284722534643446 9.887441652130693 6.495281950644936
As 4.174898135108255 2.0813907656754567 6.324082346970644
As 9.1086188288519 5.307793286067286 9.327719986987221
As 8.661825113420843 3.301010435307348 6.1612773328359705
As 6.786968622000874 5.791749545021158 10.080979346248323
As 4.263772944658958 8.657729693731325 7.163147341814358
As 8.613202923088053 4.527812540969508 2.039963238930095
As 6.236465968625503 4.398227768252586 4.200078134802966
As 3.1427877615488513 4.996296427949773 9.380632222715825
As 7.821841559648934 8.857829421779346 7.497510426581175
As 2.978814673512926 2.7139817143897123 8.443882999708867
As 0.8341533971458861 8.515388611917166 4.989996103578712
As 3.9204058364188463 8.7349546827457 3.1931341514219964
As 3.171474278886429 5.589201281251537 5.548492028394383
As 0.6500174201970541 3.232180057281565 7.6200154591663845
As 0.8326723865769844 5.599753445889766 8.40351271943037
As 5.4693940016839315 4.322670559652449 0.3142727323626613
