33
Energy = -145.9694917 eV
As 10.781781362613573 7.091752883285566 5.325359152744949
As 3.596393902007449 9.43546849681762 5.053110548678977
As 3.837650296243388 7.034494674533478 9.96265195937464
As 5.296119932403335 8.67655478341672 3.4102866458505083
As 9.430826278155253 3.059238291535122 9.737314000213699
As 10.029123695549409 4.09469704954667 7.567965923120673
As 4.9722121913888895 6.9319337878562 7.7416353331478645
As 4.449578524778646 9.11861594318584 8.745969541201815
As 7.59672215364588 9.568688068655591 11.71144462743986
As 8.746146638977292 11.816455432820188 11.843166699558934
As 7.875608680123779 4.215721480265375 1.847006991058551
As 9.858861232035323 10.726498735184535 9.908107177088363
As 7.755174723923525 9.521829813096444 8.927831703043937
As 6.0356847433017 6.924095281052489 11.225957597012329
As 8.703723914716717 4.461608713824745 11.75461757645601
As 8.678958877191825 3.9054910381825483 4.1564058083854
As 6.30039926160181 4.655042274730066 12.024786632508656
As 6.143856331372488 11.067651281193209 3.534193804104529
As 8.593092688573705 6.512133442310526 1.8691754950585873
As 9.298681235951966 8.907840573484208 4.598677410908994
As 9.70718628145552 6.5404369261645146 10.807256817644632
As 11.202386023085056 4.821052759182382 9.617454292009754
As 6.200258308891674 8.247476083307154 13.2535499042813
As 7.2491503174064436 11.660436263491809 5.662723287485425
As 7.814310611122328 7.001539061497925 9.228911280288017
As 10.02960701182575 9.708882743565018 12.145527426960602
As 8.959360537024038 10.191168842194594 6.678718774214427
As 9.040671017737258 6.287254146835177 6.940597513573321
As 10.333785426343697 5.539364288692752 3.3139366221378825
As 7.206430047325114 5.471215599730307 5.484553580745655
As 4.767110888982506 11.546817027369176 5.615791437860639
As 2.887713894422627 8.118961949660838 7.074178753158217
As 7.400475736277746 7.430073037330197 3.9822112207103437
