33
Energy = -148.09613485 eV
As 12.489001957051956 5.154989943335411 6.164358642886221
As 11.15791275470488 7.283945488268626 6.0045331189869495
As 10.878761527094465 3.4627784584735415 5.4758505369476955
As 9.876288764108784 6.686272073536707 3.9705549910300832
As 11.465098624478196 3.6589141174267503 7.860499418386359
As 8.942121730714119 8.962918243838542 3.484410539093836
As 9.587976390508949 6.880113792934125 7.847936114520484
As 7.631550989446457 5.972910094842926 4.83796999082463
As 8.289842018678637 9.653971326980148 5.7902474369515335
As 9.122319265536738 4.4313202225441986 7.493886028374423
As 8.02013016074204 3.8367281891717058 9.797710316566521
As 7.4436792675737475 7.5483565989252845 6.783810527662164
As 6.994630145607315 7.48402698824336 2.922979930263303
As 6.980107929372421 11.123567676481038 8.539619014505401
As 7.077876153888866 5.802143403371354 11.016357279185144
As 7.472243136716097 1.9720844485614868 6.817387625936305
As 5.735299997966297 12.890426108944427 7.826079432544658
As 6.16870483349909 2.4607727602823393 4.970496627322153
As 6.165911142704661 10.613875133179773 4.954423401748644
As 5.007925076995839 8.773012543762146 3.7246679359784243
As 6.074858344362028 2.7365628594269245 8.735799593696223
As 5.482022013885065 7.484584791062451 10.033697499711376
As 4.978995892569485 10.622503139208643 7.174953333517688
As 5.579272156073969 4.775266661478643 7.440742566967805
As 4.300207996260268 7.203350383043322 5.5529957284206
As 4.624545111045596 5.574155644924315 11.327330772751335
As 4.107150821700757 3.5171123868045364 5.879680777801254
As 3.9241045981110974 5.893339779151093 8.920182557918592
As 4.038246281723992 5.258490315654445 4.055847857818119
As 1.9995871052961078 8.099346903454196 5.783665159735292
As 0.5384988811195986 6.109162752451394 5.800125012498916
As 1.5822876359536986 5.11999784828683 3.7741276390025655
As 0.7560595044140683 7.44621713185461 3.7302908003505886
