35
Energy = -153.58806782 eV
As 5.030364982343308 8.91485770582402 5.52850629984554
As 10.35731868227939 10.863701616444045 5.196185763348261
As 6.8072207092006956 5.095909190302106 8.443214310098913
As 6.964929018736791 6.016448497796185 4.7438686801389265
As 3.1552071766790424 6.534614444872936 2.759895852711403
As 3.15865595236447 9.001381485888253 7.214196913097839
As 9.733075611234828 8.827005011813462 6.411089567609761
As 8.276416775360774 10.485888556978932 8.428235831113687
As 7.33073689043681 3.613288348537335 12.047611090915963
As 10.57030756433313 4.085492842849869 6.6315921507818585
As 5.234936842974936 8.2810605128028 8.430726386730544
As 9.714292633944709 5.907640584997055 8.080467432082317
As 10.668679188141683 5.1450127885213295 4.357535468713873
As 7.289876601814565 7.127210522547789 10.256163911773362
As 3.495507357810025 11.4848703256207 7.325175922732717
As 10.520955059724626 11.308155507640192 9.011445320447013
As 5.2456376209372335 11.405948691386486 5.51475337397353
As 4.892211513071771 5.053774489749506 3.6732228734903143
As 4.871391332241967 7.216005026978048 10.665006350135917
As 8.87722815461232 2.5568891182943196 10.327322398310356
As 8.250492447151652 9.630152080261752 10.698600630899906
As 12.098384071444203 5.96939231181929 7.328565031651462
As 8.587454704474473 5.779994167471352 11.875830030822188
As 6.739329855974371 3.9257426360289824 6.13772037815001
As 8.618910767395567 5.389179182141056 3.077922011708618
As 2.9497979804288788 12.102359927894055 4.942343684594536
As 4.440869633308141 5.920291078220499 8.402709074479356
As 3.3883824218059067 8.644771182347375 3.7264581309490645
As 1.7931565730908199 10.35956683709876 3.7032846076712946
As 10.63701446142375 9.36527322135897 10.501792495780593
As 10.179547338229067 4.717250075104067 10.243956049095786
As 11.497390764429417 7.327141374276328 5.312463537356033
As 4.352453277036269 4.237709693509815 5.951330460365635
As 6.52276873445395 3.041882372323135 9.800061081194864
As 11.737182012243867 10.154891737881567 7.032822518697357
