34
Energy = -152.52337293 eV
As 11.341299579532773 6.1396970744442365 3.0486353165407536
As 10.888599923243408 8.393312801212954 2.133346002504304
As 9.881602000429272 6.315412654157894 1.093774482271367
As 10.51166663618614 10.422422497476257 5.9296004403132825
As 10.719026143907211 6.207783280066818 6.789779263405782
As 9.894878495841217 5.037680790155327 4.717245653147029
As 10.045716098842064 4.562160560726764 8.481746224874776
As 8.582278959379629 9.214791813288334 2.6641115949935292
As 9.472599757859813 9.89019856514985 8.106597503902247
As 8.738899486987387 8.873442497372528 5.121886226886957
As 7.653103166163924 6.943169346306669 2.1354249744512015
As 8.143048311463083 10.98379078459925 6.304091206388194
As 9.516491723356069 6.3836458642458185 9.9191419645962
As 8.81066981410884 7.437068981030662 7.795106202579944
As 7.583575560308007 5.947342607377731 4.422869379535795
As 6.335520006107738 3.9232796628782016 3.5030286174780194
As 5.377659541917991 2.55693309648111 5.28324076234233
As 4.507443121909957 5.529479630404946 2.9795298081059944
As 6.9777306201655875 5.054586588762966 10.098304152778395
As 4.973862516810332 5.601142614540654 6.9879016890283125
As 7.201936110451351 4.419441697978051 7.652900507396465
As 7.133090457992097 2.6809865968456847 10.733372710430874
As 4.3512228081515545 7.012294869494785 4.966152755969098
As 4.46992797342851 7.269518179843152 8.853778875317758
As 3.519049443361692 3.6616885103881636 6.311769305374491
As 2.6342249058118856 5.22584504969455 4.529124565344557
As 5.9645048099828415 2.3877706955260694 8.453903213863152
As 3.6917784459705665 9.224096007073305 7.58971882185443
As 2.4014177007899504 6.194642018184976 9.604324033591476
As 4.869511103968723 3.504386044689182 10.357480069214418
As 1.9323195333261582 10.11316421251804 9.051742622493443
As 1.0540493824310038 8.097618032034713 10.34946053448097
As 1.3617423889260931 8.93783775071595 6.912917392600546
As 0.5336782839507415 6.927493437400221 8.192117939008705
