35
Energy = -156.28478231 eV
As 10.795625834556585 3.311728094706062 8.185123054862899
As 11.224297176032266 5.559069417824081 7.2601202801099225
As 11.239832947897911 9.834219809356423 5.985535497479925
As 10.004486790824103 5.290943762821517 9.476602611116833
As 9.168913443290924 5.852169636114296 5.8631424629472555
As 9.703493194127262 7.005656139219096 3.671111630533792
As 8.639949126868197 3.57637239025361 5.024755056595703
As 8.406960603127992 2.8686092569627357 7.479506652385587
As 9.834259993386745 10.592840056900668 4.082508469273115
As 8.417848390821462 5.237329642207946 2.561240146619141
As 7.75013684910651 5.117774448796148 8.292480625041899
As 9.314174641075999 9.55844678134199 7.519402495636532
As 9.65432015416013 11.698300829838196 6.288225026292203
As 8.027586055023903 8.898505517423276 3.9248147230204107
As 7.4505757519550775 8.465847719855455 6.27715804679437
As 6.236981947316616 4.3442123837658135 5.352067726818996
As 6.140887573542408 5.856791216402292 3.194690076841947
As 6.053006748541287 3.9664583038441337 9.760044666542406
As 7.434951964040379 4.877962459857187 11.856976326272594
As 5.943890078319835 10.402441485969872 6.861434037581076
As 5.288057056737039 3.5229194921685654 3.201642885622579
As 5.009656122163895 2.8170549159464793 7.653199186314073
As 4.227693661684941 7.924224324831336 4.524271396497291
As 5.066484545005967 7.1314304889176885 8.14342229980682
As 3.6347989645028647 9.7578103153545 6.102829703916614
As 3.3165720261467633 5.776212122779938 5.891175841651399
As 6.0852554113469575 6.641296918722569 11.815811707944277
As 3.0328754283560975 3.9733429169879937 4.1962265851612015
As 5.431651189754288 9.386563570784125 9.139418348881096
As 3.1550494444867687 4.171635620019639 7.996712378720564
As 4.276879139700975 5.712934987688395 10.029188670090743
As 3.1507016719139833 8.680493245522475 8.331492026622257
As 1.9425242379763508 7.872224309724226 3.519195804936135
As 1.5401652959162955 5.515417517320928 2.8850341232596928
As 0.9147432882707685 6.3160466477492205 5.168726175788337
