39
Energy = -174.75683582 eV
As 8.408114120338409 4.758647837984881 3.186039411157357
As 9.100472995309023 7.091724622988234 2.56302453632969
As 7.07063569387939 8.597044435159424 2.420111983646087
As 5.2064422737681495 7.280008705521842 3.4511665730052736
As 6.021802243496463 5.064696993945165 2.6377658785625773
As 5.007160280665713 3.0343420473359504 3.7086833005789464
As 9.940988193586257 7.93099512442468 4.762400082505144
As 7.013711191188392 9.932895499623545 4.564378255515844
As 6.312748555397235 7.76337636285848 5.646676936691543
As 8.825175847184358 5.066570463663954 5.629074188675726
As 2.57053889260079 8.501567237058376 5.325862258587182
As 2.743206865286454 3.689194849841604 4.5926199234829586
As 9.503279807293355 10.35644334558616 4.853683700639896
As 12.366977778096663 7.633865701428817 4.925192815483698
As 5.878113911498121 2.3550574104814093 5.967221377378691
As 2.1083278752451324 12.124256287383197 6.699881488488493
As 1.720606471856151 10.752672769770205 4.872409605222091
As 9.086728902491133 7.643515203154809 7.137014380098487
As 6.831442155491924 4.453749660727388 6.904993616973629
As 12.355015066063665 5.64741568960333 6.467969605929854
As 3.5936813026714876 2.956237392285937 6.84628260487773
As 4.377736309871028 8.852032080759207 7.015146604278603
As 10.169630891646417 9.92303062774251 7.257287845928509
As 3.6713583954054103 5.35561431418589 6.166559397013937
As 3.235338085061003 10.872665701258143 8.385651650239385
As 0.774730761005037 7.974713416448839 6.914403343586299
As 10.779005587275872 3.6183289340410254 6.136447344455144
As 11.069602121485092 6.668790133304654 8.309088480299868
As 12.495140003267721 9.161038396278919 6.834654676776198
As 8.086575854193226 3.6566196580270933 8.932226303132156
As 1.8973876577018627 5.9147868422732115 7.841758710639803
As 1.724995654165673 9.017541901180063 9.010022819652905
As 3.6355284380963 7.37259073368606 8.91722217100055
As 10.531518744489855 4.038726414712617 8.537606991547305
As 7.860279061007372 5.942605557825971 9.880875576198104
As 9.467189606820618 5.632476826452089 11.790439201936001
As 7.818741019536608 4.278865377692687 13.097909752546073
As 6.180545690793755 5.5868170532008214 11.742357052086877
As 7.780797858191992 6.719750553527292 13.289161718274343
