38
Energy = -168.31567791 eV
As 6.00319227471644 5.311606551028302 2.6695697915904573
As 8.31254773749603 4.497098599232104 2.458023160795847
As 9.785851537622046 6.236071310464893 2.7210114221555792
As 5.598030082859568 4.009334797253341 4.6176007805477015
As 7.627578639846016 9.003684300349077 5.184815323754444
As 4.553647899106975 7.558174219733819 4.325062661310772
As 6.382548911252563 6.155612185170112 4.965156318097194
As 1.1925583292919517 9.460994163666715 6.4698713804501
As 5.427009715670792 9.788137034007104 4.537545766153775
As 3.6678123535027103 4.007361451648686 5.087381866613701
As 9.21439713167128 5.1067794199883325 4.629465586156409
As 6.452725575928054 3.7564405078294167 7.35735976885816
As 1.9877989018447568 7.232566507227866 7.2489022915759564
As 10.196871852762943 7.482026602206809 6.237002021318743
As 3.937228780937294 5.232893321782664 6.729692711667201
As 4.936193687051597 7.960038255594915 7.622912872850817
As 4.415402471175919 3.323860657356565 7.192580525189009
As 7.812733836008225 0.17493177933327964 6.757619729453181
As 4.161472977753925 9.070936964218408 5.759371378512347
As 7.036559716969833 5.547535560731377 8.538079001817081
As 1.9877989018447615 5.608111497793436 8.30823882681914
As 9.677322412821468 9.232690759340592 7.9429351802658195
As 3.2291272866809755 7.805207637459877 8.886135410716335
As 5.615913071011414 10.061905735354516 8.845253585580744
As 4.553647899106975 4.048776215964224 9.914817956551307
As 0.3546473598853685 4.685337932569557 8.896051798782862
As 9.685008317079559 6.610359743818169 9.885748919820909
As 6.949959723314921 2.101911390872647 9.192605948320036
As 7.677689529285435 4.02807604601727 0.009697662426642625
As 1.7106003299841173 6.625612886494942 9.698969335485492
As 2.188172373676104 4.370177100137413 10.243587107947247
As 6.214480851383373 6.612185472684118 0.42586626210037565
As 4.665403115675093 9.604842210486964 0.6807247307437531
As 4.281070151146704 7.228204598118076 0.5547041566818598
As 7.036994682376447 9.018354038486569 0.3033196982391718
As 9.977144265201705 4.497098599232103 0.7508634379865936
As 5.799540122502137 4.092446030463755 1.4771372037729256
As 5.02874773851248 2.167176181847921 0.5547041566818598
