35
Energy = -154.72032996 eV
As 7.4829741394821205 3.545193745134428 4.601302391134403
As 4.978756489454391 5.276751725738108 1.8178728488768119
As 3.533127637165601 10.177354953333085 10.785858498088711
As 8.631024339512567 5.523487508481748 14.233212406088175
As 7.664037747367545 3.7405723214214572 7.0568691884143915
As 6.672420191504562 5.098392231230501 12.739924633038878
As 5.379693941799151 10.43162888334704 12.415291204328998
As 6.882754514660552 8.678159435464776 1.6080271217312865
As 5.0743831754814055 2.7693481359621845 4.687153368692112
As 9.325247186638098 9.42649192999242 5.967949200309332
As 4.341599725203728 5.027927625612641 5.489354992312668
As 9.071783248374118 9.700790473972337 9.096804447000611
As 7.653471389823296 6.275171584290034 7.141650538736626
As 3.8713775275792153 7.723295043989725 10.584776006818542
As 5.771568666997264 9.278887487976252 10.240351873408379
As 5.58754164921324 4.980698077052453 7.651909747360357
As 8.734995389430933 11.687361598689472 2.9973410382800125
As 8.004815487195009 6.629720509113385 9.621987780882966
As 4.393462712760197 2.9830172048086108 2.328350169297633
As 6.163270637968118 6.691405531052405 14.233212406088175
As 4.043919170681503 6.913541410589138 12.920628056990429
As 6.815930810395702 8.049566261311945 4.058840142770786
As 9.904677457676971 5.26174358323416 10.480623013439073
As 7.334206714965886 9.406846431467885 7.443121875171569
As 6.192946027973904 5.634637581092048 3.9742754666212607
As 7.626114080235284 4.348491956995412 10.55310349629119
As 9.985431193014652 6.66475679174783 12.53688752895855
As 8.005735542998767 6.9936457510355625 0.04760879386395362
As 9.230691279426289 9.44986232940065 2.099347688831987
As 9.273715971207164 7.851048792516068 4.03242747201146
As 6.717707447635284 4.868108768966929 15.690264260298916
As 5.093568805073803 8.608955159543308 14.071506367415562
As 10.98935093188045 9.476992813541347 7.750208849770278
As 8.989385812551081 11.748313046718836 5.257583653568713
As 7.578450707035455 7.3912675089721445 12.969369468630136
