37
Energy = -165.86493008 eV
As 5.98518386237211 5.379365558740798 9.91144326599795
As 1.8564995784748581 3.875579052791791 9.81064043383291
As 3.48918258821282 5.810080463382659 9.576492859006336
As 7.235284879128433 3.0861510237119107 9.941590152607102
As 2.8413567226833103 1.8714720785859804 8.64067217271632
As 8.412524766281479 7.26069955296208 7.713814828332358
As 0.57149270323604 5.083007048322416 8.100062714318142
As 1.348423411187054 1.4253649615919524 6.714564223278394
As 7.85301322163476 8.852105782222887 5.8855692402401445
As 6.693529350409182 1.8069142670014948 7.883484818234195
As 8.218903331024471 3.736050411873635 7.75066742789027
As 2.9449092715519547 6.0672191307558725 7.153877088669926
As 4.677356797654324 3.2570535434158687 7.7834042473738
As 4.2161690183106275 8.333306165228745 6.852080755639411
As 9.431437296196364 3.4353524779656 6.393178225758329
As 6.519126435656218 5.645325310129047 7.498036301263675
As 5.7450835369202 7.843394426751561 4.961950731629397
As 9.35606677983403 6.9034487485027585 5.428781912633424
As 7.325660774098442 2.2194094225951537 2.8439145514289588
As 1.9129274229112967 3.00439267983779 4.896791561395826
As 7.630018380938161 5.469849995508399 4.275386630393611
As 9.209496877904286 4.022587393196875 2.907814917731226
As 2.6869241002233077 9.28260954794523 5.085723928027581
As 2.00739982159576 7.223934909930359 3.869364898085613
As 3.532334412888585 5.879477151375101 2.471500953819593
As 4.776608391456825 9.918432835951391 3.9365673187533856
As 7.671434332759102 1.7350479095403146 0.45652710437115007
As 4.567132901181249 1.2614679489461214 2.716035840418098
As 5.400805189609001 0.4666852188482801 0.5251884687149022
As 2.2574278106833 7.869919868502394 1.5167440202328455
As 3.9456164044402273 2.4379804438726898 0.7825011497970221
As 6.3990422945436 3.7435028997359105 1.0826982120906237
As 7.651295577963694 7.0941504215297675 2.3734976006840345
As 8.513903580719687 5.226373717647603 0.8982969386880256
As 5.411530126106715 7.054963725001726 1.2754421546697765
As 4.3630570449704935 9.290599990842836 1.5365266295305338
As 3.9395401502941008 4.239360013074774 5.661801819565059
