30
Energy = -133.00934514 eV
As 6.979224968792698 6.414663442642045 1.3334337731453196
As 8.87913997686848 5.266758236762805 2.43408232857035
As 6.786345038910648 2.44742526334346 4.154338911650122
As 8.756148120397738 7.731893359358057 2.4403638327329307
As 4.870376698103032 6.558635419635242 2.7222932314755046
As 5.481508959209022 8.599629249057953 3.8700959424392534
As 7.766901598146516 4.665181341314833 4.603798352212268
As 3.725817690077829 5.027678481341349 4.368174494591956
As 7.903790662289348 8.778084994379324 4.551889229694763
As 4.635563311074742 2.91563880448996 5.29653187290648
As 3.5377816123812402 8.570317990884416 5.440293641878287
As 7.516047397375751 1.0156588670445157 6.081654863345387
As 4.0935331445420955 10.335168163496297 7.132549908061496
As 9.3399196583812 7.930619043519607 6.397769578821338
As 3.173959930257666 6.3545897671208 6.436886996741812
As 8.731916427207427 9.960459361574106 7.8085864117387205
As 9.221156242218711 2.322481151689573 7.312831550133018
As 6.4765520549764934 5.974414602159217 6.611890199650182
As 6.879703338204923 2.1974292213662827 8.18720308442865
As 9.807481560276425 4.273105661676873 5.898821220643486
As 3.373252183958666 9.457379832890405 9.34807902974502
As 6.456009354697653 10.985028932615544 7.83723686675945
As 5.242657550604276 3.9824044993541214 7.493799655474666
As 3.957603561024659 7.029126407857482 8.915778733844075
As 9.08697506365017 9.337668728052499 10.125543783631315
As 4.759476136577004 5.291514103717274 10.365353203740865
As 5.569931115486377 10.43334800176829 10.10834662593695
As 8.762030057067502 5.841034456041061 7.6213301469756365
As 6.3423853038439395 6.789661311974332 9.246677276748708
As 7.000699352606248 8.626889372081113 10.968253321490474
