31
Energy = -139.21371823 eV
As 1.5693558574400663 3.748897462633556 8.240038531179975
As 1.107262722376137 5.175723345204594 6.303856315826287
As 3.3677059423693825 4.200453182346764 6.603275724898703
As 1.5852622247170676 6.232021885654656 8.523266345848253
As 5.071083046969845 5.696813064967862 10.083365238085564
As 4.190059989950311 8.92650286221591 9.043735019515806
As 4.021760691850335 6.507541251663791 7.9742330445878755
As 6.665199320544567 4.213689715025192 8.852239416906853
As 5.9370975989223 8.016795897010287 10.574347637114727
As 9.67930245834504 6.807414495775417 9.030890222617614
As 8.773080619859966 4.713409173170029 9.98574408709629
As 5.354335900382674 10.186204481218464 7.244371874398485
As 6.522340740808256 4.649236504541149 1.7762111743512101
As 8.258945338422789 3.8806255955236892 3.3873846250344557
As 7.861901543164949 6.313851977742557 3.0384438291733735
As 4.904109131498392 8.492822950808806 5.385132804492602
As 8.100561671227865 8.729217350059978 9.520507391668797
As 7.423073068245883 8.80145320507281 7.157265335846684
As 7.169417642173736 3.214491956397656 5.557243206289632
As 6.870133839602613 5.394760050714855 6.663797537108428
As 9.20114429494169 6.349064191041149 6.638930488703019
As 10.207579768918508 3.1935996655724983 8.597005198665657
As 5.509492006526621 5.889257763135978 3.7094017825973293
As 3.117774511034512 9.14668326249822 3.754358883471158
As 5.473971969346516 9.779103893128553 3.3481204004076153
As 9.425897735917463 2.458756560853223 6.343472006527493
As 9.197885959021805 10.355965023561208 6.25135805151977
As 10.866486851652727 4.465931206949861 6.555728269829926
As 10.528023432143518 8.536319140630972 5.220257572802364
As 4.53561368828512 7.761775903519237 2.249432677215236
As 9.012902725394508 9.670379273415927 3.8953475982728376
