35
Energy = -155.89436487 eV
As 0.012830439059572336 7.9093875302118954 5.217439055254266
As 1.452374125830534 4.5393695280176365 7.351569343378952
As 3.74758745530302 8.666331027023677 6.998952891888912
As 4.549788956268674 7.524758426870442 3.9219450210112567
As 1.4393298560637202 9.359459487931426 6.673001091512204
As 10.628876544124974 8.227504799067527 4.920541846576158
As 9.51118852434458 8.10892327884912 11.277176484907237
As 0.8672522412886826 6.142664013586166 3.7104593220407187
As 10.450068586240745 2.7442793901625158 3.9161885047119833
As 9.480276306629142 10.078076217652283 6.187290649623244
As 8.58455752177528 1.2532916024810625 4.722280554455303
As 7.277830180018567 8.901940393089413 5.83447395410761
As 11.77049844197363 1.9687012010600862 5.895536674385281
As 7.324433111340916 6.654606422963525 8.855431358903619
As 9.650533884997062 1.0905012126653848 6.99661345599616
As 10.770901950080441 4.271342378301383 5.803038004984939
As 7.11104062010218 2.724485185074895 6.032844832639
As 2.1517168248539082 8.460350553955157 8.863052378865913
As 8.12078827983947 5.701790285669047 3.660434044735003
As 6.601212887048479 7.281867256590391 2.469245821005534
As 2.4147064913269087 5.989620992326929 9.094990524007958
As 11.77049844197363 5.546888262420865 5.855143952450741
As 6.2230354319418675 4.25898612952552 4.303731457865844
As 8.57754629759115 10.117458408883447 10.081511231334341
As 6.468262920705166 8.850458395124647 9.535615780627651
As 9.802825604275096 6.973667868959663 9.019490702130991
As 4.701262305067132 5.785142100984158 5.669901005712635
As 9.012594836844901 3.506661698191043 7.412484995785341
As 0.17135742343761262 5.060418010305067 9.363184590475264
As 10.236692820559893 9.334412484774491 8.43999650517397
As 7.136929389466248 7.201526918957693 11.301316009434794
As 9.712591972545175 9.045277819671382 2.7980636463048945
As 8.708584204487131 6.858539350702157 5.769490934676649
As 7.36779724821822 9.456993243019669 3.403889951062348
As 3.259590799609385 5.417644551213855 3.656999848256191
