45
Energy = -202.26887787 eV
As 7.450963432442063 5.940574898614291 1.7572399681985984
As 5.180624209840477 9.006569017273318 2.3274534451938127
As 5.372016346339618 5.401947707068937 2.975160646364943
As 7.4856083317251905 8.464196839247041 1.6688589614686276
As 5.1768144854484754 7.427780809702725 4.292833480265592
As 8.853953070424263 9.150409927966981 3.6193726772396273
As 8.407664506105858 5.4783013598111125 4.0379419126905
As 10.905911913155743 4.814039340722149 4.353472102086495
As 5.669475649964509 11.334639792354759 3.059493982455529
As 8.131219294168368 11.532557227962915 3.317007245882027
As 7.902429430968433 3.077596317780486 3.8103023792746216
As 2.8223222960650842 7.0568482610522985 5.144649652590164
As 6.64669097182506 11.353314318003521 5.3538920869585525
As 10.499730065291732 6.319734139980732 6.282089254851898
As 3.505893637228426 5.016223306863393 6.467050287083856
As 10.057468999892606 2.564113441224643 5.0269719251096525
As 2.7103175906651247 10.852193633731954 7.099557162089056
As 7.28043718537074 8.939799938563546 5.544048738932659
As 2.6722242714494557 8.320972340422992 7.2910375708901185
As 11.025427584189888 9.524396202088223 7.2743643352725105
As 12.469487177378085 7.376122075499706 7.408000187642883
As 6.037802113831022 2.985451321414646 5.452777173960872
As 9.514103420376133 2.604940842568435 7.435144325740787
As 6.01809065443026 5.252814448292662 6.520761944973987
As 9.299080827258269 5.025394063537862 8.013501574942564
As 7.080917824912674 1.920798755212659 7.480247119579685
As 4.929510022996315 10.879677500839717 8.30418039306443
As 12.416546768144732 6.676518494960682 9.81864397764422
As 2.37683369878582 9.076143947282276 10.843787258765493
As 5.075121973462537 8.394941336159533 7.963046641237959
As 8.769221248521626 8.44798191533893 7.61974668650953
As 7.229085700196024 6.519967237598781 10.074939619795266
As 2.8238441784482973 11.107572890855295 9.581527487638649
As 10.815038080613064 4.755149725085152 9.98800768008568
As 3.94914989146982 7.504705702706055 9.993400589881938
As 2.7438755176013396 5.590761955733982 8.79643851276152
As 10.736092370586695 10.445570804210496 9.620126797054429
As 8.231664724714838 10.275059911565684 9.350213646643505
As 10.37153411270181 8.041051910622967 10.052406212795432
As 4.321087750366512 4.007776124038201 10.024638336944701
As 6.465041392997093 4.054252983837862 8.713361036718307
As 8.934403339776475 5.485449616249117 11.615842713648686
As 7.407776752510095 8.77214371222006 11.30268981561151
As 5.211280770894836 5.874522431186423 11.473375235025488
As 9.510377302541077 7.843182360622689 12.344558104508392
