49
Energy = -219.67893992 eV
As 9.316265771998557 8.08663665657368 1.1742016056372924
As 3.552782409583511 9.03224239707872 1.5814562247611839
As 5.890794727650029 8.098756475329667 1.5386653872003238
As 7.4543429354537025 4.6342312539938035 1.9839488733708581
As 5.215411400284794 5.691462415915225 1.4930505854411484
As 9.159646151075412 6.2318976796382906 2.7707272314457096
As 1.9897014000706716 7.073115593611327 2.1236391575760036
As 10.517005909519252 9.511689367052044 2.507267276934007
As 3.448804998638793 10.396812914879849 3.6702113577916085
As 3.466383808910547 5.365899194759469 3.224892452232143
As 0.6823480492071765 7.837417460143622 4.002097341765937
As 11.527227776458831 7.642795873778108 6.134069214908314
As 7.33318050151057 3.333242872650618 4.124930197610522
As 6.020360464521555 8.195107690842342 3.9861236863261404
As 11.265304339402558 5.126807899726162 5.9126885418097626
As 5.854811335952184 10.661748832439862 4.240378294280884
As 4.070765379180896 6.358203182620041 5.450785254840853
As 2.613866712283534 8.552912274767253 5.1952032629050695
As 9.850182280174673 9.056143524702986 4.874920049657352
As 4.332874033682805 2.8200211277081757 5.9219449989905755
As 5.482395695078012 0.8533599486696211 7.055637353371605
As 9.834585969084642 3.4363488292273674 4.56789043399837
As 2.0901107126053686 5.454766718123142 6.796718930379111
As 6.197172277324334 4.554585570547112 6.0385321789493664
As 9.67396955573408 4.601890398136562 7.7141089539705465
As 8.185128233754828 7.236339681667553 4.796586861926705
As 3.1202197411487567 3.4785457342197743 7.990004749850047
As 10.54550626920053 8.4933528632952 8.299112194544927
As 4.965198381564951 7.18249417132804 8.316654655061996
As 7.390261956701779 2.4194976596062956 7.108879926485581
As 5.4414702132420825 9.742358366229805 6.586474342132649
As 9.890869440060682 2.2705663758264394 6.798281911223861
As 7.570534438969311 6.229913887826511 10.015751951064908
As 7.538300788028964 10.777421055432832 7.400981679257834
As 1.8797632840386307 9.278301548098508 7.460134716956261
As 2.5206433166272717 7.083529348169685 8.64755860486712
As 8.06179539037082 8.350294328611573 7.902332572148033
As 5.195094193561258 4.2523245531090055 9.189326231705252
As 10.878451397044278 4.4579567139496366 9.881473979755189
As 6.252848198335071 1.8883537309129723 9.206319546864801
As 11.183731546623966 6.9405761174185 10.212524287239205
As 3.7752266016723905 10.773402408165866 8.137978726930022
As 4.848411815998436 9.184141199246051 9.808450745575344
As 9.146183924907636 7.51865142292196 11.509047358639313
As 8.613423317544113 4.057267038296135 10.821465507019925
As 4.517526461711371 4.525234989820988 11.527306513425257
As 7.266033806928261 9.919889124942227 9.71296386831008
As 6.164855561634878 6.232644725464619 12.08962251250587
As 8.579882391557389 5.470502069139436 12.868332976969125
