42
Energy = -186.64172339 eV
As 6.840590995666037 5.178592447144325 1.5830913253248973
As 8.645845521372364 6.820096206382244 1.280965474477848
As 8.266766018288061 10.054421600808897 2.8487128958595243
As 4.800565239803991 6.446592155278757 2.211102508481809
As 5.945650756380274 10.602869130279743 3.577695600609816
As 4.586743392793185 8.938981347514275 2.2469676025650944
As 10.852662955543831 8.471019253237753 4.039768904084622
As 9.775010026663272 10.617168698173716 4.812376639870645
As 7.9931756091151325 4.681008624893039 3.788063790249253
As 2.4025930099201847 4.887253108856568 5.385918858618829
As 8.4958143773387 7.67772818649806 3.5795382500000192
As 4.2607019189872535 3.2115533537756416 5.261114384573871
As 7.2558827498445515 2.447348552975892 4.728719953794053
As 2.755880773535023 8.556453631581267 3.992108672859427
As 4.148387368316527 6.57442809926694 4.733475041504322
As 3.054817016306527 6.3869053868967045 7.263322840339817
As 11.400683921570064 7.292527923211618 6.20824932889267
As 5.712387048798535 9.437614710599114 5.748613828100135
As 6.326138702685086 4.596949651377248 5.625003087807904
As 9.268642977921695 5.944726062459888 6.660926676101697
As 8.567583401914193 9.319776237716598 6.592352021247972
As 8.630316238594123 1.8964851946465162 6.718647466895975
As 3.316243274130624 9.90623125214954 5.929287538469526
As 9.463589929015969 7.001638164505605 8.931601173758338
As 6.9069015431160485 11.174149484287442 7.148001154902004
As 4.427069846989499 2.6244651190017194 7.710128231364178
As 10.683470141544724 8.978468388759737 7.92898419960293
As 10.230195484611691 3.710364719479578 7.259624322974553
As 6.751314679235048 1.9211119361797777 8.467071029069125
As 6.601542335711917 7.998936716643526 8.697955194791243
As 4.329467196699367 4.93183803341911 8.785574746294053
As 6.731672037245187 5.504532237303241 8.472661603277663
As 9.850581401562428 3.5132958714259477 9.712096942293927
As 4.25809352724147 8.872753599867918 9.026824789527337
As 5.774956592147681 10.869579469042215 9.418261212917354
As 10.807933842746726 5.662015663595158 10.386440509684645
As 7.4441582725455655 9.368171578139842 10.562668203846457
As 7.3641825271285155 3.7391970253660745 10.098480816445193
As 3.7472758320002866 8.461151883942785 11.431106778847
As 4.041558754411373 5.980388338794179 11.580560750283363
As 6.314618329955812 6.175270772028961 12.164765268301645
As 6.026696400795203 8.624302152684937 12.459532351282007
