48
Energy = -214.39773975 eV
As 7.153826194703788 5.530756753579533 0.947611429647426
As 6.123621684008723 3.8577256599460794 2.4707698302967764
As 5.833641592800676 7.345336308712117 2.1328670116070234
As 8.808147366526661 5.392178581058407 2.9347312296019377
As 6.593798665949224 10.183704044057269 4.004196399761458
As 8.854203034845007 9.174098719594584 3.6247065415422552
As 3.4953666328851445 6.491920789897136 2.554315177823299
As 9.13127068539103 2.9286266174837956 3.620622891263779
As 3.675050694583192 3.997409292559733 2.331889803926911
As 6.581533122816598 5.807051846175763 4.034058163267857
As 7.148530535526007 1.5783465054389363 4.318973436789026
As 6.4669729788667665 11.596226686102504 6.068761801693988
As 5.163225080902811 9.47184987314242 5.875543138792754
As 10.324801255371048 11.11538666591745 3.9667683260046314
As 9.947488798255803 2.9251539484389157 6.009428925685649
As 3.6963902854923893 6.092619555616846 5.0622105589720645
As 11.972646015926378 9.190900591428248 4.299309036004975
As 10.14497911197821 7.731235131423518 5.20402202300738
As 3.5875928590800616 3.5917004665830747 4.848033390935
As 8.827124045303167 0.6800779526707107 6.083588005389679
As 6.065410506331948 3.4532256312948695 5.612992949687501
As 8.3446251585219 10.723919863699221 7.4524076585538355
As 1.4343299240709488 8.163773305170764 7.384736757429688
As 10.509384094234289 11.465972650852978 6.432025641474619
As 3.3900342868747164 4.8486206903825115 8.054005317313809
As 1.224017741827352 6.686772231270194 5.395256383379597
As 6.202880513375158 7.473917843084336 7.0993861916762935
As 11.43261279283731 9.183628788709601 6.746016972005881
As 0.699942234681041 5.914641775282542 7.653536402209127
As 3.820390142395051 7.294930361220794 8.059916980569852
As 7.95243528293969 12.332657529556185 9.351952566058303
As 8.437268328582938 2.2777484768105323 7.909312677455216
As 5.936595467814103 2.4714910030721833 7.868171861293249
As 7.055245233921113 8.717117365752344 9.116672702484708
As 5.506966225618639 12.103643680837473 9.312566874847146
As 3.812868201645714 7.304905965041793 10.60473196237355
As 4.084244853829944 4.796156196335963 10.463701857154629
As 9.338158509098525 7.667960419043107 9.369082207142904
As 11.048550339487067 5.073992111142728 9.402288965846543
As 5.91789611479499 4.835201710683752 8.72772044969091
As 8.5124474211495 11.041786722854939 11.409772438725552
As 6.2476102269778835 7.464356267234887 11.119972347933293
As 4.725324607581641 10.806894652308213 11.042726927729776
As 10.428152300236546 3.9708435487008993 11.304704641614917
As 10.371631052519811 9.54027263982004 10.701583684296514
As 6.540982886116101 9.754261586012369 12.271760642210106
As 9.504860511982868 7.517255070868725 11.826848880028434
As 11.604339850944463 6.111161374734838 11.593155388404437
