46
Energy = -205.13232631 eV
As 10.018444619999315 8.944504317292735 8.784661798598258
As 8.771342778148748 8.881970038527502 5.594626447274634
As 5.982265739537212 4.7556482829146765 9.01078460242446
As 11.931257248498683 7.943715725720642 10.00965379168635
As 10.406267974265111 6.396231619681296 6.951808142770491
As 11.689568778779117 5.607748002900473 5.2575986200014775
As 7.300855295683568 7.547761867363364 2.4382261470327276
As 8.512970251805932 11.96937014066341 0.4977959946765016
As 6.163101158308083 8.801076122661401 0.5861676287605625
As 9.7996342765445 6.669057783844697 1.6808270310991056
As 9.159954449120786 3.988329598513618 9.246382337584217
As 6.143618419809484 5.209727641547995 0.5715389040217991
As 4.455755487933828 10.070380877889505 8.2756914972112
As 5.215485177341915 9.731877989203241 5.624448219126261
As 5.2154851773419155 0.36617048808911096 8.453771720324905
As 8.057286523611388 5.857820517205966 9.523887285746433
As 8.35981196046293 9.729229725375959 3.185946785738178
As 8.76722880303595 8.147035035082252 3.3126903799033474
As 9.307493005735498 5.290540975565209 11.677172926741088
As 11.577748640344048 5.532647139501501 10.527772841945543
As 10.562107269873982 6.377714960949673 3.185946785738178
As 11.311386223470961 4.795339617313296 8.260992919284298
As 4.8938172513189775 4.133813992488346 6.243894196121672
As 6.138645380314255 7.364485719090814 3.3694627856792603
As 10.369401378631395 9.092038309502048 1.7024263186181916
As 9.972984181490325 4.493523148753384 4.152107626169837
As 7.931074777262475 4.967773595888804 5.353702706008973
As 5.087028167068511 8.121846405018038 2.5330016543858513
As 6.6959702752328045 4.9251579907313925 3.188280793964633
As 4.646837222095191 4.684154801008359 3.8106215562497776
As 6.847986861049115 3.177023691109501 6.035563089979398
As 7.236774735225667 2.7743761078173024 8.154284794730458
As 6.608306469836332 10.95910540459075 1.8127411112156384
As 6.582810203689785 10.681586998394547 8.946574673122297
As 0.01623421585615314 8.202890730367093 7.542169944992376
As 3.9748477762202628 6.684278843108012 4.528907704322107
As 6.4604448413408795 7.593000989564247 5.824458373159475
As 8.436615073475757 0.3974969136228024 10.057500575123122
As 9.171419744359117 9.788127972456477 11.70894970784084
As 5.0646311921599105 4.145442741451847 11.104525732120893
As 7.233885250445951 10.773159735921748 5.121728509024426
As 4.3287444411854 5.86944065118243 1.6921848560917891
As 5.032750034107489 11.03206295618476 10.499803163469188
As 4.7941422750624785 6.241971982352992 6.466426229626107
As 4.677280759395674 6.277315431564793 11.299616412627982
As 10.537180204827333 11.079681400955005 10.078486316224147
