41
Energy = -182.9185117 eV
As 6.1346885296624585 9.016819820647637 2.552951891934466
As 7.630819446788191 5.424113221991579 3.413793349746244
As 5.591147122406102 4.761640079215272 2.078657900554838
As 4.611803180764981 7.061190673320009 1.6649601006539083
As 8.965551591422702 7.275449367555802 2.7528562259557385
As 2.6745857893881166 7.098580933022574 3.209843816463114
As 4.384638006667495 10.737184118477488 2.5671826044417876
As 9.102705782311663 3.2866185298610544 3.949705514824636
As 3.5393762560869084 9.267685976734146 4.2451150558481165
As 5.820537308214147 8.576238330568183 5.047132145157482
As 9.886770895100351 6.930524061221337 5.009254643208119
As 10.887946060373395 4.537298980067039 5.047727724761097
As 7.663975062702559 6.279672567843958 5.926875722258205
As 5.3547426553016555 2.869366582294649 6.060873324842226
As 4.07548936202322 6.023081816457585 4.931648487178732
As 4.197179703923546 3.7643631214454483 3.973946761731202
As 8.626500844025312 11.492129177231165 5.9508352133003815
As 7.765501022473957 3.6038803994318243 5.9967509362707165
As 10.619873464094486 11.166436995743386 7.347004461921444
As 2.8068063723050365 9.993924087856524 6.588810379483511
As 2.836666618881886 5.797515670137359 7.114732130984464
As 8.703011563520835 12.50271203164734 8.232600603116873
As 6.369248688038432 7.136898149580914 9.720582461240035
As 10.702865846945683 4.279715846243713 7.644421151726509
As 5.1290413812826205 10.880505621811865 6.3298706053075335
As 9.060531679867918 2.3754250507558687 7.704437646269241
As 8.850979603745445 9.397507489391867 7.321618269249717
As 5.144734643582689 4.87736849054092 7.634737317423057
As 4.097558242739606 8.018435737940314 7.428176404045124
As 10.900760463769867 4.843412705873634 11.092098129097735
As 10.09252943902508 6.963789279817255 10.302570867577895
As 8.879161804163134 5.951683581055873 8.316763578190846
As 7.813049272165242 10.441502002368836 9.374576227209824
As 4.420825740583712 8.739884270538615 9.798583843198553
As 5.425404332703346 10.844249615881585 8.853976115420581
As 7.78117344023405 3.8243351539243373 9.358078257308337
As 8.022958855950568 7.485342017625044 11.634761387065458
As 5.185419427406617 3.473203279077167 9.702725939143189
As 5.261635981063387 5.451851116992868 11.232072609064472
As 8.912844933452057 3.592569501850779 11.583302481206593
As 7.391262267720231 5.278197228834538 12.625690398495363
