40
Energy = -178.26171885 eV
As 5.580293594494316 9.285380066403564 2.8441296404110887
As 4.932670936117211 5.663365496226181 2.7180904095602227
As 6.942316755888563 7.187512691357758 3.094168843385151
As 10.614501543236033 6.415375008792559 4.74863768509171
As 5.808651422278361 3.476954714285976 3.5823900860590023
As 7.344707307979368 10.892350686027733 3.5916375777671403
As 4.0213541499465615 6.226676089670383 4.964794147894802
As 4.782786662720283 9.486087775511551 5.206647180452554
As 11.35930307908016 2.9447788072672574 5.0728174421199155
As 2.535236070218223 8.276533878553519 5.239143334316874
As 10.784819249273031 8.624537550664483 5.751439826123976
As 5.358339614527115 11.924177867514224 4.672645400159713
As 8.607225807891197 5.757472706233756 5.957953521536161
As 6.117271124674325 4.043828075164943 6.1119143879886195
As 6.8353429806563355 7.441293094075142 5.583431138278748
As 8.310604623857541 9.484869683919118 5.548767255875831
As 4.157597819313218 2.71932156529538 5.346641668433451
As 2.3617289338817122 4.445135310836582 5.282519310358653
As 12.86959482522359 3.4743074225622737 6.865193505736293
As 5.391134662176264 9.404481320333998 9.269372550763398
As 6.252941968821092 12.625134223560375 6.906840547769677
As 11.29734574519326 5.5502890042559425 7.554296747336999
As 1.9680798366374426 5.399757168320598 7.616128105956999
As 8.29647482789662 11.300114744477465 7.297105331323296
As 3.3681024836768523 7.481106854882727 7.513414391720471
As 11.318799656288924 2.5094702913260014 8.58451441200759
As 7.490243600111718 2.252496755577719 7.199563580370355
As 9.726982031843294 3.312019802556236 6.822258519709995
As 10.819545706690963 7.983371370931606 8.171705087022463
As 2.3872497096461816 8.245954538138749 9.678058339519643
As 11.241840606574476 4.614046363019459 9.911615935650863
As 4.586036241611695 11.599272984722118 8.426968227697738
As 7.781953277342081 10.15222529060632 9.413832063930313
As 3.4884059271092203 4.426331712872315 9.323316375963437
As 8.563686988636015 6.952463441796904 8.217763460861375
As 5.662209290426445 5.394289779117418 8.606098960227351
As 2.690731414030484 6.277271342063534 10.8377418795994
As 7.093134588855948 3.513171098976797 9.431064474445712
As 8.790125069870482 5.233412473857811 10.067846068237476
As 5.96574842865294 11.508479511593535 10.472651141685894
