41
Energy = -182.21211259 eV
As 6.967226236425593 7.3204568236059995 1.2327042873996645
As 8.14837086371028 5.411312989113213 2.3507641722124806
As 9.972383422706072 6.480294947486787 3.7475982471509637
As 5.0454048926591355 0.8671962976015142 4.549782258876329
As 3.781899872555624 2.7630016406076643 4.393028903586887
As 7.777987329669831 9.110946773130799 2.852823835272166
As 4.935188609888932 5.8904838365330585 1.8388947700062468
As 8.448570810043444 10.701664300399845 5.487842095921883
As 7.443671139767833 0.9333506404090242 5.165824186306386
As 5.177392827474908 11.378801976901956 5.769956988812816
As 8.357930571002141 7.972820811339326 5.0283766158151115
As 6.2209490690711755 5.951335309959859 3.9043960800188255
As 2.96095326089229 7.148697359284265 2.7512385026375186
As 10.174818196386425 4.336273308272492 4.952285457650989
As 4.857024976408984 4.633489394664431 5.543189035521627
As 2.9899044266592476 10.173495190636775 5.43476359005045
As 8.089136296229382 3.1840931272894437 6.149430134161287
As 4.3405411062778825 8.28619387369004 4.457062584675732
As 10.003977694310125 9.825276768865413 8.639865587178983
As 7.474775117059794 0.4744422173435864 7.626896149471069
As 2.9855162566559246 6.292079033473463 5.101318346605144
As 6.729177477494742 11.220980479595726 3.757534581381166
As 6.634463942856673 9.578665308791159 6.750421786854742
As 11.380150768402526 4.190556609093211 7.032629255544345
As 10.188499397662678 8.103303833831218 7.029848753794968
As 8.403152146428956 6.418366386424181 8.090455709192515
As 6.209441154171776 2.517877948483294 7.89976422147929
As 9.831319853010074 1.9473930827059212 7.417734475670614
As 5.029394627384133 8.268845223165513 10.003885282479073
As 3.3257888226779633 11.110185732248121 8.94271305423196
As 7.152807867103192 3.2057583068911155 10.057150988498682
As 7.544122977277627 10.150022246921493 9.04329321048543
As 3.3387140889449847 8.96283764632032 7.599186381335777
As 9.617191327883898 3.0157764852597766 9.67419652112217
As 10.401339081751033 5.321375731754722 9.065404172463898
As 1.4638158900788496 9.466105222552684 9.119906892012349
As 8.456144347656949 8.053266314437153 10.024156909173344
As 4.3202459560220845 10.309387594241858 11.162633073880707
As 6.297758055828633 5.4884529890339735 9.526836620553395
As 6.511294265250337 6.8955557774141365 11.485097146096631
As 2.745800943710226 8.37382642767719 11.07335510186891
