45
Energy = -200.24979528 eV
As 7.31256306896295 10.033432727101475 2.867871828116957
As 9.150177549908614 4.58623211611559 2.4890759136248213
As 5.169809167082334 9.820120259741714 4.043969585861379
As 3.66160414941781 5.23502057800416 4.37965608059888
As 9.755245417132354 6.998168238155403 2.677186211325772
As 6.763913179195158 4.415775740251756 3.1810874972216263
As 9.230281883227184 10.541079571841408 4.464882010091434
As 5.018986656125755 11.844489931819576 5.467768424074443
As 10.937047616661879 7.3651422321278455 4.875933913192789
As 4.929267774500326 6.440755819172658 6.072800249871261
As 10.484229129420202 3.5252699673631684 4.242513161062558
As 6.831685897356742 1.9790078697880176 3.6154495412374223
As 8.20472041859326 12.236029484720918 5.825294109568052
As 8.865664626609108 8.44218856401399 5.847563631404512
As 3.1351097302154023 10.784381241364756 6.792821240712454
As 2.9976841458131687 3.4750816886026943 5.931974403570915
As 5.41747851385225 9.91227948300168 7.004442926965895
As 7.582048734766928 7.699129580805295 3.7473451359926706
As 8.93701557688976 1.653276503811473 4.874385538803408
As 10.99675431295354 5.183815249202993 6.101075806964274
As 6.718078675813063 4.622709390622428 5.704688798839387
As 5.376469966312077 2.5737432666375266 5.878629624000377
As 3.328181197665012 5.3284102126493975 7.592309698955056
As 9.150825139120643 5.815925144059996 7.680166491242647
As 9.570523274101465 12.069293107297874 7.764771703935665
As 8.279067352640963 2.836264697347637 7.027575996840094
As 6.380826346963959 1.7114169168962545 7.88939723525908
As 4.5598181049186755 11.627965271732979 8.683883524592177
As 4.483492221558318 4.66727548823164 9.764937989412163
As 10.220768521931793 4.776519695547887 9.673150090067056
As 11.061617637473232 10.222244250243522 8.01123107730327
As 8.127917074720196 12.102579182334335 9.82971411964876
As 10.841668957546734 7.104329904699253 8.96723319444308
As 7.548397636750456 9.659940455752732 9.417773250299689
As 6.456131144690261 6.268721802849041 9.676554052103015
As 9.49432576212398 8.52638669097887 10.507016799261837
As 3.855344425169691 7.974834537175844 9.299536482990455
As 8.178839407084496 5.003113546245839 11.068022012148187
As 3.854872257864227 10.093595509607937 10.557524917307614
As 9.968578287506473 12.128916219141338 11.347592028988522
As 3.319276552881785 6.5171900875806505 11.047686778954127
As 11.301974226785076 10.348528545499292 10.494275938472265
As 6.177733107144336 9.74715485005493 11.511395143319511
As 8.549236481572958 7.0351743923926 12.400572356919588
As 6.034159709088791 7.286501005529038 11.920674502549055
