46
Energy = -206.73689851 eV
As 10.835933379048267 6.139953502274246 7.405804940216988
As 8.877351806236279 3.7921332997194637 2.3283896446259433
As 2.1882871510799173 0.6750597298907824 1.5287357803302413
As 11.331741580366025 3.052184317883292 5.484599261180103
As 1.2275734306227963 6.171756090241783 0.34895388407650946
As 1.9687659354632245 3.315308632382266 5.696993052478769
As 4.646945500486581 9.113707874367845 3.87745645678786
As 6.493456759540964 1.434992868749277 7.668676795702037
As 5.514229330354686 11.68279238124255 3.3361321100651598
As 2.161304157405676 0.7931875692164005 5.836507724999979
As 2.37024798183036 8.802465169151336 2.8133653285914826
As 10.398301806305488 5.289940513692811 5.068717420590147
As 9.237266043502661 4.405519795138336 6.185800265400297
As 2.080104028011795 6.313230405578693 2.7318685776542333
As 5.898855396532317 10.89306698940603 1.166008524775628
As 7.484127241866188 1.4650457286219927 5.411059202506342
As 1.4158176352789478 8.806627031781575 5.145026935436622
As 6.9170561234326415 2.144260976786323 2.4697504938246837
As 7.297819763844827 6.730812856374988 5.063419909548173
As 5.261439458786806 4.451721270792767 1.2730987672194156
As 5.925441274153243 3.6844704355987266 7.857192932940129
As 2.609327478646069 6.749744684929235 5.914447991567904
As 6.8130745035320475 4.309330798207203 5.650351673804005
As 7.176741773290531 5.6637457162267015 0.24806082474024277
As 4.268491945021984 0.5945874069927447 0.07855474811437603
As 1.7195440342595594 2.9178917074657473 2.499224983347729
As 10.778789862306118 5.609477572748526 1.226308985969864
As 6.042845638109985 2.361817988813802 0.09376748887468508
As 0.18496804236210443 11.775040205582627 4.539684024291001
As 1.2141390855292373 7.187313396431995 7.909457027303818
As 9.877918260992756 2.0347201217397877 5.73119591155476
As 1.7655971616563775 3.1567879138546355 8.206808089724554
As 2.5297212161807234 11.366558925978964 3.7266033758802206
As 6.188666615856509 7.685051958192553 1.3108494631898968
As 5.332080130194988 6.75228033095381 3.481945228131297
As 11.442504089138094 4.178372794875662 8.884073527357494
As 0.502933449489787 3.8046160545751313 0.4839926650886519
As 4.878972488637931 6.329948693994397 11.478493386846257
As 7.7211689134718196 11.020830290422596 4.380437499060587
As 9.296055352669008 5.623873648771884 3.9935110681445614
As 11.347983861823396 1.9840600281145993 3.2317031257545348
As 11.522536287599214 6.737025414830943 3.352904325561957
As 3.6940744374967474 8.962511894172817 6.196858419865927
As 8.688504221027696 0.3670232700082746 2.3648574447393944
As 1.834039149975775 5.288729960425764 9.421050347639213
As 10.39830180630549 2.0826474360857534 3.281886144910826
