42
Energy = -187.08534221 eV
As 3.1775113680957596 7.530437988245789 2.3865038416430644
As 5.699712537354107 5.186501246568778 2.314696868863745
As 9.07779422318024 6.5432555665785745 1.8139901111282495
As 4.188403589371459 9.732670543225531 1.0713326765898052
As 6.786260660790052 7.040254206155687 0.9696543253068524
As 2.9720513637538204 5.661816580061605 4.457845500969274
As 8.079550271306893 4.269625284275573 2.2724115083649585
As 3.213666987591244 11.053559645209296 2.9924070375514296
As 1.4908313943802667 9.219289915858043 3.187213514588908
As 5.40003056304732 5.864890317013047 4.7730208343207305
As 8.598113100264964 4.642833595207807 4.718288454384085
As 5.10134226755375 8.172109489601938 3.7722727420073188
As 9.131070951847708 7.059570291016664 4.339713248806559
As 4.359189132373963 10.128645474983283 5.078001094649963
As 6.419636475434566 9.324002414532776 1.9572733612112796
As 1.7001561060875745 7.042111754731229 6.088920407667342
As 2.0089087960656964 9.439845271763655 5.608907040619097
As 7.74321455949635 4.215058826842214 7.470944739619035
As 7.540035893785198 1.7276261324150097 7.193837670700577
As 10.946562288471556 5.368347323710789 4.608255392152985
As 9.385481592360103 7.182234256654231 7.5635438015025995
As 9.684506099871353 1.6989667586458292 6.3530175350343505
As 6.163601182055692 7.740120066436074 7.594360693433448
As 2.4285168402484216 6.909523852396587 8.531636449415187
As 11.318385516694123 5.7380076699396545 7.112214369899812
As 4.029400657336345 8.830986228790165 8.234894801559447
As 10.089830239144586 3.6452970704420826 7.907021793668973
As 6.809645375921925 10.08312631813058 8.526456157642214
As 10.629097181952796 8.739918576418463 8.959223812849775
As 4.142800504993717 5.207950784105526 8.175359976434132
As 12.2563882213877 5.496478501146933 10.591828372323784
As 7.369292688980225 7.014125868498846 9.636447114918221
As 5.082893427255051 9.852831915421833 10.307676195782275
As 10.59489043828072 3.8579914296415545 10.795364832857507
As 8.806344487403402 10.074215816744632 10.063866243497166
As 6.966205487671345 4.583803313855905 9.962187296695397
As 11.346099070505785 7.654764646787208 11.16712034264946
As 4.608196326438591 5.1579035197951235 10.463978645511485
As 5.862467272762182 7.851363351178627 11.544405833780647
As 9.460492855478178 7.005093949445713 12.538453056454394
As 7.990146534553157 9.018596242061648 12.23065683007007
As 8.628896941324156 4.721869468336886 11.952416945746117
