47
Energy = -209.11654008 eV
As 7.725140892369062 8.565163368200768 1.6034944383863918
As 2.466955883185575 6.893140955905741 1.8182966579063007
As 8.177913715003179 6.152554059740229 2.05184153217922
As 5.163282177616144 7.897701787210708 1.5259664400035071
As 5.0416585640075935 4.149818639919102 1.5988920207629087
As 2.8225744745431696 4.662527198726785 2.6255527227865922
As 7.157793639249108 8.607924638179774 3.9905417781658574
As 9.731937619691264 6.2509871872689 4.065129367392387
As 5.8701176818276135 6.021642017413872 3.065130583079282
As 1.1685283650362777 7.616557786782467 3.793462499715088
As 6.08835872080923 10.797035786787013 4.318976410756317
As 4.290860162606457 9.955439524149282 2.7241548608227544
As 9.346368355145978 8.489250175949023 5.173199125393528
As 2.6928748871550106 9.444644193036286 4.543179029598727
As 5.3288943886503315 2.4294068539364964 3.340382875198871
As 2.5139513462538297 5.892082761562314 5.155433970091138
As 9.12910758373646 3.947801172280578 4.870468381935586
As 6.62961258393716 1.3395044934327063 6.48385705184781
As 4.144905809411027 7.715331371154003 5.797997332366997
As 6.660830611207398 3.4160714838088118 5.075903459040059
As 1.9307586934248693 4.969672107454065 7.540877158095562
As 6.1937564644840934 10.148373596192297 6.8671728921765185
As 11.394593705916597 9.022052785868754 7.79045093365891
As 9.301634876842323 4.144913808517469 7.388653609734926
As 7.772250615986586 8.015748825567742 7.159843122116101
As 9.160618556983094 9.670309010907834 8.50275183530667
As 2.623175125524919 6.6531140569975005 9.268828192547469
As 7.835457762318286 11.801928428000425 8.185436976010557
As 2.7181537742468334 8.527707380574995 7.628759450673263
As 3.738225040664847 3.48767500408572 6.689250954493515
As 4.392167545923536 10.056561077148551 8.708069728379172
As 11.507266014509527 3.316020082359927 8.288475315998312
As 4.831213743209207 1.8217381112456437 8.194693416787661
As 5.53179823052736 5.173570668259781 6.531042432910204
As 10.348041415587652 6.838416998415155 8.103534336984866
As 4.823104411951561 6.2323563147364185 10.310062409756572
As 9.31833297121858 9.158590710937673 10.895118616840131
As 8.328252729241745 1.9891537884492174 8.262625393633618
As 6.8263297595124115 11.857996201241125 10.318855208086012
As 12.467844652519393 5.620411321344792 8.728429990788513
As 10.39838602748971 3.3680739571075424 10.48394697071359
As 9.317971132318393 6.6145484329370525 10.407490586125125
As 6.595887036167104 5.248895518399847 8.782900339690293
As 6.491943474890026 2.954022841932208 9.692118381453039
As 11.51569922860579 5.486652320949961 11.052872736217582
As 5.963621880156475 8.341506028913338 9.574884900503733
As 6.958597914850932 9.672155412524138 11.45774381940118
