49
Energy = -220.41736742 eV
As 7.936211759318418 6.522628024331381 1.5955233385926382
As 9.215830845821003 4.061087850121069 4.254624882301669
As 4.053741636767943 6.871959228255543 1.9620794922478344
As 6.0342105133501205 5.688743151078594 2.9187773818399148
As 1.7239097426276666 4.559572326434302 2.994124103881847
As 8.999547458822056 6.5232645093192 3.9074104889084205
As 0.287341749103748 2.539631908423322 3.257849511109568
As 7.462709111347663 8.950288525456838 1.710507675358442
As 13.167089570565299 11.424891455569055 5.956989213208976
As 7.377436370381576 3.1027384686551365 5.644785435805067
As 5.005654458293647 9.10444826812105 1.2576942997756042
As 3.8232863387806493 7.653101668140214 4.330082776049968
As 2.3001091350341984 1.4214699936106414 4.345582904210604
As 10.590209635294368 4.552117260924054 6.351041954166553
As 6.742949546305012 6.974705706898689 4.955319947912048
As 3.3639802399205068 3.6690581909637774 4.634831524193449
As 0.21141151048263757 6.112503687409547 4.237603800883722
As 13.167089570565299 2.800475378456929 5.5286719731480005
As 11.104977586854478 12.386300290654615 5.929065484350708
As 4.647442998759724 9.922728268595971 3.6309041037458805
As 11.627026685958207 8.342101916869234 6.00008958380601
As 13.111703810314003 9.548535148189256 7.573341225605247
As 7.066822851000777 9.322145392886664 4.16414567941852
As 1.4706228494671578 8.215983144269146 4.909026342085937
As 13.952285974893512 4.963567041608709 6.386919230618483
As 6.930025387302569 4.381044395168024 7.802297374459568
As 0.9264954752456315 1.1576381686020387 6.452452677773341
As 12.246292529377929 6.3403515407572515 7.353788752696016
As 2.984297165199129 9.598346791539928 8.400187131831222
As 1.7931030169529891 7.685348801438681 7.352485870834235
As 2.316224358950856 4.181958226809539 6.844035349577692
As 8.738574336919246 1.3660764570557236 6.89275636340914
As 11.024835656077903 2.2894390632716983 7.347749394767745
As 9.374421056891475 9.023268230239722 6.833946858048938
As 9.793569688710846 11.355974642562549 7.730888746562702
As 5.492532052737383 9.431027105815527 8.342501558875446
As 3.7684214119498463 6.161995629689082 7.390543918811801
As 8.905304682172156 5.863186012798767 7.541334835947635
As 2.220133355062261 2.211676093859075 8.163158291345688
As 11.501373406391371 10.398917789636094 9.266024930880969
As 7.414252501268471 2.1183944223388047 8.860165833605363
As 10.686628875199718 6.288255772986628 9.280824158034655
As 2.8855953064135904 8.377693475186032 10.545798422700672
As 5.250806931572003 9.304744847081142 10.831130173286471
As 11.093592106823548 3.0175789028116498 9.652805396951686
As 9.720068825245104 8.649649198695684 9.273771751086736
As 6.1257227103531795 7.343256074537298 9.540118928695716
As 3.947040296386685 6.1863349496198925 9.875138346065619
As 9.001496352882702 2.6580410652151034 10.613347043486652
