49
Energy = -217.48204411 eV
As 7.851104501957325 0.7954424269066651 1.0863117338629988
As 5.962307819599437 7.175765478243249 13.140176970643276
As 7.396121150653643 5.436695558380881 0.8982769047891205
As 5.824252791485635 8.596024938215324 2.1888545567071716
As 3.842583605818988 6.191815042964905 13.188325903112622
As 8.99397744518192 2.53584824418495 2.327068813599043
As 8.303174079057035 8.97458980492623 2.461823275997644
As 5.028423889069251 10.359360124638803 3.9577192958997816
As 9.111637960461465 6.603829689392527 2.349818815976048
As 2.9814678877822076 8.982445311428704 3.8955956400194562
As 6.647041986919254 1.9862517372778588 2.822063945860471
As 4.58192566815547 7.0084669797970855 3.6564577646087466
As 3.7370623944558403 5.194863125250669 2.1195951630418537
As 6.072687109648068 4.551603954222957 2.7802286739448365
As 10.450545742205378 1.64430237980767 4.255460735270528
As 7.860312839818789 6.664221925355633 4.514993922958292
As 9.357137629513685 8.645607420098465 4.7925033607594685
As 5.864435860212047 9.574420175485395 6.178896957789425
As 10.522642597032501 4.1442827713014 4.675192675415715
As 8.986004333377814 0.6010559589788957 5.881301276845133
As 2.4304270113209054 9.19096707583138 6.372299952192545
As 4.65461323211638 4.196052079533749 7.195840340768365
As 7.089377181442793 1.961751030921012 5.7207710437406245
As 8.18339711785976 10.446196937510368 6.138959426306159
As 5.880345521472582 0.5936830589064546 7.5169922317505975
As 10.61973073890825 4.560532815096576 7.147229739389028
As 7.171406296231861 6.309168629787711 8.47177149680008
As 4.013577046903431 10.926164399275908 7.007083461907542
As 11.162360564638963 6.959562452794142 7.028887720830971
As 5.6098725090412485 7.057050693178618 6.609001729555964
As 3.938675307613612 4.69697158699183 9.537201754598078
As 3.7499875026352583 1.829031916339216 7.4639355405788255
As 8.42888081081901 4.552238576344283 5.873963303035581
As 9.123380356152115 10.021647954627296 8.423784514970803
As 2.4698270999802245 5.313260486221917 7.625487093723826
As 7.119994881600481 1.4489567759017292 9.441932765476983
As 7.001484586820654 9.939956257980944 9.75447996701183
As 3.559319059236148 7.575531208919675 7.944046570527738
As 3.346618391786382 2.2527483127082837 9.870665342660503
As 9.393092983432943 7.528839774769609 8.526437451581739
As 5.949938354056362 12.206803125110945 9.720774118216763
As 7.328408230513452 11.507137715146271 11.639498100877928
As 6.925615296308243 7.2816382781332285 10.710301187773059
As 5.590610201842543 2.244124151077022 10.924387302037095
As 3.9304851651832844 9.404640185777845 11.707753369883685
As 3.673960717682981 11.431906342469057 10.321077851396774
As 9.258218393965288 7.2142688571984905 10.973299271842123
As 5.711412353879366 10.36846909775441 13.140176970643275
As 3.58248856180654 11.586159944491255 12.83406864969192
