42
Energy = -188.12948336 eV
As 6.212989424153361 10.23670731501386 1.735247765413325
As 7.89901702807186 4.707580044368355 2.639213557572004
As 6.820841293250927 7.854835877729679 2.1939185454001393
As 4.659249589104574 6.5701578795750555 2.1164403804026852
As 4.791930446697003 3.0690153469706067 3.9712668203359134
As 4.412089797620841 11.275910392106317 3.193804486424167
As 2.8314984291579 7.843867790848914 3.3824620859687196
As 7.249465537149408 3.326087249667074 4.4943267534967015
As 9.950828849392764 5.3333735134590405 3.7967186426518857
As 8.359044419271465 11.232936632204234 2.46156525908944
As 7.520805790671651 8.23363914418891 4.698516042959998
As 9.013706914987534 6.531776753486256 5.802799684427186
As 4.477313489082688 9.241236847586288 4.542671771992393
As 9.513395475501511 9.577833874217493 3.9784337383027983
As 7.858404134752328 12.778602337735524 4.358802614326846
As 5.078195800458319 5.530401077294124 4.339914420529473
As 5.500230061419101 12.591489136713703 5.012692108796063
As 9.056065184006586 1.5459083034980523 4.473660412209044
As 3.5244968163245627 2.8889928003088534 6.093405625139693
As 2.8208294841456096 6.177423245146116 5.282569923804226
As 10.643900469058678 3.2856870488019325 5.18927782584236
As 7.47699070869735 4.776377357151415 6.624985783782778
As 3.448519396930795 9.818343966970561 6.719975042949299
As 9.129278916924843 11.242312415837171 5.905395581904611
As 4.772651083822471 1.0985777916988448 6.97894231683085
As 8.726071709138564 0.21147927937942956 6.433917498661948
As 4.133781640801728 7.416420839688928 7.152625399352505
As 5.441569996404799 5.845018959300368 10.496989628395811
As 5.5649191042680775 11.163060465914324 7.110444195553554
As 6.371407527065974 7.5342435606118725 8.953165415080235
As 4.203553559572318 4.578275518297065 8.668549026471036
As 7.513668219251101 9.671369335669265 6.897274854637148
As 6.6823478438779675 2.1389904421272705 8.655178710662799
As 9.678842910739863 3.9229694233700267 7.413529481194045
As 3.608651067525485 0.7060698234956693 9.13240046070759
As 2.5103506981335153 6.49147135052528 8.7587747233762
As 5.033290402619068 9.151206390108474 10.077054518569797
As 9.151218738438196 1.6651698080486719 8.334028371313197
As 3.5176838310120777 7.397805883562707 10.920328978827209
As 3.5468643022067567 2.9209298384336795 10.40257820449764
As 5.938784512221666 2.661479996987182 11.035586643466118
As 5.8974832108443485 0.2971927566758774 10.1127945134547
