43
Energy = -191.8162723 eV
As 8.593805059876631 5.317288809334296 2.1757733370186796
As 3.032980252459613 5.9176984138209034 1.4548664977404442
As 6.31675496232705 4.229531043117738 2.2841082990272836
As 4.263639536735044 7.992273415758092 1.9042814581421124
As 8.072476810623064 7.663062968421411 2.802446151202844
As 5.592494487876159 11.21202707915761 5.167772509455298
As 9.380634341272305 4.967004356939561 4.55083157554975
As 1.0791183766351111 5.690403822155757 2.950823595882277
As 10.461423221403154 8.288561556668201 3.016713401050672
As 6.465499765952057 2.5179933763346605 4.136851355978629
As 4.316053638388938 1.0875532328617563 4.067404603353441
As 2.665171946475513 1.9979002362481266 2.4873502378339074
As 11.449343898429007 6.276508910923992 4.096736663969765
As 3.247467280788047 7.550099817661437 5.6236813791109075
As 6.871766647225949 3.8904608510355225 6.233257718262501
As 4.776891605198519 5.951932684516095 3.2874533746115358
As 2.965516900199483 9.147633123139801 3.712033203266613
As 1.0606466793045113 7.730281501949851 4.395406028371689
As 7.867918396299546 6.858012880839941 5.227952558528255
As 7.654958252142575 11.969113711939052 5.960676815526126
As 2.731039440578276 3.9823634368533387 3.9847205901516443
As 4.482223989067189 4.570824504042232 6.468681627526574
As 9.517734433122477 8.815571763368006 5.633794007283783
As 11.458289199520463 7.466643421476839 6.332357259939562
As 5.783077155725713 9.288409812943751 6.649951545692319
As 7.2947697764965405 10.764397693706664 8.045228662080197
As 5.434109387369737 6.155498712662644 8.107338286442905
As 9.532251816836286 9.661021936938532 8.068555741738198
As 3.4229233352240658 9.214252318655163 7.5582724395428995
As 2.0436973760417243 1.709723026080358 4.8699766141884595
As 4.556648122939318 3.904608879230526 8.880302060517696
As 6.729607100694026 2.6966217977058733 8.560813075964356
As 3.462932735606924 7.256201623888113 9.161622627244457
As 9.866461746960198 5.898227885830322 7.45517076355845
As 7.756290563869483 4.751340021440645 9.627241927935664
As 8.655041093021758 7.5142367135263 8.973012193669271
As 5.420147778777236 7.707148777219553 10.754440866920758
As 5.952762604946977 5.349843475024483 11.338226088757313
As 11.469778008156508 5.21811673431067 9.310409058682716
As 10.392393697310348 6.900434054986114 10.781037637872554
As 9.827990519746855 4.467107986407746 11.007810987355532
As 5.077887631649993 7.89054857362687 13.195822320306029
As 6.755806726108754 6.319941356636369 13.457219152128387
