42
Energy = -188.29565754 eV
As 6.065013760852511 5.610387563297668 2.219110408717939
As 8.532905234112764 5.760447672261781 2.0274196669034485
As 8.5444885139032 12.46796602349808 3.3988796639351224
As 10.3540065787905 5.8205561401136325 6.480076676729883
As 6.3319041757420935 6.90838257173035 4.3289408390033595
As 5.7366985441134455 3.2653527279993173 2.8524578770772235
As 3.93828967215253 7.595169592240695 4.67359183017066
As 6.634743159690689 11.899731874491584 4.87889124397478
As 8.76912249365503 7.6488653728034715 7.067291126070755
As 10.648663321153167 8.80770375853464 5.891493025373532
As 12.255900553597732 7.3909499277417785 7.124172666518203
As 7.330767223254333 4.627747702894651 7.563025578693067
As 9.484071720784616 4.308080419084175 3.530186004160158
As 4.203185809142277 11.007737171998398 7.042499019831242
As 7.865170938895697 2.55933309501202 3.923421649960601
As 9.732548007481185 13.766680193886534 5.1504676819624695
As 4.9467966740071185 8.64483515939545 6.7294953540673665
As 4.596838925034892 3.3816091017290053 5.087145970022603
As 4.92549535320028 5.6816934738851295 5.941634972681187
As 9.681459681726453 3.895972713396467 8.093004360029905
As 7.372511406136367 14.26902772428057 4.609652697223187
As 5.534158576727975 6.812783458393957 9.880238134887865
As 11.916466765568973 8.240269338312597 9.511823361638406
As 6.739457767050971 2.5674182685191287 6.224142936386313
As 9.593783055097 7.544011366957691 9.469975471747642
As 5.949888071058585 3.2714107246032147 9.162544352295647
As 10.232545608491979 5.138389906328938 10.117971757644979
As 7.801053119408077 10.88289159544404 6.830313070912866
As 4.081220493840528 4.747824819957156 9.983972257503812
As 2.974510708016843 9.17312054373585 8.127050930451931
As 11.42960118309678 10.955595654564206 7.1145375777021425
As 9.528383202747577 12.569245629132528 7.299722057915965
As 6.106358773839824 11.664724991548335 8.523675380428616
As 8.757484910070026 4.825618728791187 12.085970370031163
As 10.832463584314882 10.451915024534994 9.36626716661272
As 7.061057241414584 3.1838219907945375 11.402419397371581
As 4.045275923438594 8.743589018781531 10.3247187245632
As 4.968937286864697 4.228349341183084 12.329315259092127
As 8.321671003568051 8.940977488218603 11.11847823383343
As 5.426811599883252 6.682596381030544 12.359369256722271
As 6.102677167318577 10.165331214980728 10.549155724487237
As 7.820731643418498 7.067003966574909 12.780599697326897
