45
Energy = -199.8941368 eV
As 3.9813842520407055 7.19021320917043 2.1996360824268355
As 5.100707877908497 5.181535555061106 3.057132749261139
As 6.300103569638739 10.410422732838201 2.21585016822847
As 10.952235334851444 5.767147838191918 4.276689456883131
As 11.533877680546759 3.396079792621989 3.9074660897584583
As 7.225140414416259 12.071743040042099 3.4766235993795513
As 7.741789469699936 8.440327251196168 2.3555553849576567
As 3.9730783483542558 3.6905903426930964 4.72156496145378
As 2.100107214573484 7.832196672431545 3.7769109854140805
As 5.255829920584222 1.7007915675419505 4.275240603404275
As 5.7279178052397 7.446197525905795 4.014155125463395
As 9.220354423889523 4.200279682962724 3.7212089717461327
As 1.3801866476110174 3.959471698190963 5.144312563607883
As 9.662958143843142 8.998209511276736 3.543418329502559
As 9.305538935983563 11.232181997878738 4.4429636386967095
As 6.950094737000903 3.9178633611756397 6.685539695255535
As 2.5370918795403283 6.1218047050785716 5.503103692327895
As 6.2067877687292485 11.892051764389345 6.747937638636314
As 3.8960082586181732 9.072164186931516 5.0176811517718205
As 10.120666833572598 3.297989647592582 5.99834157422517
As 8.027148745569463 10.27655926939812 6.410557605394439
As 4.891397705539636 0.9202082567399672 6.605081251782808
As 9.163211109740919 13.070078896546477 9.088205613686807
As 7.36329386895254 1.3441502498371884 6.463732878239231
As 10.95905113390377 5.416466161300706 7.067167632302251
As 9.642584014573378 10.855808954831822 8.160927090438767
As 5.125395714340828 6.673930851560843 7.593991638555751
As 8.578005766418562 6.217916947537913 7.670540277290614
As 10.370207867219218 1.7594767446034185 8.231257593494698
As 1.7868228827635912 3.471458179031784 7.545408184905267
As 4.451975581785463 3.2970469916944003 7.381624509437649
As 1.313864905989317 7.329989873171099 7.247413532003326
As 6.902253004781125 13.727730953680963 8.218229501398921
As 3.5037470460961226 8.592415082833448 7.481404240075412
As 5.876465935074807 11.64062535258957 9.168074557072574
As 8.044138311453029 1.0955595738527877 8.883073424340983
As 10.930419409007543 3.8832721458735877 9.16809603819749
As 6.913514933536463 8.065145031600961 8.690663082377753
As 1.6355181872358155 5.470447901706094 8.86767653123451
As 8.167446571874436 10.988461787651868 10.102576795633611
As 7.208838330126216 3.419366894225139 9.164783231896621
As 8.776932272753253 5.336793846881424 9.929678845516975
As 4.455715702816876 5.895186381633343 9.891890073937201
As 4.8178215849434425 3.386560429088442 9.894260624264852
As 6.685627597721256 6.809338859818116 10.755610484980435
