49
Energy = -217.90148452 eV
As 10.361805527487386 9.042741021119337 1.5330632798514743
As 4.514424791884547 9.526478614923796 2.061698380355476
As 10.222143269386125 3.345669061216306 4.472076765467135
As 11.368818351347088 8.916152364791365 3.739291122971606
As 9.511453894194176 7.403909022210188 2.9476995680874847
As 1.0816938271079652 4.4104708406912305 3.0990482869912266
As 3.3416386469637107 5.239642242159726 2.5817592817781048
As 9.767820891178928 10.744194206921533 4.376213596497413
As 6.7710995182073175 9.649849691831458 2.432821800251672
As 7.969212181814287 2.4282816702589702 5.017718908972957
As 4.586211452901963 3.292635267798096 3.5303182423490536
As 2.8218702962366327 9.598029271362465 3.848005283843674
As 13.379761406536574 4.548697425356189 6.6978970407573
As 0.4097212485174371 6.779189120842608 3.3037511446876624
As 12.300845983968284 6.325547854021796 5.140105309334973
As 9.954167619212862 5.597120204168013 5.694634319977749
As 2.589157303263821 7.080983468172294 4.255253938028083
As 1.2425147388398428 3.703040135265985 5.523312346328476
As 4.339325814103737 10.529426922627364 5.6272599101139775
As 6.57885837323731 4.423313790330812 4.441524354327666
As 3.0603238677404088 2.0437208225020598 5.155524072896397
As 9.88483647550053 10.667825189150497 6.945562330746043
As 11.07558894678361 3.67976307652289 6.7987945033153085
As 7.8682073084095405 9.162944005709177 4.626983062580491
As 13.095809240426028 6.130716443172417 8.58819755803623
As 5.0618109626869225 8.23354488429671 6.291291776407948
As 12.268292131567396 7.996160951724313 7.055852231268457
As 7.190520369311075 3.9706706764776225 6.820493413609984
As 3.1159445994932615 4.972050354014581 6.625991706235244
As 3.4004129207425042 2.625213964193775 7.547930521531343
As 2.648593669215953 8.292960201750665 7.005810835259267
As 2.954682500463426 10.676367602182042 7.766264686402371
As 10.076576473355352 3.3282760243688845 9.147524919743887
As 9.896679697489269 8.285123626467476 7.520627765531134
As 7.439620948406679 10.833949850383853 6.597341858190732
As 5.819483573175061 2.3509027219471 8.128245689216211
As 1.9074945325299522 6.325954904384129 8.381978068282123
As 6.4898189475514325 9.081337444926472 8.148768025485031
As 11.292508412713493 5.274682296472773 10.095683978363555
As 9.162095949040172 5.6037287450602475 8.84151340132875
As 4.947116539237952 10.697794637322511 9.25560435638031
As 3.731607641932938 6.8064856726468 10.08203460138538
As 5.0096056175879715 3.9630957595554577 9.893813789916193
As 5.73018211224644 6.12857262296921 8.792249528755473
As 3.8162782603255647 9.16802422355103 10.93242579493555
As 6.5610142867307335 4.584577558166048 11.79051368287571
As 4.546983169648544 6.071739510230421 12.456784594335968
As 7.437482777631106 6.584125636807252 10.555237966242014
As 5.720642340959084 8.19707780626663 12.150261809062124
