49
Energy = -218.25781885 eV
As 6.277343834901899 5.080825585846492 0.8106687821468234
As 3.8934753223048695 5.034006341553683 0.8180535934606089
As 0.8205102629789054 5.199957885763152 2.444885180933871
As 7.423513588264 7.300291026696468 1.6655015817176602
As 7.199955979619639 3.694850065023727 2.721467866136005
As 3.1415569865224104 7.793459931008973 2.470449765730447
As 0.823087715464863 7.472295511941512 3.4450295534935247
As 9.617686249021657 4.347564579725336 2.78607904075869
As 6.878149324053361 1.260948679777761 3.359895807233651
As 6.711283372166152 9.17889396316385 3.236084752489896
As 8.901802487941922 6.6448610180278305 3.5396386865636162
As 4.232082610227955 9.797539033827986 3.4588524150712945
As 12.517832730322388 3.7359287193201762 3.6075501215002923
As 3.087278279998276 4.256034746831158 3.061597343333937
As 4.869736097989319 2.208975639729463 4.671600958537
As 6.669086387818754 7.922933092315456 5.426159811774597
As 9.736159225428352 10.163369701516157 3.7818303882900004
As 10.925789475882496 8.193848943694167 3.078189358157027
As 6.456685236753788 4.146079759908531 5.070383286451065
As 4.327564277862162 6.218008882643435 3.934987798250759
As 1.1285500166011864 7.454944473452771 5.926835584636902
As 9.011936293943807 4.903448552389307 6.789634259763173
As 8.027044703833605 2.1782580072053093 5.416196073644385
As 10.202674155725585 3.423275546813749 5.039032305956004
As 13.328495160875026 2.2964289947188057 5.463523889203261
As 11.934327375673709 7.191848502723684 5.062400876601439
As 2.112610065107906 3.533070104640826 6.046347536987939
As 4.554759303919759 9.209960472799953 5.919299894574667
As 7.883153848503684 9.202421759370301 7.318256402647538
As 10.00176283810592 10.31599205837977 6.153819813073546
As 11.934327375673709 4.330529828077329 5.93851747387748
As 0.612058028806485 5.281433500452385 7.077496761868411
As 8.655413774389247 2.8257224733318 8.148977786218827
As 3.5368603347957146 6.973486807005645 6.171194302082273
As 4.995150903013542 4.671451117295479 7.524452362008348
As 10.252449930188918 4.646266708823684 8.978701558732434
As 5.968360632594388 10.120210949217059 8.566449007596942
As 11.310764453401005 8.403729462368442 6.907939633032642
As 6.633901523433971 6.306905510491664 8.377270449523632
As 4.901240822514319 1.2253572914330044 7.087572488258559
As 2.8252409568827845 2.2071311198429147 8.108249947948083
As 3.3151458086675496 4.57482822983999 9.319684251267848
As 6.151308609629203 2.7623701073677993 8.714870138111795
As 9.00669391878196 8.473292975711093 9.52124857738238
As 5.083972451290659 7.711151454567985 9.710327044536594
As 9.131680353466015 6.221401275941239 10.563932301398243
As 6.957151518688925 4.856984486032221 10.414511431233516
As 6.909219920186663 9.161427913787826 10.66838682614843
As 4.696111245874582 5.460751760213604 11.250719482263872
