40
Energy = -178.94086138 eV
As 2.33247727327919 3.975180232989676 6.318817996586361
As 4.514434398433527 7.482300650557752 3.917968636224417
As 6.613521810939319 2.1565877477579747 3.476728805145324
As 10.305614879947376 4.363700347150759 5.159280638606374
As 11.112506600157943 8.902324867890341 5.6004752244180365
As 9.146228637340098 7.785573120788351 5.885722714703439
As 8.142221861924288 7.700922514767428 2.177145680485367
As 11.112506600157943 6.972554822957503 7.252313579466676
As 4.089935274223567 5.128768073907159 3.1585571701842015
As 8.342927011678412 2.687465450490178 5.336345019031155
As 3.26728238452296 3.3602924549110256 8.541011707308439
As 6.19639462354079 4.246437412736098 2.1355132460604653
As 5.565353897642074 2.418639789044101 5.776132300073406
As 3.249928052858472 1.695115486562128 6.624224896326359
As 4.626572706200374 4.715423220595692 5.549267425446849
As 8.595509672484582 1.6503858424592193 9.543370881990429
As 2.2694239113276526 8.55620528492485 3.5786429343720982
As 7.977422840337849 6.893268843215875 8.756235578507304
As 8.219161475257083 5.321802381580911 3.015624225443966
As 5.97212275994762 8.89712578899475 2.4716180373859657
As 1.9080327400542285 9.82194614880735 5.718041033596313
As 10.008169256424946 8.222075695481626 9.13015982638393
As 7.959767982949547 5.170361296672642 5.523542974855622
As 10.966393350823605 4.464216637601298 7.610585822204427
As 4.408644771274494 7.059021037918581 8.3139565327721
As 5.434489105717569 4.689814147817833 8.372084794199779
As 5.719023396372374 7.449142851179416 6.196381995236387
As 8.656205769296289 3.868159015312552 8.457183806750498
As 0.7720461909436468 6.911904163440831 4.732984845155691
As 6.665057605458313 1.9174058045980504 10.734762633197997
As 6.068246098541319 4.368413523502574 10.798683013506409
As 8.398797561963544 5.18875459583925 10.53851630024334
As 1.2368874892737534 7.808066115020482 7.020705116929372
As 8.734048844955337 10.900336357183004 4.247862734273362
As 6.337943400833818 10.728059759982084 4.117760087008164
As 9.792253202033978 8.78834028449876 3.6793456727491094
As 5.2268742818095495 9.884200970692586 6.280691994775169
As 6.87245547272725 10.286900678571936 8.088583808360914
As 6.1670509491024825 8.360894260308537 9.60943323046197
As 9.245107252598181 9.857580140236092 7.209404737852417
