40
Energy = -178.67790589 eV
As 5.987551629493136 4.306908579983883 1.8716259260929278
As 4.139872147096137 4.283114447795613 3.5797787963070697
As 6.446024392645757 6.498597574806906 2.9248205355735135
As 4.240932707157276 6.044859612431075 1.8251807531171014
As 8.321063244556335 7.383748419649273 1.4828320179700263
As 10.131884864750148 10.169150292471471 3.876011671159779
As 8.16068488351331 9.804103912787797 2.452756344200227
As 9.994761646664056 6.029257224016432 2.6291166312788232
As 5.590182499540909 5.111540921751747 5.514907616959154
As 10.85608242632248 6.460975551739093 5.5733925265818955
As 1.5511795836892084 4.7338271219281065 5.880498871917412
As 9.671824731918369 8.61073411053296 5.73996180097389
As 1.520424064713464 7.075719313580954 6.166532450302068
As 3.6616918650711767 4.976313093469682 7.096136981468142
As 9.263932425313932 12.15562085334957 5.132258723548399
As 8.726323958223535 5.580409244555656 4.692537931674277
As 6.742939691098755 11.898937634590727 5.131516674627161
As 7.1867678850819505 8.36753380751693 6.080010900506854
As 6.477695212602727 2.7552047403509237 5.731237028727416
As 8.935074111490554 3.321940094293826 5.838862999546996
As 6.1964895002324285 6.370631417142856 9.10445447203443
As 6.35371866749223 9.691216504729637 4.105066147735995
As 9.114648088663555 11.52538929311385 7.593747709196871
As 3.439366359007661 7.370364391264769 7.541465416669891
As 10.726696810016877 9.667838103156189 7.672279127768721
As 6.82788982139873 10.533886142421883 7.331827803606445
As 4.0809500723999514 3.19238499300058 8.829413701540572
As 10.712680024453116 5.883145240853492 8.165673826861138
As 6.2074412277603095 2.099457485233832 8.166551372408207
As 8.490290299423565 4.8812528335549406 7.727060001867569
As 7.533105421495678 8.427664575257683 9.612871455320414
As 10.00606480314002 7.959708020471579 9.393234949503574
As 4.657945423627316 4.153029017384149 11.086187273440636
As 4.976325448388488 9.648513826747159 12.913324646125794
As 4.31230684204256 6.656315794548548 10.786837750242757
As 8.127742348294715 3.1005132514428704 9.430013954218413
As 5.6522639874996985 7.26628889948479 12.82081345946721
As 7.021269099402548 4.815313532617261 10.861802581132618
As 7.164834978401805 10.318164715175335 12.715208352226949
As 7.927391713281949 8.006740318161881 12.058503723464414
