43
Energy = -192.59631445 eV
As 7.175692674686302 3.80478244885956 0.008082289604621902
As 8.956665649729883 5.266759635258728 1.0785812830268746
As 10.073933149374481 4.12586284843384 2.8973174212720263
As 4.740011585745817 3.961225996630599 0.5222533633601745
As 5.646646917556203 7.296122758944848 1.087988889997014
As 6.123434541426172 2.0382053674188025 1.3681673263747374
As 4.7728874718556895 9.31662380230648 2.272047362227116
As 7.702348566894402 6.9404166438728305 2.4528397361315744
As 4.826585357202633 5.41920791527773 2.605654693855725
As 8.35440875953201 3.6477451266861878 4.581921758097093
As 2.567845668853939 6.500629220656769 3.294333360366309
As 6.856118044632582 10.5423198570504 3.0418473716353187
As 8.896789268089726 9.130523253111896 2.5084157458878322
As 6.106910776153427 2.946700687211796 3.7052149654535085
As 4.328034069333779 7.91459284390949 4.3125373269514045
As 2.164403424247099 5.484309196163564 5.593342192106523
As 10.111244699692694 6.354180607707702 4.747031955834886
As 6.097365160277118 1.5043513296440298 7.257123019791932
As 7.691125599202306 6.061176353650968 4.8299559267286645
As 8.69065402096998 10.319167711906838 6.326270091488374
As 5.26571053640796 0.8488268382517339 4.7972177982966615
As 2.940086498459981 9.406482001330732 5.704360128275316
As 3.3317224126074585 2.106675919043316 5.50313832809904
As 6.671959809680484 9.494708415525993 5.265252478121251
As 4.945688188989295 10.880594152696574 6.368176820247517
As 2.132249597597319 7.475517977921374 7.177506219093761
As 5.666865899582045 7.387689262659835 7.531355423853911
As 4.429980444648212 4.362419311727271 5.781241122838276
As 10.138121238295916 8.87907720346813 4.676801058717362
As 7.980582017416243 9.66962919064956 8.672223777296628
As 7.126398031071066 1.4540548496975951 9.68598747112758
As 5.4644585558608485 9.694611326617258 8.482913130426779
As 7.594856457443692 7.174172194374898 9.08364038256309
As 8.114916575624541 2.8157655515412334 7.874913582983356
As 4.200422467893628 3.05213607763322 7.893063069495553
As 3.774157871330134 6.34903737107942 8.741335895806234
As 5.1210344988911025 5.638080614136118 11.823735458872697
As 6.398993522034802 3.7240876727831154 9.408148293285677
As 3.9015244852895172 7.623256356637948 10.910674900918025
As 6.366065744173271 7.666319130978383 11.269719029508128
As 7.707506506759018 5.54844938960373 14.414572205137407
As 5.387855553092427 6.252440121175324 14.30558439861492
As 7.320844584792859 7.786172369161704 14.002619849628424
