41
Energy = -182.56092146 eV
As 4.139736153870436 5.4410167841535415 1.8511232323470215
As 6.1119139120998645 3.9663601044314527 2.1138919924640143
As 6.3036592969317535 8.752261953826515 2.428089707124977
As 8.402976344871739 7.4384991142248555 1.9162343802960884
As 4.890434901896421 7.021958178786887 3.6123743564507347
As 2.4005143414770824 4.454011004229896 3.3970252384232733
As 9.969353911022539 8.229713043871232 3.738382094174617
As 9.020646033373396 3.436416853087805 3.5640745361293438
As 7.635018467758797 5.577250532302906 3.3931142646197867
As 6.555637540837163 9.168630903971424 4.888103108536063
As 2.7220291337985927 8.257201469843407 3.5703986874417457
As 6.440160369615816 6.173650502455617 6.85212721619224
As 8.878636236511186 10.067018279106927 5.0236671770074715
As 5.563374229049725 2.5729100195311156 4.220797785797366
As 1.656255049498276 6.418842233020394 4.921195930269086
As 10.826880650367565 3.259086755025614 5.310531121177393
As 3.654357561327245 3.6267007124344257 5.315974549265952
As 11.572972846172522 5.575471940703217 5.823057324899948
As 3.6845852738210607 6.047319618117131 6.476296749209386
As 9.314452330988834 6.6821170319217424 5.660872992708476
As 2.9729562370046634 10.155464321722736 5.167648758968881
As 7.467396335289105 3.6387335524953066 5.504825337162955
As 5.094369346407781 11.12607159961487 5.132797206530642
As 9.146323528853543 2.559639401260251 7.112726984323396
As 6.032332557351555 4.516967008606866 8.55740672358283
As 9.419533168359044 8.702709521980942 7.1525534763232015
As 0.6666726780543363 7.663051823576457 7.5623598478671195
As 3.0591701967123197 4.608708151107796 8.51732214844032
As 7.020366654546975 8.381523513739104 7.980232558524028
As 2.8559246658141095 8.543276451017853 7.425520637131017
As 11.68267270458208 4.890490148372926 8.225122277014112
As 4.374603135246042 7.796764271139202 9.265931168659536
As 9.195461745254075 4.783667970374244 8.228629277023996
As 6.597511475368717 5.53787500339892 10.753544916902968
As 11.667789908236339 7.053489508198189 9.400930386756258
As 2.9791334939024106 6.152085490381325 10.474903128356885
As 0.8783093123785568 5.919736872940092 9.19588043220257
As 5.398195407587105 9.357327115426454 10.798346639291582
As 7.397713610750618 7.884544797497042 10.409972438385669
As 8.968819423895289 4.562764784956294 10.693341271310413
As 10.117557502766955 6.735079330798324 11.099079614357304
