49
Energy = -218.90423109 eV
As 9.186207771441468 5.632205300400004 3.920828741477316
As 6.137755850063314 3.95701138018885 2.0534494324891512
As 8.209049546685462 5.3174283752548535 1.639698603117056
As 7.043580816553355 7.502492831585018 1.906732040286458
As 3.5310137175251977 9.079799900292173 2.9045124101030346
As 4.065991479918759 4.926356235344964 2.768941837703223
As 10.618082081067485 7.529591809988318 3.2855605105174175
As 8.749223361604455 9.147268371474805 2.83837922364571
As 11.161331003303717 4.187741338677427 4.380744218247277
As 3.7210339712664355 12.390087794025701 5.328604342662389
As 7.549842609498852 3.3151415687952848 4.919783110019329
As 3.595975460394325 9.903031378436703 5.301617741581762
As 4.051193633904688 7.0043549407868 4.253223389934248
As 5.378288896730813 10.554263417259065 3.7096069164881413
As 9.814205429338546 2.2407157901838226 5.205797174292526
As 6.507548214252298 6.989900769728341 4.293705823952282
As 5.76294664553281 3.0694623849930807 8.330885770873364
As 11.367402411781033 5.44625529948865 6.540117116662184
As 5.684931548292278 1.677494427961622 4.601168005240729
As 4.024442478041212 3.487179197685019 5.0562772790254344
As 11.727376724888929 7.757036290790866 5.546465919460486
As 8.869768383173183 5.604225759930582 7.021226142246205
As 7.251815638865317 9.280085434918675 4.86968092568476
As 8.396867815186623 11.458999651572881 8.591348337720051
As 5.438865709917643 11.804132146395345 7.060164101512771
As 8.676870474214274 3.1008748714739327 7.231912898264929
As 2.8510926764331743 1.9256488675316248 6.794823554482185
As 5.311404598963356 4.893059986031501 6.6897189276913425
As 3.237655180564837 5.519522762392761 7.987592077029516
As 3.6949572187121724 11.050360889306475 8.647807696952531
As 9.911770262069055 8.562219296909165 7.068548435109702
As 4.777370758053819 13.278243832439655 8.967167495944125
As 11.413619810468585 8.427842609230801 9.064811192267825
As 5.141815162991318 1.0152710324367749 6.993634364640382
As 6.760792445286571 5.3213613057930855 10.663079076555846
As 8.450132520777125 12.355687724526637 10.868287386189973
As 3.304625971466364 3.1698610853129368 8.919482234173739
As 10.742108751574921 10.64381209164185 8.147861015810978
As 9.019045438229277 5.556400824007393 9.608944789050577
As 5.06122713998404 6.907483102269228 9.008363471051982
As 7.238872617219015 9.259563493039185 9.04514057767708
As 8.1760970337874 9.011571705282083 11.353431723230338
As 10.04475439726727 7.449247542540075 10.91970255377635
As 5.332786248616355 10.199146761851436 10.332547539193783
As 9.835342241350093 3.5056837588861893 10.822199675579045
As 6.613164347388766 7.234673146017988 12.237865558552466
As 6.136118945893256 12.66425734453764 11.054461611919514
As 8.303668768630871 4.049443774343905 12.415136258758686
As 4.443727932379958 7.960262537588379 11.152722912702837
