40
Energy = -178.73421993 eV
As 8.16932850320299 5.412479216739814 1.6156884115479306
As 6.272529057616971 5.79434232222881 3.2614906692101098
As 2.914794281357746 7.837098361783702 2.371236840503603
As 9.099843176522173 7.5493902378865405 2.5545223365648324
As 2.7499055442616425 5.371226490072621 2.2861996686210335
As 9.272328278782645 4.4632731451971015 3.6721185629076243
As 5.737363338411426 2.6231785142208075 3.3965463826559414
As 8.22100776542933 6.518565506419264 4.687690302418918
As 5.313701429661407 8.145054599718684 3.154531670680361
As 1.6653515146983846 4.609674498331389 4.14751906813648
As 7.955774060924743 2.4357948948500265 4.42050961001511
As 12.223246500950479 5.660078974880151 4.415565155813815
As 11.56768309777461 7.170444101638533 2.5057392540189327
As 2.2005460642980044 8.452083891385731 4.698516957835508
As 4.357190457571543 1.8527773162382064 5.1000195409100195
As 0.7895504342111564 6.522635554692247 5.429096281242923
As 12.105511078798354 8.906788398070653 4.247912446713391
As 4.274074198932403 7.242954376383627 5.245761844687917
As 6.1822792945522265 5.125326482483173 6.8667793191753566
As 13.899444784804409 7.409797666014616 5.122157254192105
As 1.8355228652798934 5.650292460515828 7.510125970427379
As 8.691388928384773 8.297936240114263 8.083478268337155
As 3.2913025184636435 9.513802631873977 8.072241831683316
As 3.816464643529406 4.250337106517907 6.508397552053395
As 11.675206098518544 7.359141515280656 6.167474873986379
As 6.869996728169218 9.70637544507522 7.038395079756356
As 5.144335397810013 7.999942529071836 7.489366700727616
As 5.7716724509411605 1.3612821196640903 7.09298439132555
As 7.563217139387433 3.0417221084964363 6.798674354079529
As 6.641412027575384 10.872802781344003 9.270760137038192
As 8.406687242432993 9.423757273226471 10.328351614943395
As 1.8832053744174195 7.655187936240296 8.985894141536447
As 4.378326890226697 10.185592955294352 10.199253860218796
As 7.857677470007648 3.6880556526382082 10.021400303238051
As 4.209253502461389 2.7382179969614513 8.520815681907113
As 5.638156909338449 4.6568350435675905 9.27147743474022
As 7.241870277093735 7.285291654582939 9.864978141652529
As 8.982402411245138 5.613825810281156 10.510038427239621
As 4.840379257209079 8.07047046512498 11.381991124295492
As 3.2870790616134733 6.523175781760284 10.681308589829193
