40
Energy = -179.38830094 eV
As 5.746994770055924 7.0869710346335655 1.9983030101840198
As 9.221464974370459 6.308429606921959 2.282941815014002
As 7.843752164907313 8.326531069495596 1.4738984070567236
As 7.760629641290706 9.617286512308604 3.5624471083268014
As 5.518235494637683 1.324838568636799 5.508450250232108
As 5.90293792707882 10.76549768251596 2.481313649045711
As 4.455434117834442 8.99648792584387 3.2186047762602983
As 9.807620844544356 10.969666035161344 3.2232444994098848
As 4.526511350534061 3.466440944413235 4.847688716733697
As 7.120372831171932 5.1809311906726885 2.8789353088001697
As 10.469892417964191 7.121354725351717 4.270638653826006
As 9.22383667735394 8.476969492808387 5.999967405427749
As 11.54638861591494 9.179267411963616 3.331708504338575
As 2.896181520298813 8.05419498423279 6.353301916963961
As 7.649302819860517 2.134710325237264 5.072960519822641
As 3.557194931426992 2.4759487898747063 8.439416800564164
As 10.809263578445087 10.363810676330798 5.4168555133489535
As 5.644013884586167 10.78691730475032 6.2582925347763805
As 6.8259732085316545 4.454525608499021 5.305131145023274
As 5.2463502846526175 8.412390390121997 5.55751822854441
As 2.7337858779142166 3.9093812807084936 6.517132947976927
As 3.7942057302077488 5.982480913978669 7.410008599925203
As 10.271165227976319 5.235040245819865 7.249934870189928
As 4.3994150081953896 11.059354431594466 8.388625245140775
As 10.771576407571835 7.598465451221393 7.801129988802723
As 6.799721559184675 10.408316643347106 8.470994072554106
As 7.796468579286523 5.085111349600877 7.669370010938649
As 5.257175201264514 4.124972215888726 9.23881808774741
As 8.465628068782014 2.9524574639694228 8.833881033298692
As 2.790752680149701 9.19676857491548 8.589714751801418
As 6.967412177103758 7.889543542754959 8.406746050948454
As 10.379835241347074 4.353760527983616 9.586950211091661
As 9.149831343407216 8.23274678838801 9.593706041724637
As 3.11465254873926 3.932595266923632 10.428468249752973
As 2.203624423284965 5.973116610077762 9.297664186521798
As 6.936397683759981 3.164976835143089 10.779295172813148
As 6.011240671720816 7.601677447272027 10.683059647473053
As 3.5089385060584926 7.7350228709618385 10.514029905090752
As 9.424236007475239 6.196249995289808 11.037143887346648
As 7.1170282015177815 5.530234464794349 11.6871514755714
