46
Energy = -206.81581346 eV
As 3.5600226068137055 0.16769199249047864 5.002172936975183
As 5.658921200162103 5.038269179747313 0.004135257044925511
As 7.912002714413091 2.6548259008596315 8.376710952668505
As 7.967445274919422 6.441718385062146 3.055662766050038
As 5.458495576768578 10.775694695899377 10.756921056756678
As 7.697043809788458 5.301312616478845 1.4079228680871978
As 9.929084096622882 6.460437264212451 4.673347335364361
As 3.9705234467734503 7.150945769254824 4.820020480685528
As 0.031710944609193124 5.1512014389349305 0.805578832832343
As 3.3012749705027393 9.8053080187812 6.760954066657756
As 8.279493487272205 9.499251449755311 9.099331085463868
As 10.03926349210827 2.1325215462223786 9.94384521423479
As 5.763258831254796 0.48048389746525794 4.32654041605846
As 8.230156026670937 0.5463464897241155 8.28008417345716
As 9.24528878160208 5.527531024080754 10.847435072061582
As 4.31646451790433 10.690329710226234 2.7812012336715255
As 6.760627152594682 7.9983730436823075 0.8488577857627747
As 8.911421787768823 4.391066772902899 5.330703311219501
As 8.914261609123338 7.9288789746295105 6.2467669226829186
As 11.131690461728557 3.677742596956671 8.389069459902357
As 4.813625870540026 8.23994135063368 2.705390607463245
As 2.9311741350489897 4.597994706848308 7.076916953632451
As 5.477333400210544 3.7399799256701916 4.336414337148636
As 7.17509944344789 8.791281852032578 3.066998157103876
As 5.288731123932867 4.552051241936046 7.65755053471835
As 8.938729656380511 4.752056750568078 7.79419503568298
As 10.854014165579054 7.5834348275955135 8.635020810685637
As 4.7974307021259905 7.86024354348953 6.894463461436738
As 3.357250440262984 4.705306475574891 4.771648085939792
As 7.785719051221728 10.225901086448895 0.17369729835145453
As 6.832392126443988 5.5674562834685535 5.102042000896684
As 4.674147170387774 8.406681485185633 11.054116310342557
As 10.537100790204779 9.633175481652351 5.583954687207832
As 6.283227843924594 7.065330692949664 9.876958426007038
As 5.781007304016263 2.5547330844289524 6.34072220838342
As 1.851723341166413 8.083043952295467 5.659151910394087
As 1.3788085594616055 7.06944283139882 7.079638266662846
As 1.3613705576663657 4.597994706848308 10.053315290154794
As 6.970336171532172 9.654055693931749 5.359478460902659
As 2.6908710927825714 6.876798603879413 7.699952545099282
As 6.118563959279913 10.51155684643007 8.310308884934049
As 9.656111480556609 3.4471115118055025 0.724008739746713
As 5.842247793781368 3.218559931330294 9.707450068390646
As 8.759170628110384 0.10542567283316273 5.848789731803221
As 1.851723341166413 7.035265162108273 9.531180645248941
As 0.8035587688653386 9.451173323492137 7.60131119092701
