42
Energy = -185.13087493 eV
As 10.339685514909505 2.5908600287100034 11.229183368454294
As 8.503106574835812 2.841500093814332 12.984859639285082
As 12.670052553684915 5.070604560735099 7.888444469489779
As 12.464738830288168 7.19868900816158 8.776283433647617
As 8.335517484119407 5.293619314724561 12.351091797572728
As 6.771634451252256 2.14754938588555 11.300613687020789
As 8.603625575403246 1.9695090922045895 9.558521134207439
As 9.390918190879939 4.381325333824716 9.670483479699168
As 6.025941198872469 6.259148727340598 12.150368371354144
As 6.651154031733719 4.533407221122363 10.477044418433287
As 10.299011068325656 4.9317598143365995 7.31089479678389
As 10.068818729650141 7.767225580961253 8.320642140709065
As 7.593828692491731 7.545896316280383 10.536226903034262
As 9.516112861365752 3.361594692477016 5.574588114583004
As 10.531077287660501 7.5495661663171 5.892715251939165
As 7.114479675164961 3.0986594859473136 6.347615308774345
As 10.09999676201199 10.31927054421503 8.109670501662968
As 5.781652949541299 4.890555337400291 7.546996059664841
As 6.533581322170879 9.7748620011356 10.054060636789474
As 10.654776337919127 10.054469410413827 5.687036545736533
As 8.07428246286305 7.044201288800761 5.016837834475645
As 1.9910742939841373 9.790171455062232 2.4172292217238702
As 0.8996270051640938 9.618885877177206 4.673868236992367
As 4.59073109475383 10.627341450562756 3.0310094199950517
As 4.6371865125062675 11.439440246138487 5.430439039485204
As 3.127845097328012 9.465401198770026 5.696100564021798
As 1.058396625596309 7.11771068217448 4.379630864110406
As 2.64204164742131 7.395182534272472 2.462106327392656
As 4.6482512829505005 8.169227255511053 3.823447752887673
As 2.7143059483052823 8.212484089562563 7.788752333795529
As 2.327307903205834 6.182109191843256 6.359606030216868
As 7.137198679781547 9.817466828625133 2.2457613203145375
As 6.395329549539784 9.686984915825862 5.980944560062783
As 5.235621090028722 8.773567860904503 8.036344349342261
As 6.7876219787095335 7.464668061154389 2.5809565699368884
As 8.596688130783452 9.433467080812017 4.244294431600423
As 4.728766526832931 4.603030008267331 3.59462909120554
As 7.6820415500587185 10.805193137051422 8.067809693089947
As 4.708924992156784 6.023228830233925 5.521136925281116
As 7.070126365861524 7.013649928587519 8.044811882153159
As 8.927892218823077 5.005743132443356 3.7443209320214237
As 6.8577142599555385 3.519458139102303 3.8813078699441976
