42
Energy = -186.4386441 eV
As 4.313349000158538 5.022035053727523 0.8748530825339688
As 3.859636939027884 7.36549872153016 1.963203002715561
As 2.8634660865385357 3.59994598573315 2.295383700404955
As 6.466025175652609 5.168504645563574 2.0744945646538664
As 10.598845085840404 5.644839051755559 3.6285780343928584
As 1.6741542850462525 7.212911382175681 2.971740479358627
As 10.586771594957428 8.237149314346475 3.177621385028376
As 9.100324353383172 8.980985473152328 5.065258846091046
As 6.753369484422341 2.882099842054169 2.9166450798684975
As 2.3248822817813495 5.254271464232152 4.203362079780538
As 4.969337395030614 6.217942160436505 3.863663384730022
As 4.398956564958739 2.1183022964927023 3.476421733226
As 5.36289299331148 8.011417101611263 5.554749410992182
As 5.400605239855462 10.121019099006677 4.322988204697314
As 7.80683289010024 10.960297540495185 4.210313174830534
As 10.542359406332906 6.100716348515715 6.049308715673352
As 8.415547645687509 6.026184695473805 4.681387616782462
As 11.481850297782794 9.347452341575885 5.122409555342308
As 7.199181118016518 3.8091533917296236 5.210523239531964
As 0.11420018613387013 4.5788544365532395 5.279874491802613
As 4.013733910292981 0.707253356754883 7.2203575941383615
As 3.47019582717565 2.643613639216846 5.837134970819031
As 7.492315896102309 12.174065532649132 6.400653445859647
As 8.809885135606475 2.371627348521493 6.491780450110085
As 8.527524240058717 10.63592172849359 8.03804124818817
As 0.8975944998438835 2.3787125374315226 5.996460856430354
As 5.0389609359458625 1.6790816884392128 9.086094763929374
As 1.0698685235839225 4.305308615490218 7.52881763520575
As 5.068120544153981 11.480299446153746 6.444240896991868
As 3.6178566199217648 4.767284568404657 7.139578196952447
As 10.476479278244364 3.9975293299653534 7.394747540236842
As 7.203543186977719 8.505482654026823 7.505007720991484
As 7.131984570437044 2.991973104245772 8.262530037221087
As 6.933563334466228 5.47278777849463 7.601254141597677
As 5.089407013817134 9.679523396761242 8.1614109168527
As 3.890677657282147 3.873235993308202 9.4792823745797
As 6.727090947473771 10.769726151342295 9.774469842047314
As 5.943484956803055 5.292813735854784 9.93743304599864
As 9.155240630376023 5.540463377221381 8.87317216542865
As 7.440975551607909 8.393845030882428 10.223645822836948
As 8.064943697853897 3.881553248017382 10.417896877523301
As 5.340778633018856 7.4351310072269685 10.880023288685711
