42
Energy = -188.27825092 eV
As 7.544686981101568 6.094263152121464 2.237140918675106
As 6.08151660082097 4.061302153457752 2.076313082554836
As 6.02824975861381 7.984160292569392 2.8381693341207948
As 4.084816448063459 6.86655005650794 3.912676007927711
As 3.912855661393355 4.59042398588696 3.0189236269031476
As 8.013334587365533 5.271238900582518 4.57780036306061
As 7.462500277873364 2.906947801098923 3.9101482898061817
As 2.5708958449101815 11.26934633916122 4.331092300086246
As 10.362434315017525 4.6121312709744675 3.947228896939946
As 4.286391313543928 13.082470855581377 4.412839260550974
As 10.512157449044048 2.722789932702082 5.628356995036037
As 6.700320487428452 8.513765802509765 5.245989829082376
As 7.753947681815445 10.731608893606738 5.342646621604661
As 5.099829562486708 5.988267165770097 6.123897874240177
As 4.415655012875468 9.789513688858179 5.529525385249857
As 4.052667577396517 3.7348810868575137 5.844474490940474
As 5.855303103180569 2.044147793924781 5.618738222979214
As 5.562180805020647 11.874104559023735 6.224090141287657
As 2.627931047761561 12.771221835210701 6.154469140650322
As 12.21179675815444 4.158547829794752 6.8731422951792815
As 8.79477091886929 3.8222123298383552 7.092089068505397
As 11.794661262720966 6.144597298229735 5.407421405235267
As 6.814187682524305 5.707245555047722 8.893822381613903
As 8.457766967271915 10.647939687136919 7.732278662959681
As 10.625642093282734 9.489284455990308 7.242026439581463
As 2.792346783936081 6.6406175827585425 6.823256903119192
As 7.234968036090574 8.613010962793357 8.581335541292638
As 3.149582782971211 9.016499955017263 7.554043836415249
As 9.785029888739018 7.292446142772143 6.30201224481151
As 10.586664871081965 4.263519497842393 8.77845924568688
As 3.748472122276564 3.3490182895677494 8.367498427502634
As 7.216304184016813 2.0088467525491063 7.779008262162764
As 2.6652613136486054 5.512152307002872 9.0461157169691
As 4.854080944935538 9.088901293622678 9.385047809796406
As 9.691474678748142 6.573262703856555 8.681854855140339
As 10.134484731806001 9.24560862342788 11.254157784986958
As 5.9710229465216145 3.394081266554624 9.496509177663654
As 11.34547934168786 8.313301544929075 9.372483619815767
As 7.756661699670827 8.891994513489193 11.000383252250323
As 4.704425977625056 6.6074550894939605 9.955976644583336
As 7.5619001039578135 6.27359129882071 11.302268907008497
As 5.30000415107558 6.161394210383197 12.22895149334731
