40
Energy = -179.5069514 eV
As 2.8529417181815147 7.616245803425839 2.4295528521049072
As 5.742513327749673 9.619926654239494 1.4623149948453744
As 6.733991246793065 11.034774415870805 2.942420600749642
As 5.408646946531315 7.425455067990189 2.489792600967229
As 9.077015169159832 3.6801943619336934 3.5159342386276076
As 9.020965737378212 6.167477716019361 3.1764499779225615
As 2.665124667117415 8.953960872271011 4.522956018694904
As 11.016563275826007 7.247315438468769 4.290952257519801
As 6.899113716498895 3.8572751728332735 4.735106490372163
As 9.09014399618587 10.561963070876436 5.764362162330143
As 6.630057374269926 10.116989452406006 5.199571711136173
As 2.8298485421801365 6.5061175117897685 4.666465635163703
As 5.7783859252762335 7.75307632838812 4.933646980134756
As 7.361291061715868 2.7042626525068605 6.905860181046725
As 9.694991319083062 8.190942211811997 6.258309968966652
As 2.8913703260884143 6.07783545923501 7.858221987613534
As 10.853420204207733 3.2397168559869267 5.221859548899491
As 7.712420806702878 6.192630813736213 5.290498528345133
As 0.6786656941115788 7.612509943151038 5.256786347500552
As 11.819645471672272 5.466176507176946 5.853271707419051
As 9.891704822660703 5.589787220732111 7.492405867835403
As 7.135106228213281 6.309948503297901 8.483977835659672
As 9.775172471253118 3.076682952326643 7.4877290597242405
As 11.725966738714225 8.549326977354609 7.730136166162849
As 5.745038452396096 4.357587646484382 7.953346090096339
As 11.446663068118587 6.506658212233426 9.234898426326682
As 3.6270207846392024 8.48091003603592 7.458342058410965
As 1.1999327268111428 7.906129379767187 7.773027898415175
As 8.809277502992675 11.341268420630643 8.152681574760786
As 8.420754198562616 5.0047099736480885 10.210664068267858
As 8.282535849060894 9.041992619766706 9.053908243858421
As 9.897150559928217 6.659033547891727 11.27834736289837
As 10.549247440640704 10.023275873111741 9.336585522623885
As 3.440407466258553 5.84646724184709 10.317557502281062
As 4.1591010456524815 9.516108503974205 9.614600146065541
As 6.7083056795147415 4.900861731801095 11.95549321141443
As 5.002538382167392 3.8785132015840107 10.323963710626664
As 8.389531834565938 8.66249467945065 11.562523115205241
As 5.261593316878206 7.486520380159337 10.074678342889932
As 6.320788998390572 7.381830681934041 12.2757531002653
