43
Energy = -192.63025583 eV
As 10.30273811064965 4.896842958248243 1.5639626367830777
As 10.926572093586904 6.9932034200401345 0.40025096506427643
As 5.347977448684567 4.380184912002969 1.4140251173164569
As 6.736273336732072 3.322710918479436 3.1659539666950223
As 5.049298267982927 6.703090314700344 2.2700695234485457
As 8.784752205119402 6.856394162950591 1.6466301982725289
As 4.103221009700744 10.410512331038781 5.231625777639457
As 1.717357892455723 6.115688977565448 2.744221942799459
As 6.530810193731995 0.9615353852857658 2.4311873839350517
As 11.677486060886205 4.871304757778843 3.605638200748587
As 3.224396029287359 3.08626645607416 1.5087069613081545
As 10.577325159995482 8.395088196851033 2.4105041240920535
As 0.0374933573886103 4.324888892361834 3.243585454015118
As 1.9355893413773961 9.497050420150414 4.456234661777046
As 11.793064950231141 7.272626481179303 4.225554068280912
As 5.883728147793408 8.647232892919662 5.261921418190665
As 4.0464497191504565 0.9819622074074271 2.5261864478540423
As 5.399392910670446 1.7085177304099193 4.495368270960446
As 2.4601842963712106 3.963177943284519 3.697261051680765
As 2.203154832776571 7.092767601890686 5.001482025045684
As 5.061837300661174 6.3996705236113955 4.578166019999594
As 11.793064950231141 4.668978676547175 5.619405488483285
As 6.014488357029123 0.9248728670586988 9.62252458863281
As 2.677028451809269 8.071073478287019 8.08455327065838
As 2.246097305095957 10.174273160179546 6.856673684337418
As 9.686588573653916 4.562251989526587 5.141405424963475
As 7.726252516454688 1.6545238484127107 7.969367634413631
As 9.723621956580882 6.999909297469472 5.647781867188201
As 12.29253150720823 7.069361070287704 5.729246710512687
As 10.788012072692519 5.395251233534793 7.215809873716028
As 1.166714576600777 3.6161164233685184 6.831940485336047
As 5.477191498018504 2.741769821933825 8.069713917582645
As 0.3866977600281384 7.149273441840868 8.14590095678942
As 8.053941785042573 8.741239887133737 8.247736578932992
As 5.875063788753348 7.720864530147502 7.58858682720505
As 5.935081565998928 9.684068274415417 9.119500513996176
As 8.482493469763755 5.219944130088991 8.186166330862603
As 8.738560681575427 3.240791190756937 9.66571423896639
As 5.245143892887458 8.1823753182464 10.953050435219833
As 1.604661583524626 5.03595306055715 8.564365798957125
As 6.313483988791524 3.3259546633087216 10.359676506367439
As 8.78385189227751 7.039171690360046 9.897291909466079
As 6.787475059512306 6.515597122341301 11.219383401538405
