47
Energy = -208.82581158 eV
As 6.781858201926469 6.039279673244444 12.539093363766613
As 5.130358477215413 4.532683422316187 13.780393162085707
As 8.738731409997419 4.893259202487979 12.110034240266256
As 8.567866809240126 3.8464081730888258 0.3826002473416968
As 4.549863386818351 7.47683849284324 2.1663640892597376
As 6.562113645009531 2.5134599617081537 13.853657529177973
As 2.2691161443371026 6.958786801126356 3.148892189709579
As 2.358573571019131 4.518228491729343 2.4698569994085515
As 5.50628343536004 5.143322177340114 2.179692271841222
As 5.651686133249841 7.832886630320766 4.417516794169955
As 9.909304790557592 2.591822621936476 2.1630307801474964
As 7.914381218238178 5.741738555018829 1.8636435450761917
As 6.105844908011493 1.4338577876668412 2.0650076881306147
As 0.5690636267516825 3.137778632395858 3.670864899301353
As 2.2978121296214606 7.430926022233442 5.7212898942946735
As 7.237055645188964 9.702062358959756 3.862963916774326
As 6.909885489499103 2.494933750674718 4.130409034075093
As 8.966892834142635 7.974730368060935 4.316906919950782
As 8.754421795959187 4.1694101196701014 3.7021135608244933
As 8.332487722206738 0.7685781147958811 2.9029689488953436
As 2.4221059861354512 1.5275884874090468 4.339974015116947
As 3.8117166993965457 9.345092788615508 5.053383614630896
As 1.5800888604374606 8.41555588587468 8.880316465560275
As 7.235675925009802 10.996481865193717 6.016505825143976
As 8.669933978573468 7.279429858307705 6.7039470474541645
As 1.8596321333538377 1.8745835661982855 6.808036585601787
As 3.614387973100911 3.786807177014231 4.485978866473066
As 4.843505413181806 11.024048156756235 6.6791770388075475
As 3.750856025544796 5.794457943136142 7.007565696754353
As 6.55010514801526 2.217638782090454 10.045709674901742
As 5.062819630850003 0.5748077396596105 8.854305586363772
As 4.217116899437339 2.4698380407586353 7.441512319519324
As 1.4776724076941274 4.169200257440583 5.787684707713753
As 11.201150517639002 7.3504840534569835 6.617462333108036
As 11.242743663720715 8.769859644061086 4.800593870226072
As 8.667657753041922 9.634027801949633 7.549706391757953
As 1.9401875538123723 6.015676181606398 8.783229653116498
As 5.354616634504844 7.551465207057139 7.560569512169479
As 5.225170154428882 10.708725664158306 9.15115139392026
As 3.8927742635453635 8.62783902724643 9.295917693541094
As 3.705923704345771 0.8817637228553662 10.984792008162442
As 3.210300045924546 5.48357483440123 10.876119909773125
As 5.815593660041907 1.1221744802984923 12.110034240266256
As 4.186238158536937 3.2208346729833366 9.88827560429645
As 7.3306298334491595 9.379649909689368 9.656977221142585
As 4.890023100753385 7.280215924037264 11.18173853719532
As 6.7529922945412135 6.92240676349169 9.53097119031946
