46
Energy = -204.7556421 eV
As 5.731202268909706 9.761143435402762 6.779991888609012
As 7.682073747607462 3.3250760490685374 10.039930076076637
As 9.805073877461279 5.841470894630838 11.585018995221297
As 0.3059393163457368 7.266758527626276 9.186427337770933
As 3.923968122781623 3.757523982658269 9.163797915215508
As 8.427505296714186 5.016083055112443 4.353833782774092
As 10.519246676697168 8.45277912974292 9.936638908619328
As 11.62500602591354 10.352806802014994 8.78559656422619
As 0.3525613362511059 7.7838238991975786 6.690495163574028
As 0.5079938883740208 9.233316400993692 10.73027669457708
As 10.453031394560513 5.176652516443887 1.7053484170252242
As 5.190468796326479 5.978068292999112 2.3514172064499617
As 10.71432216446175 6.388588597533511 5.948985739141382
As 11.29106650858782 9.860880736322043 5.914671192363679
As 2.124203133975043 9.156082556740875 6.058591284689277
As 3.8313670839197673 7.459325095208652 5.560672045567551
As 1.98057906219142 6.2691107132920125 4.337327341791173
As 3.824949661913709 4.6744835198343635 6.767904525778363
As 2.8041057932331226 4.048493774358791 4.5951466856421606
As 9.204334218440955 7.255495022404441 1.705191417183161
As 5.162739198214622 8.407572683982664 11.399871704842946
As 9.078242305854225 10.163551528982856 7.011891703894785
As 7.891901429082552 11.050780813270372 10.409673684355683
As 3.5456875825236938 7.452076327830073 9.8737314633113
As 4.985463928238919 2.566796099720278 7.235964365721688
As 7.356477576744704 5.448514028492427 6.43622631703542
As 9.329169337643219 6.060091611012105 7.813434958216814
As 5.374484800890362 5.909985787602497 11.677192746434772
As 9.794172277607583 9.452943709241818 4.004210706072607
As 5.842719147882553 11.116185828967218 9.001067036532062
As 6.713230145699782 3.141366749887723 4.281034260791702
As 8.728018092271752 11.491117346459209 5.043629819116521
As 7.616317751725787 4.910210996373503 12.049178545167019
As 6.837534978687071 8.919988720881538 9.59620046492027
As 6.487088809702723 10.438907946828474 4.5935363129305085
As 4.985463928238919 4.900018884540919 4.475839205128149
As 3.646531748624094 10.91203553493229 6.946693011396934
As 2.4909198084052697 9.355711029816415 8.510442470041518
As 7.739129854728117 8.24296709908771 4.880671523423084
As 8.049359808152863 5.268702942889773 2.3514172064499617
As 5.17740688252425 5.728116376823385 9.19371457796027
As 7.235810242264935 3.08576452217155 6.649689875272439
As 3.6153752405141866 7.683537562076308 3.081164076996289
As 7.551467268606437 6.743940988658607 2.8608524336586747
As 9.591346460941708 11.871572464718078 8.77150286299518
As 9.743581627435649 4.190270630239288 9.53322056992539
