42
Energy = -189.0840347 eV
As 5.893214111258368 10.091627095013088 3.516121639267743
As 8.202330839153518 4.540460245253526 2.3859041757590287
As 6.586617682847479 6.355943303643854 2.8312403295064965
As 8.046597777222948 10.036521287426142 2.2446694096202497
As 10.18312935294481 5.303605533500566 3.7455708504558203
As 10.07165974938104 9.194458779080218 3.39494136197827
As 4.617945160816577 4.883440797000268 2.3997560559953905
As 2.6993470850920214 5.649734565283323 3.852376111967878
As 6.1567670729985196 9.056052509109039 5.763719561837073
As 4.581970945932615 2.5726949597123623 3.4056916719448855
As 8.144246602059443 2.5587704612411146 3.9975990038144715
As 10.754515985673338 10.871368249936028 5.141961957950982
As 3.7129933763689373 8.51178275637383 5.940225739969797
As 7.03992057694955 6.747584512647085 5.2774000574804605
As 9.468381275708666 7.341142621995578 4.997559711660008
As 7.371168883413822 12.112951372128837 3.385286175662447
As 2.338120947992878 3.191117107181818 4.351465238768861
As 3.9283926584265783 6.0143108728971315 5.954837610531266
As 8.789426161723684 10.216833438036112 6.512211554932557
As 6.080631865948408 2.0728325323326553 5.296222658834932
As 6.2021246636808955 3.9145411400214702 7.02046111267064
As 8.848705850169985 12.42871665950866 5.373655306173219
As 4.322554150066807 2.771268508181076 8.248615698200531
As 3.477100478117621 8.350184627082195 8.420684167750549
As 5.083800085319634 6.488568002865474 9.284432493037807
As 8.958530525707223 4.168745977757424 5.666054925471272
As 1.9705464226644303 5.48381088563984 7.422144404702691
As 2.229733053962856 3.0529068123284135 6.855610829221792
As 9.892090394196515 2.7574223311407193 7.445786631313748
As 9.195276163228955 10.785804145863636 8.940689074518058
As 7.795192393502726 2.5331991463471946 8.395862042518466
As 4.484235514355632 7.84623104266875 11.287301205647834
As 4.880097301169925 9.84821371466273 9.846040311295395
As 10.499881213435208 8.636908371159697 9.043338751314021
As 8.445880887425945 7.37397104955955 8.305412610938536
As 3.3029138543257024 4.751431894604777 9.452062632613664
As 7.334595602031497 9.217060043275575 9.601560239910095
As 9.117896519865026 5.8082201317071345 10.152016623867757
As 6.549183217298448 7.128724755110214 12.627900653353679
As 10.077397767338569 7.74384804438186 11.416887247873703
As 7.1527727491324224 5.122802211548286 11.358488436167326
As 8.035061886942461 8.987136310644743 11.963182529353054
