45
Energy = -202.07623865 eV
As 8.791395180746735 4.687197354498044 1.3347908473692613
As 6.178089900141227 8.647469485076574 1.3364288374589575
As 8.616284585921688 8.100439200134401 1.2981809559660247
As 6.289739638329606 4.404924243848035 1.1661371404064158
As 5.043913847060886 6.529592308910279 0.6330136044746558
As 9.615352392567782 9.960994000381076 2.6027470412407117
As 8.381766423092706 2.706273011515912 2.80297880057742
As 6.475127443825509 4.108815004312111 3.633357381007269
As 7.903385815292284 10.087092545650194 4.129430072130281
As 3.088160626529256 4.436290482976917 4.51866675965197
As 2.1373023481408415 7.306303128795168 4.87688313140194
As 4.313512410430508 7.701147183062384 2.723171877729603
As 11.242104614150936 6.537118424812108 3.360052568934882
As 8.750233015538694 6.418942670056062 3.1421572069878283
As 9.978391747822801 2.96603323539451 4.725838284037421
As 4.598147342096331 2.5228926537484346 3.849536671526096
As 11.959399222181098 4.1978808812007395 3.82419493643613
As 1.0908059765894298 8.097178249959155 6.957823923097299
As 4.510993135442878 6.482167231088492 4.928600435985103
As 9.072389548122564 11.173528492831359 6.073006435194978
As 12.773158229992942 6.129286156077738 5.962923629834846
As 6.970952257618464 10.39732080824309 7.157030607330519
As 8.724887964900846 8.755823931686953 6.490692989344874
As 7.526441895132323 2.2108356508574145 7.306270852969915
As 0.8698249096144197 6.21515200508583 8.599646956250092
As 9.296744617072079 4.952462503754988 6.097566827139954
As 9.642593718421972 3.367950239814596 8.013916339536332
As 5.02212365564047 7.944661758631628 8.366439341542671
As 11.637755581140901 5.825473241876815 5.709322195211199
As 2.741107949173556 8.954043966432891 8.891930704017295
As 4.023084681786026 2.8690573917140476 6.246397829492965
As 11.959399222181098 5.751178832587722 8.248621825736103
As 7.830810161029498 10.352723132785066 9.537972361668102
As 5.946348870520249 4.160028179834546 7.220298418514376
As 5.89762298798349 2.5551133560173747 9.123326876740387
As 0.042583658888600634 4.2266644532177695 7.169079824173388
As 9.135408956311146 4.793931348498298 9.992623835295769
As 5.8083863829823885 9.133682469738716 10.440953733656459
As 7.80155804346836 6.673515750521173 9.065117545989231
As 9.46417380756538 8.525171484732642 8.94953620408962
As 4.175500234633921 5.877449799199243 9.512854876457167
As 2.3232774389398503 7.238191867136226 10.559265052721164
As 7.152560713346087 3.649921967320613 10.97223773630635
As 7.241517401999083 7.329744872339581 11.366811706458542
As 5.522623327679441 5.531243560577965 11.57507333484368
