49
Energy = -220.55422838 eV
As 7.85537489157922 6.1694562646524025 1.2048151576737078
As 9.96797954829842 4.787962529335239 1.290295469165643
As 7.702225956779857 3.7107822228074934 1.43147274936635
As 10.183410308269641 9.889889121886823 4.3260632129510155
As 8.116265114143282 9.455423846743047 3.003196549166904
As 5.54682585005112 6.030505509286855 3.852341908181005
As 10.772783505121051 6.521929257758854 2.931591245852281
As 4.474598708414254 3.8129614796321265 3.561027815096206
As 6.131038110896073 10.263872308862963 4.3381203857053565
As 3.8097245158568067 7.783209662948438 4.2949316179191355
As 6.792197595237842 2.6863662978404066 3.518277925873382
As 8.343686978078042 6.97147684496473 3.5404654726957636
As 11.740340282848864 5.452460249928453 4.966739189170606
As 10.817580637701642 3.2223274082300533 4.715322268427654
As 9.56989038969763 11.593325205451816 6.0017562664386945
As 5.328906984696607 8.652521541330753 6.133099658306232
As 9.079323037840393 9.193231937267 6.451192592564719
As 7.195944384588207 12.183384469297675 5.531586808295369
As 6.090438447995483 5.004561850168233 6.084916097379273
As 8.285302248335121 3.9544239825599536 5.103289428302552
As 3.5522008260750466 4.365767200686221 6.010465625095992
As 2.10212642399315 6.204983269130282 5.132237556968908
As 8.325019848209596 2.4106118924734723 7.059609519596534
As 10.856882689593071 2.520161749439943 7.121555795203562
As 10.041024105493477 6.164928658190007 6.796964599754244
As 3.426227200522817 10.104374005464669 6.857865327777833
As 3.8377249314336477 6.370999644241034 8.674702273717264
As 7.120186308940237 9.638536461485815 8.696207152326275
As 7.334706016872742 6.289342378304965 7.765554699096533
As 11.107048570925192 8.3260662746356 7.584497325766993
As 11.314803348059653 4.674355980208698 8.302925309913167
As 0.9989313015690671 7.074000744258929 7.181178328202506
As 6.7847478774009655 12.034992969456972 7.996282254700752
As 7.545587233334104 4.029664253100939 8.819490790671662
As 4.350212623254955 11.88181558859036 8.404202555442883
As 2.1952595800355827 3.2107498289124203 7.606500938321688
As 2.5267879278692713 8.492187632216043 8.608199631986562
As 1.5977130040169678 5.225926886388867 8.850991250353859
As 9.656464260838009 4.3931071556704735 10.125436758962275
As 5.42273827108471 7.110040088567352 10.507250656999313
As 10.64357744249866 8.407098864548857 10.08736965038622
As 4.983574429318316 9.95150213737246 9.969004674729376
As 8.968707084942176 10.275541277376025 10.303277458712602
As 4.4962635582438635 7.9691516394725 12.679861267634745
As 8.799386945513689 6.7686613755326155 10.289322255312326
As 6.076885973903619 6.0745660759337925 12.670690326604111
As 8.125570288849005 9.554251521570398 12.547112859142947
As 8.37973857855458 7.069530806572245 12.742475722944617
As 5.712064278800775 10.15301007582106 12.414264041718733
