42
Energy = -187.4822405 eV
As 5.417934866179251 7.844202937506509 1.8164448405775342
As 4.329962075233838 9.715939426834455 0.732772747815239
As 6.978929019230182 4.805996797513703 2.0078108599748044
As 7.812469413111945 8.552762542991552 1.9370299158805702
As 8.785838739349682 4.945368422938258 3.458014654046692
As 5.207889943741946 11.52883877446413 2.0133639848529814
As 7.6604239382930235 11.0365139228116 2.0379862687569825
As 3.0212439568926115 5.476355946132135 3.710738661672164
As 5.201124529550327 4.250445696717082 3.607638402785047
As 8.49327550447979 7.809755526605766 4.1975277960494255
As 4.525138962448415 8.257923171343442 4.112761705705734
As 5.780184213613793 5.327524354219174 5.7867164666986675
As 9.783781178379883 9.90405752133693 4.934566811766271
As 4.9330585216275535 1.8709897254479237 3.789376010039727
As 6.446276730573832 7.906155455945283 5.663536897352028
As 8.138461271899235 4.653400521782696 5.869440267069536
As 8.21682025693779 11.71195965807385 4.34209471175409
As 4.331441027636164 10.80116810173751 4.251092151974103
As 2.255568723298472 4.2648620040667975 5.527229200623646
As 3.385812259817876 2.0270974340988 5.571442202708723
As 7.463042785264815 2.2545239466560254 6.121449190000121
As 5.24535179843348 2.6446718052119076 7.308033436554697
As 6.3979063892132 10.57034750694878 5.581568846727976
As 3.3227118490792185 7.976344573834947 7.887570750858474
As 8.845149039161488 1.997782100866258 8.170573032336058
As 3.1546328962031693 5.601257023802307 8.635799685053103
As 9.316688719662936 8.040288032167854 8.279704983028326
As 11.34749442057803 8.48448999028391 9.728217398396545
As 9.50375667876256 10.383651118124465 7.409795379892305
As 5.51798225338329 4.709880302176712 8.748197125723873
As 7.26004697264808 11.463423422056243 7.764964326626196
As 5.212889248916986 1.0513965771137417 9.321965718966291
As 8.973621694494456 3.6652738066229142 10.069494090195436
As 7.596718246906132 0.33038135655219586 9.476577182141469
As 5.55758990855943 7.840731651574187 8.924894001111854
As 10.192742999659261 9.87492127133225 11.16089399565968
As 3.491028956465516 7.45679466910334 10.297413189208248
As 4.9263269965206025 3.097081113499416 10.662012020568458
As 8.161475072115579 8.719056580195378 10.39273401025244
As 7.120894538443523 3.534588819080418 11.693490633994271
As 6.264733643333335 10.16853244005005 9.655408100129089
As 8.546000083494318 1.567684273774607 11.466078668065958
