41
Energy = -181.4448948 eV
As 4.4541351554992845 6.267368557188169 1.8073566776692214
As 6.446001714259136 4.732208896206749 1.420287089469624
As 8.229855404223127 8.168786734717315 1.922128256519996
As 8.008826171103403 5.951565275413214 2.925499283335407
As 5.771613448118426 8.460959945306131 2.337289656433018
As 3.612248873399132 5.285115917242205 3.962574914473723
As 6.1779093890320675 3.1912275179629996 3.3457682289713224
As 5.99614316970921 5.438639467269268 4.747375331646457
As 9.861321579050436 4.391010635650271 2.9558479737604655
As 3.653389299747748 9.08688907157962 4.835674274808874
As 7.918485545703623 2.555459613412003 6.653498062678688
As 8.51294992678182 9.661441466294358 4.224469617719181
As 8.556290100438925 2.5448219114975523 3.5222744679794613
As 2.333117900059655 6.946219730157327 5.291100227581889
As 5.9574587441566615 8.217302936604096 4.7798006835392535
As 8.909667978094337 7.612070538229711 5.581045742456077
As 11.338873332832526 8.204250529135171 6.0971547361909
As 7.553386514423004 5.029783732056608 6.694231602891767
As 10.39970201201763 10.415215547347788 5.646398388754533
As 4.181087928002722 10.789376915061123 6.6792875937892555
As 11.190104945025626 3.960479608312326 8.870729911821101
As 11.321859347172827 7.9519577554071255 8.622383718927146
As 3.5712574863283066 7.034008703253013 7.4970088327173325
As 6.696868808403164 10.700395475537206 7.270504334548287
As 9.407727432836577 9.540245263025838 8.773240056839827
As 5.845667641282479 1.7020891477966653 7.522848880660524
As 2.9222730324744535 10.436177364491948 8.857495839593735
As 7.573789175104789 8.345357790446858 7.623681792714356
As 6.000322560531604 5.4066003061392625 8.564320807789928
As 9.947548115943128 5.868166304901596 8.31448027296502
As 9.302522102218852 2.4173002550440095 8.801938264905253
As 1.6326253132537776 8.367057610796358 8.28737927653344
As 6.385277180916582 10.915346423949602 9.828439224202517
As 5.5590979512151515 3.0912662886855755 9.461567653427013
As 8.10484442306483 9.411393622458885 10.944731333801517
As 4.842700529823721 9.041796368628544 9.41476989511786
As 2.4918523855672796 6.46098427014254 9.667541333436784
As 7.930746787121954 5.716705874612617 10.120820817070248
As 7.80388193088065 3.2271195527840826 10.618659790899493
As 6.814409827327683 7.343577325234207 11.700872178008202
As 4.290862346767542 7.620963259933589 11.316226483264685
