40
Energy = -177.34999674 eV
As 7.168434245294019 9.273788430803341 1.086732864183347
As 7.737239786706612 7.157702096730393 2.183166368005008
As 6.321290149629877 4.851571674684719 4.935262333355052
As 6.346759487437073 10.73902783070973 3.140276075081752
As 9.70559436007399 4.926665436194355 4.617152540418393
As 4.227911491125605 7.910325238514162 3.9614858645124293
As 9.28515728449342 9.064607085079643 2.27215944740957
As 4.151577679420568 10.466004876398204 4.251402121585701
As 7.778865122009424 5.272302033890853 6.917040940753689
As 7.724482085462339 12.387757991519898 4.338922192317368
As 3.9226806468374225 4.727171313108186 5.8351675215743475
As 9.719590923115318 2.8861107934928008 3.5454235953227577
As 4.621367491642305 12.471461225740137 5.939274182094209
As 8.250991107580726 10.004855535794105 4.5314684116682855
As 6.564868743655877 7.35411192235279 4.478090883021685
As 6.8290063484521335 12.110684866824348 6.981621958420947
As 3.770749236323375 7.139060261127691 6.274942263779068
As 10.936753089916495 3.0489551427980763 5.676174271515786
As 7.2759911336456335 2.969137394032564 7.735768126329076
As 6.256459883202827 9.700704730814126 6.611988529425408
As 9.310521133402556 1.6655610106255148 7.024826305179837
As 5.916185216629288 6.534803030387282 8.22015260226646
As 10.811466532042008 6.198396432961156 8.088519924835714
As 7.3809471559072515 3.1102744431563614 10.203037138166398
As 3.693170742904321 9.621150758759308 7.470956362886015
As 3.549497815980385 11.96649377466223 8.212603118440589
As 4.3703181377921565 4.451029532853371 8.232122743803398
As 7.530372699488803 8.627915519067006 8.377375540522456
As 5.733897827123692 12.117416537597478 9.402888580580532
As 6.802906285348786 10.042956364621956 10.267600105719174
As 10.730207862038773 1.4250980222389666 9.01619983329704
As 9.224464312122475 1.5969455927660032 10.862860057009335
As 9.99107407008268 6.867511464529362 10.271483533156905
As 12.30586144616557 6.19483781238919 10.070253916807758
As 11.053168676037629 4.0463036783695445 9.391041803258823
As 5.557917347411562 6.3731758503906715 10.74318878496505
As 3.0450339630252325 8.641663489568952 9.64513501220128
As 9.342389570315776 4.314957935737618 11.159839948656945
As 3.2133120709749807 6.105593606557158 9.830562102862492
As 4.93968917826128 8.73408160123101 11.294004433690336
