47
Energy = -211.05215579 eV
As 6.4726385232322485 5.049798765780037 1.4181171758331692
As 7.3141907296781525 8.903128562988933 2.1514076292361537
As 5.532388203662031 7.3862989232448495 1.2494952041205811
As 4.33647144293376 7.140364667976803 3.393401515811097
As 5.024220600768229 3.9130712773144483 3.1153764379311903
As 7.940925998280782 7.37697684614294 4.050360699246348
As 8.594537913484249 5.3800009504539155 2.7061133612150114
As 5.625000855656757 10.417546561500762 3.386336339420303
As 2.9036477095884776 5.17559367944108 2.7758506635281064
As 3.2847026039329257 9.389545263561867 3.622368406625978
As 5.862723593605353 9.22980792116506 5.539852503778093
As 10.343709641292635 7.7096634890270455 4.845472161687773
As 10.809999166084657 5.230168291860527 5.044974117040075
As 6.853812604957596 1.2161202111562157 6.197859859504282
As 8.367555543924954 4.501558424741808 5.095528151454057
As 5.429822413561969 5.184847460878409 5.253487443108994
As 11.338417157178403 10.767299807091451 6.349346589066494
As 8.947943146810049 2.0889880869098234 5.2220992427642905
As 9.077199766297008 11.50383781575866 5.560297514063422
As 10.415790687012478 12.820179707793265 7.205960505891227
As 2.832257814607325 5.274773925972117 5.336084377706352
As 3.5255480022278944 9.79452203134828 6.158022321884546
As 2.6996882778702473 3.103482757976791 6.53562992640641
As 9.550868090112575 7.444768474631215 7.248239598398567
As 7.739188602426594 9.950859611958872 7.0119521843999255
As 5.377468074214757 3.1471988972045355 6.732938703562367
As 9.64393215196603 11.390184043519465 9.26685767255518
As 3.94688570241135 7.644839453808713 7.507880818702615
As 7.4049995861730515 4.036192252091369 8.188744915131723
As 8.893783035567512 2.0420432283072723 7.728846009960421
As 11.4346527275795 5.7452376311796565 7.410929861435614
As 7.235514450258862 11.670123135866044 8.702244906234643
As 4.749690866878525 5.03331243915352 9.204313647601674
As 2.3955458420643474 4.256646928125805 8.740276143435187
As 3.0078607980453476 8.062681128293969 9.822712400260981
As 6.143625634461782 3.2448694874344883 10.207697235978769
As 10.695696608936668 3.9424244522963643 8.999703642873826
As 7.091368063797928 8.060495843471251 9.70772997732979
As 10.811362531968545 9.25161924780283 8.505488823760118
As 1.7523445502786692 6.6796709107343695 8.17574534026532
As 6.428118213245252 10.306481869644406 10.668482425295542
As 4.0419677901803714 6.22602470655255 11.232710287470654
As 8.972633752500295 5.485480144781278 9.709545412555881
As 6.368816318261358 6.9726943811552875 11.841813611128364
As 9.346189465330806 8.404707352183186 10.7345023596177
As 7.593561616122152 4.737364109094883 11.677081136048796
As 8.726829001299958 10.592600711352134 11.646216609401062
