49
Energy = -217.9725806 eV
As 6.721352310854145 9.444553502938378 0.08654136591189382
As 4.640770098697282 7.209562095060371 2.0750777417045154
As 7.869669255024718 7.389389472777874 0.15094978505776108
As 6.089776177175185 9.320664224549379 2.4151108828595484
As 6.777743697372621 5.947923205578769 1.8787055398418933
As 4.796711140039986 3.1479705733526235 3.0012053172587767
As 3.0528259203531634 1.8741392010412357 4.233099876247612
As 6.476560928699022 1.306855373228382 3.5558014503484747
As 4.841210829689862 11.128455241098445 3.6256782005490753
As 7.688303277801486 6.658816780138418 4.1298735059940945
As 8.352279811274967 8.983509323021895 3.428416069695047
As 9.918831073427857 5.4941458275057835 3.780708469695994
As 3.2688130952990244 5.80568790131862 3.645971258052754
As 7.892580488662985 10.56246752549999 5.339365234850802
As 2.755007647428185 9.736465528471932 3.6227636970465564
As 11.63311303735574 7.134225910462459 4.718130497135321
As 4.636386239489538 0.15829527709747937 4.778828891634306
As 7.423790204609322 9.143302469753715 7.333104357288539
As 3.802403475769557 3.225502359350122 6.619850269297487
As 1.383570104274895 6.806023805129829 5.121059346407
As 5.051193444514142 4.724125903085936 4.978267384127389
As 7.397452894298825 2.8788061697617247 5.347560837283285
As 4.470636484336226 9.358919747840764 5.336664032876302
As 9.925522972628293 4.7680071996894755 6.177818133407131
As 12.346323092062873 5.406034143767674 6.411062043872522
As 5.846519975978882 1.5732621348452782 6.8011059211367515
As 9.667227186548766 10.226149832816022 7.047424816036836
As 9.554750409854039 2.2901307662135917 6.524240178548104
As 10.068893693225869 7.791766266244071 6.607712352068002
As 7.288795193579895 5.397496993078279 7.457257317201252
As 1.3814007072004513 4.959159107480814 6.706186204303695
As 11.820030974688216 7.074729163232955 8.233625127536953
As 2.461005127218024 10.654414640008413 5.931671210974989
As 4.8438272221066905 4.9452593830393665 8.32289695267853
As 1.241550793159061 8.622601178700918 6.783008330388656
As 5.707634630611774 10.349515983977893 8.782242150469028
As 8.349406691465962 3.3099457666951206 8.476894980203971
As 7.794523529938592 6.8609931575751855 9.436665984649062
As 6.862974416718846 10.77459325009013 10.886303642875266
As 6.569684482487217 1.8560050512083828 9.313418424189893
As 10.196901523341612 6.360298143451684 10.079570177798635
As 5.438708225366173 3.7491375078346323 10.441050469744859
As 2.246138295907231 5.673735980546142 8.82376164273281
As 6.267632366848708 9.10840871048325 12.362190303743622
As 4.8792083355973155 7.999520447699141 9.000879819687281
As 2.3295468200151896 8.106902795655623 8.951220035542795
As 9.570287574237733 4.007727694344885 10.540572965772764
As 7.366142730342691 5.213449896252951 11.253346952135404
As 4.963732075418545 7.410298070001204 11.374490534133804
