40
Energy = -179.40719135 eV
As 9.528592542709639 8.00767172107009 2.0239987207392036
As 8.809721688794033 4.256318704301663 2.694746725449391
As 7.698272687287058 6.482784641303956 2.6593312212694586
As 3.554805897783824 4.881024352700978 2.8599589005701134
As 1.9187597200378934 6.457743120521957 3.00630883624161
As 8.174858429941299 10.049619721421474 2.556000929644248
As 6.651283308399498 3.0765034780579503 3.099957881749468
As 3.601096172281713 3.692345660152725 4.997565670554613
As 6.463341756287808 9.179503822405932 4.1555081240122735
As 11.14163045430994 8.20835953528875 3.9225910620748428
As 9.204923692637445 4.522812963297534 5.106286731696946
As 1.1371039361989126 6.6803732286391595 5.32678283374151
As 9.672624080609383 8.135883559783203 5.903895093193306
As 7.477434130993235 7.093394876867496 5.085707664951683
As 10.075691744165281 10.856182952807192 3.9784389780133993
As 2.686022084689197 5.300862234698597 6.672356448178865
As 6.8471611306190345 10.653950715373538 6.09531862545531
As 11.496743442780488 5.469899055126807 4.919931711224115
As 6.069525024757442 4.09414563495919 5.330156153861409
As 7.714672669538478 1.074909238698834 4.214677905399389
As 7.682044870280113 5.421739467880168 8.353455673626394
As 11.354225018776525 6.628839255625589 7.074149709169125
As 8.170331067465286 7.88513815154326 8.464989447841903
As 3.3509337678907993 7.621677446483099 6.061549322049263
As 9.324510391530199 10.602566345711306 6.268305957839559
As 6.004778310604969 8.822605035613734 7.663033824919063
As 2.1387973939114477 8.259840161767665 8.187343156888804
As 2.9064208857041316 10.25268827631567 9.34681128363514
As 9.275088097840381 2.114601598263863 5.83280130309221
As 6.849149400927733 1.9188280870023828 6.4058712962576285
As 10.111180769081715 4.842917075826262 8.284083690828826
As 8.437223549595457 7.763470625562797 10.95835623910911
As 5.4648380154718454 5.251243932137692 10.857153471870605
As 9.004519713513636 5.345073080626463 10.483445348256694
As 2.016194755434875 6.174819449405678 11.450001832659392
As 5.379177135437592 10.386658382374774 9.46880434135234
As 3.6535735152167836 6.9909097397902835 9.813725861634774
As 3.6365299484073494 4.913761262015359 12.502710196922894
As 4.409766343243826 8.925580532841948 11.220719606623973
As 6.31243356808566 7.108733988976448 12.099149330642927
