41
Energy = -183.6112298 eV
As 4.844315219017364 6.650759432905332 1.7341746551653494
As 6.034763941540207 8.907573789384402 1.9194925730734365
As 6.5423182946062575 4.863470350389045 2.3785056313895563
As 8.515358158951438 6.398525444109748 2.3788456759474585
As 7.409061640882287 8.085732551223703 3.8889578354288044
As 4.10230026558551 6.94273660589517 4.104779474420323
As 2.451462592159474 8.683645863924237 3.5848356575296485
As 6.317864786943354 5.068135786609463 4.864248161460477
As 4.303238037787192 10.368387759493627 3.099027900146064
As 4.538495226970124 3.597702517963082 5.787564851969336
As 2.6449610907856127 5.132211296651711 4.987298153577232
As 9.523401001667176 9.396347935531221 4.4525500473532
As 9.994965042711103 5.356902513587685 4.097487275004105
As 11.761812779845819 4.400093084813523 7.479922643303669
As 2.258426935814547 6.651790930033646 6.969951867345171
As 5.451211466414179 10.310404300340787 5.34881703274968
As 1.3401115160945454 8.729097797885117 5.911295822049793
As 9.540559049141335 7.183303560638785 5.741521122461109
As 4.352513489982367 8.13416979707389 6.796684387276184
As 5.75484471588283 4.36287168717009 7.926908906324817
As 11.466760116718511 6.918659548624674 7.304251501210881
As 7.287898656515703 11.9500649585305 6.284003108304564
As 8.107460385097239 9.615938136557173 6.550458381767355
As 6.281713621444736 7.475360692273054 8.290304280846392
As 8.501788845001451 4.580680665633418 6.004314523113143
As 4.013028833179925 11.640367827528003 6.890160210332188
As 2.7144157436694645 9.696911669777782 7.803556162353882
As 10.129736728599012 2.728451555392383 6.502581436118277
As 4.555221362239811 5.995089986424595 9.411744758979818
As 8.68302265768415 5.51564642137368 9.191913453938755
As 10.179790907887336 7.52207791715128 9.398854341723021
As 6.035474324662974 11.773320949401416 8.428860796762091
As 9.161840653040842 9.783863149671435 8.831711429009149
As 6.751691862697484 9.603907397670719 9.588287468186044
As 5.44249219750045 2.693762249994589 9.762793838364747
As 9.82136118295589 2.04514151872325 8.89013559065068
As 10.711395389736088 4.184154508171204 9.841679915381995
As 5.524427309883756 4.637535276108613 11.3233929996074
As 7.904799051745815 5.235146787457785 11.579328461448
As 7.655181979747971 1.5789320335378259 10.156470638151958
As 8.73630034191224 2.94891114907513 11.860114434478147
