47
Energy = -209.20785234 eV
As 5.48166131417854 0.7446539947621382 5.282199249969038
As 7.753508393596827 1.1335199593477714 4.351306777085128
As 4.522206946503297 3.7218888261012886 1.5782637822978463
As 4.129471807848562 2.8390125897056318 4.966909339524717
As 9.288151566826771 1.3963884307932988 6.22490349446814
As 6.2939386665818144 4.605904099706003 0.10855816755131976
As 8.305696666017308 3.8246357725634943 1.4379911403590548
As 5.815029511664664 0.5779211198774211 7.730067609901012
As 8.189539189627677 0.9480157387561232 8.170008070740696
As 3.8538675654378953 1.8051051740244282 10.296627020890181
As 3.1789943373493132 3.026081320087676 7.326739300392051
As 6.349041551592267 7.078180119057384 0.38764082878617245
As 5.34021085023662 6.3760005217197815 3.9776777748924665
As 5.371655282569182 2.9049200606516803 8.637801097906054
As 7.737916610690338 3.590242549985213 3.8673430740954826
As 3.4620049716889194 5.654915549694042 2.4694626053168123
As 9.98350402333207 4.48082294009737 4.265690404034614
As 9.717111930554635 5.641685776151488 2.2378461966777246
As 3.9931275354535645 2.5142900283253398 12.460596427326085
As 9.127625728052557 4.425281716364286 13.105639021940547
As 3.9035341426373886 7.3738981106090415 0.7569344704690408
As 7.373287358831633 4.122800626905102 11.29903883869876
As 4.9528446141208935 8.401983330998682 7.649080049010821
As 6.312781733559109 11.565008165509102 8.469701585808352
As 7.572368263808664 10.226008160289792 6.837638937367779
As 3.983598491441673 11.54670647234183 5.122953604888584
As 4.154697695501738 10.801686179784657 7.561732857512037
As 9.930771473833206 10.107885397623134 7.605926765435261
As 6.051673195047424 11.79178388952319 3.669729142388566
As 7.909838419570849 12.125787792056363 5.309869407922701
As 5.5782408134654435 7.685247199360966 11.102906476719342
As 7.800362378992058 6.583693433037947 11.006415940414046
As 4.003119698875619 6.058926797565513 12.136416610474052
As 2.99845252258429 6.995716461184623 8.368382769548234
As 6.367965021253847 9.833371682239813 2.1878984473556056
As 5.297615340377409 8.546135150746037 5.194741335816765
As 4.668174994059714 5.795193236920885 9.773161724690757
As 10.621639553317552 9.110268607831465 5.4253521520019214
As 3.141161294134355 9.338596817524722 4.3351118975044916
As 11.40091970880095 11.360179684855703 6.012124515912895
As 9.826013825582402 11.09134088547032 4.104189834936956
As 5.571864115956757 4.352124333011067 13.029172414161106
As 8.854257796543704 6.708574656961278 13.219980683748306
As 3.9270539259551556 9.629006895582869 1.9299324697502036
As 5.519022440440723 4.720248235272726 5.86077525958279
As 3.1422426799755554 5.388516799839816 6.451217246669855
As 7.216436564958807 7.4240472226108984 2.6705456904850373
