49
Energy = -218.73765971 eV
As 5.231373222329807 3.5713632080313897 2.5220500284585907
As 11.54974050296146 9.369150019712334 3.455441370862099
As 5.88841217300095 5.7063867605361605 1.841216954607047
As 7.584933779221239 8.812914473856525 2.43622514203178
As 10.268716339885616 11.374482235626061 4.141484967289726
As 3.215864088492592 4.205737432086873 4.435855895580623
As 12.888799224706542 8.64340233199276 5.425698398141411
As 4.251173832711736 7.504422224734451 3.632612789541309
As 6.636237422326536 2.4527683721321516 4.239097441608148
As 9.319839265438251 4.33113652325763 5.049592575619984
As 6.4830038793138725 10.75812798167983 3.5310972218153616
As 12.046989214077978 6.326047518031751 5.1397306678468855
As 4.092186008586504 10.055005143402221 3.731644917297169
As 1.640709743908976 5.558451733477309 5.933987170956377
As 3.364037301177779 7.307855129789879 6.010363506954698
As 10.372451908769916 11.561518036606781 6.643269180551301
As 2.7126023480390216 1.8815894853888782 5.265718940923103
As 4.923027286241117 0.7379269687753367 4.818322767356235
As 9.222982129689022 9.131969156494709 4.323304535029127
As 6.654300902628244 6.933637344799723 3.8753194983567787
As 11.975318821709907 9.806349037922034 7.439015435896937
As 3.931108408303753 4.974120846617462 6.680097901148984
As 7.139643057254488 3.939194660098405 6.219356991454151
As 3.329497299898337 2.0963261116872096 7.645745629846174
As 5.155252155332736 0.6452683149294639 7.296024380751877
As 4.553421609990412 11.125913368935576 6.005791948261727
As 7.169913151645779 7.072740619917304 7.564747816366572
As 6.6296371653884085 9.750722822475463 5.895466189145798
As 8.098587396245566 11.063289418716042 7.535238051652672
As 9.653614648942622 6.5852630315050895 5.98748320775677
As 11.25365685578549 3.1951272165136326 6.259232256226476
As 12.489913565123437 5.1445876668300725 7.2900113346628395
As 7.63540332817584 2.088585662112543 7.829985768163213
As 1.920982916976906 8.90482890068276 8.50740935335859
As 1.7882638104230704 6.8921038944440225 10.260812147902968
As 3.4193964287787595 10.807581661717759 8.212114275020276
As 5.2099363549523865 6.913827880109806 9.183465483690634
As 10.83606617666171 8.31429640744782 9.075720961196387
As 8.420079145530126 8.855106188529076 8.692019469646421
As 10.31870706482923 5.975858273614111 8.29465677500865
As 9.146281930027927 0.6173209569331913 6.644533745799456
As 1.5969788451814284 9.240815550102326 10.995170315942556
As 3.641140960757538 5.90312151870908 11.34393299676658
As 10.165726015223688 2.1605440589189175 8.225924486016325
As 5.1526039142452476 9.42517513726733 9.55716645970543
As 3.95349379878933 9.775927064732672 11.689548371320935
As 7.420531437264986 9.437389323115855 10.891853696591712
As 6.675376042386878 7.130605289696747 11.280542309156743
As 4.6775285416875265 7.639558456326321 12.750339691734565
