47
Energy = -211.70073316 eV
As 7.742007874597645 0.6517590064678789 3.1015387287282805
As 7.215072314806543 5.058237392647242 0.743368330611119
As 4.533069965677212 2.405205072067208 1.5312103552725291
As 4.650125782047511 1.6964295419298 5.196677989134847
As 2.7459769177609523 3.1774282000445693 3.109464535931583
As 3.8322823735293556 5.820563939318535 0.8570259474622967
As 1.7013401252768423 4.6153686843575565 1.3570197052964672
As 5.241077660195018 0.5342066545386048 3.0778594232457905
As 1.1628939872210309 1.2688500376019867 3.3896874444884504
As 0.846427679976939 5.372334427179466 5.4995000241870295
As 1.212867884615593 7.824611490751285 5.699334768544313
As 2.16174319743751 6.846157836726859 2.396612818989471
As 2.419040934244248 2.5452208701236514 8.84855372447613
As 2.5596448697374448 0.22679229687546548 5.218167537144659
As 4.096739669739448 4.209354164130544 9.52879707099285
As 0.8801171688342323 1.8888045801803939 5.75668462042687
As 3.003350481269799 6.334790914376966 4.72455547028023
As 5.401556045388247 4.601803142861326 2.4361493759321204
As 6.742002710415306 8.914334613461316 2.9797157778934817
As 3.631101692693408 10.253756170625827 5.556008091366343
As 5.616229822192962 11.891822805114876 3.131171724208951
As 4.369847285944153 9.651116184060477 3.2106247599068753
As 1.2501238806413404 6.382978350308933 7.74359100644682
As 7.343774421343676 6.807364148800825 4.253016133975369
As 5.5271221122617575 8.999244903632373 6.571281750774052
As 6.955613602509778 11.060215149891077 6.403406128429797
As 7.784415604565982 10.889479272305556 4.023002403407248
As 5.089177230625422 9.660530573255963 8.942836257887413
As 3.879065321818017 7.69612613768107 9.874277686376574
As 4.988507183607636 12.400706971285034 5.544654259861454
As 3.7313485477165336 6.135059345870551 7.934164092781139
As 6.9757453150051205 6.569163320826708 8.005495379524904
As 5.823192151733994 3.4512194862215315 7.911175963622557
As 8.731140562380327 6.428449205078427 2.1663741364299938
As 7.911956371589765 3.0559062392634426 3.711032635044135
As 6.040834513540272 1.1100188654477021 8.71464880502971
As 9.153472524782625 7.803813049932366 7.737605434957736
As 7.924017760370492 4.412463223310249 8.920091347187252
As 9.380676720758096 7.897767501706355 5.235809534087888
As 9.205024240315115 3.997406423561675 1.8248769797759197
As 6.369094635998534 7.8366687013377305 10.084315274758291
As 8.468467554174918 4.453023890916628 6.4783166680007565
As 10.427964976256959 6.038599346117995 6.560766550530571
As 8.2761755286228 0.26212798310766966 5.538390128087687
As 9.58484644783846 2.4395892930112 5.455147922603181
As 3.6133718600158327 0.5881846573786553 8.707615075814118
As 5.955527776997593 12.400706971285034 6.463553763810556
