47
Energy = -211.22608471 eV
As 7.667943532123141 8.027442146951621 1.5939465233930177
As 8.697833748224008 5.811307365241138 2.0793922918256658
As 3.293901994774619 4.833722539242971 2.8526986024971945
As 5.478066573702879 3.775974611676845 2.7236016054348773
As 4.845094605973611 1.4441999030341897 3.3719817948841384
As 5.258044305042939 7.949970103191939 0.9396180074615966
As 3.684296431386341 7.334982095119593 2.772457814181008
As 10.936297033016931 6.631938268904324 2.9313898680406014
As 10.55377364839572 4.484463792825373 4.216636109260628
As 7.038522349700864 1.4228147323038727 4.59544852327648
As 7.230813763432649 9.178519817673752 3.7110662872698477
As 4.937322063717626 8.63568684187951 4.453638309482563
As 3.1364588851543065 1.6417265945628206 5.1973919074611095
As 1.8452514963097923 3.6808124125078363 4.633637199543135
As 5.267204839632577 10.049491160970096 2.3930267234628184
As 6.500206920723899 3.8631976352567836 4.987168831524532
As 10.253265282255043 7.9201884718748685 5.021969611323163
As 8.309406563810837 5.513546776832762 4.539330433683658
As 8.822372177241812 10.874851775032868 8.736392767976994
As 10.965247785709035 10.26868966409998 5.062330862134593
As 2.2928667352593375 6.866048883738443 6.11663143553568
As 9.037360998871996 7.502367040399161 8.146675908650344
As 4.675162092907377 6.098718021318789 6.494670190632362
As 1.0776213610392193 4.845991477768832 6.763103675576785
As 7.656509309154723 12.87467031668486 8.814042348461305
As 6.552654353574194 1.150328329490096 6.963090680631301
As 11.410438352676872 10.440486916015182 7.3405119006560104
As 11.486141158695505 4.822399195467451 6.564196578593221
As 12.265854821007114 7.150632629744236 6.204815158906065
As 3.873586292378389 9.464099710322717 7.800014584746338
As 4.285243939675019 1.9284150451266677 7.360142176577486
As 1.7570372033578119 8.21695321018285 8.104904365740019
As 5.504599730744821 7.6607794810830026 8.26186555009604
As 4.633095677643636 4.276344640358713 8.218046896041995
As 11.485154527438292 8.129154843139679 8.3360508099535
As 9.222642393259104 5.1029685272048715 7.564501723125593
As 8.027563640785269 11.769626867090981 10.953155841796708
As 4.0697104520721945 10.703245808581473 9.940139614038566
As 9.67961125587198 3.942727571825462 9.711359094005156
As 2.282498115866552 4.321604297911388 8.904258998306913
As 7.98953413795199 5.030269065936184 11.157835738954134
As 6.40114451074607 9.948491339815135 10.261538040276326
As 4.587697443824283 6.781686939263122 10.401364603849494
As 8.770723971540882 7.327463050256545 10.616785130684294
As 2.1543077337288423 6.603723819015177 9.983465083684974
As 10.388125588878523 5.607422406699915 11.400013121745303
As 4.5651513699831385 8.943215025638683 11.657057843879212
