49
Energy = -219.69634206 eV
As 10.80305911700091 6.22303301629592 13.198900381462582
As 9.138722823564754 4.614582493769717 0.3060010550945609
As 12.33725071878247 5.872943718084275 1.4159993105620285
As 10.957736947177617 3.766408041674534 1.7853574367114227
As 2.9060493838224217 3.9186960340132675 3.6352820970139095
As 10.704998096716983 7.742018028689999 1.5839036341043913
As 9.259693671975533 9.492659496450214 3.575966932548615
As 4.573574738057559 5.796133974362104 4.071133514732813
As 8.804926514899066 6.297867302379006 2.2821664665465686
As 2.406446992491624 8.987454996403843 4.289367946745609
As 3.814149357649275 7.753176906725071 2.645630097536542
As 1.2998111018829077 5.022495115238951 5.123680098390025
As 11.916205024112028 4.650991354826698 4.792498331750266
As 5.947450878076158 9.13132390677353 2.659852640849505
As 3.9686080887840585 2.211678157453407 5.229774528870957
As 9.631179782233977 4.470840522651262 3.7823622445816407
As 7.563341501360967 7.815545470174595 4.029373167954804
As 6.282470676687847 3.175323459434452 5.351490604956732
As 10.505950284842902 9.460027716702765 5.693879472530863
As 3.4656008901315363 5.869258475182886 6.340018154914074
As 3.584187152841225 11.158177308716555 4.880556898429366
As 0.5987519824738323 3.0705452925013867 6.4848422702342585
As 11.384935253630026 3.815079856553272 7.086235271886205
As 3.895204936288136 8.3205249487225 6.09119179208181
As 3.029727417628743 4.243296177745576 8.928157487937945
As 6.058855652124018 10.675806154689168 4.615166994492333
As 9.738448815230507 7.219849215027252 6.4529133412200315
As 7.459146893550415 2.221525897906735 7.369473222405977
As 6.12559067162859 5.280774355067419 6.7081552343197846
As 2.757475138604517 2.206121949642051 7.383755848284117
As 3.2202739631669703 10.44014355452959 7.261616746896989
As 8.81508519651854 10.33872705024908 7.406788486233752
As 11.997662627711208 6.186713958461879 6.729749279599807
As 5.530479029464274 10.78083074585938 8.185096419547254
As 0.5199760638251351 4.513903801112044 8.543207727691383
As 8.870639713395972 4.308905255887903 7.114997108414601
As 6.705217791696678 9.181194875129155 6.607223801749066
As 9.75454438711944 8.357188350410203 8.652934537031973
As 2.407351861764061 2.90375707839283 10.917552885575633
As 5.728375771163831 7.023884880033977 9.462723453673833
As 6.205339118005262 3.903795150015049 8.811559642997754
As 8.530721878025442 4.658427671465798 9.595757773017764
As 0.185269412408498 2.800209181912001 10.268955213261144
As 4.624641169841937 9.16857804110074 9.905832852374052
As 8.15186148862695 7.112328657585163 10.135370470541943
As 5.2701249902016905 6.176818177988515 11.773998379512177
As 5.538665090136105 9.78034092176152 12.149054195267137
As 6.672036386966445 7.777209408972504 13.089245958600364
As 4.215397915748281 7.966098255311389 13.198900381462582
