46
Energy = -204.30952061 eV
As 2.9380818706910823 5.6545356917362035 9.924257932473774
As 0.65812144616201 0.16165989722668123 9.663607074333438
As 0.24198092585256056 6.288811390756957 9.8148257938521
As 4.064162363074704 2.4840289743899637 9.190484468853409
As 11.207433739799036 4.087164319729021 10.174157018301111
As 5.422357523327358 5.6292679909868175 11.009425181358344
As 2.4376341671222166 3.3618175527147547 10.911351089784796
As 2.7270309608338503 7.238513990930553 0.41183732257913097
As 4.163956303091956 0.09420198386768691 10.015171260544028
As 6.308803347172033 0.685308663368769 11.114563908376255
As 10.353723295474099 10.712943814834002 11.232337016019121
As 6.7039920278420535 11.144480097924268 1.8068255041295862
As 1.1140414359255544 9.503541078950043 10.899342076011582
As 0.3778927751120732 6.863300490905423 1.1507455482048152
As 4.685487217059928 9.957212466804513 2.3352095744084274
As 5.002636246733185 3.245709453157242 11.377722596358604
As 9.4642056026545 4.16559201038669 0.8787483220927969
As 0.3357078239081115 4.4789599697965725 1.8789834507051413
As 5.030696152821631 7.861768616212196 2.926140099464076
As 4.186799489092455 5.786297829936657 1.792185772212529
As 2.206155719076587 0.21888883192018566 0.20969768126514243
As 8.672587657016129 1.9878379941293018 1.2365723799493589
As 6.718913363295877 4.496314413576746 3.6275861222613908
As 10.080633759787936 10.325207402714236 3.4181342756427684
As 8.672587657016127 2.9115674654471597 4.088820416094432
As 0.3840484952060974 3.268800697355668 7.25149997633976
As 10.731423528484717 0.7663503069566515 1.8250379936682493
As 6.474459912311939 1.6641525246868705 4.118976844661787
As 4.325068539049446 5.577932174427727 5.161850314599225
As 1.4539412775062717 4.005341158271002 5.148188477815548
As 6.46951141065594 6.788167800757404 4.725245973708032
As 11.141655655377173 0.2802823098033232 5.221982777314019
As 2.78948445948288 0.022962700229735112 6.0879269328257175
As 0.8591284155516783 7.5716279718402 3.673612498239467
As 7.014089085348863 3.4200532848517833 5.830953342617
As 1.1444896677038683 10.346537128024961 3.7228311156313914
As 3.193872970896121 7.781282128398262 4.665653499600038
As 11.091346704227398 5.455083113679382 4.165380693809694
As 6.619138379145662 11.093318684252834 5.677010786296594
As 4.815046837389256 9.752861875810979 4.650793779811312
As 0.8993279302881322 9.676718095583857 6.112611450755923
As 3.9807377864020577 2.5648844435563816 6.511130122212104
As 2.1673501720875454 1.6638330386127773 7.94987080484525
As 4.198747293297058 4.86445422552622 7.597666004646518
As 1.7622356408477333 5.354580708159374 7.237635911297408
As 4.94557440084905 0.38562629725802666 7.465636759656125
