45
Energy = -201.03058747 eV
As 7.753046163403663 4.911340937295225 3.6336723327529565
As 2.5400269919438223 9.68991411727511 3.017170053372711
As 8.04806344232242 2.5560323143865147 4.5048982011633365
As 8.030084529874244 10.004224273470088 2.896828815231857
As 10.1010719936218 5.130551227238958 2.854010912872887
As 5.242878045869358 9.566738429684989 2.4258225052230693
As 6.2099831683195275 11.310704079627053 3.9295362049283287
As 2.83201042925702 7.36787613162325 3.7851416559177897
As 5.984381323196932 2.6857451411457087 5.9256614279712165
As 3.0621367389563114 10.94108112320017 5.047181254661157
As 10.521069773807158 7.533854327137567 3.505014666195263
As 9.50792332912665 3.4196194227062846 6.352104643710641
As 8.309848996636946 5.633686281023645 5.980400366573762
As 8.45049118821844 8.401129142298243 4.65708700893463
As 11.235543544338642 3.6505047746555155 4.568900167418694
As 4.150853119763109 1.6316631864345983 4.891445229028379
As 5.2776227239296345 7.7137100484468135 4.123866009247596
As 2.710826202855328 7.557754281456605 6.2888398409478015
As 5.213313073239693 9.837000538894012 5.734220069697563
As 11.538530104707315 7.115006668044442 5.695806372069821
As 13.050101328988271 5.222280225571055 5.282458534182576
As 1.5255185648551044 9.727510032091725 6.552402557655839
As 5.9380979245656755 5.148070252814505 6.801883261251175
As 4.955278812180225 11.190955095616122 8.038068622590943
As 13.505871183129925 4.544928274273103 7.619368390558699
As 3.13134537523622 4.269508861347757 7.346542857545516
As 2.793063909246173 10.2019161427248 8.67499945584725
As 9.673336750900587 9.459632094456333 6.771695599263712
As 2.695022256532324 1.8477197168835289 6.819607318420111
As 6.39429840997539 1.7489561322842477 8.237020158685842
As 9.971338350125826 7.18078003035579 7.706121307928027
As 1.158607370324267 5.8966186332297585 7.334526603065891
As 6.395728938478551 7.665967693459695 8.347469627328554
As 12.194035892367419 9.379169878287955 6.551126286863477
As 6.357733225102235 9.856384844427023 9.639273642420909
As 4.047294628062212 1.45965505397546 8.914935022805276
As 6.988976183004553 4.105757499423109 8.882156997051457
As 12.030651366592535 8.30793733512764 8.812433652723534
As 13.391360628875912 6.249560111383027 9.140446364827653
As 3.138833301971325 3.812742993526695 9.759631013621817
As 3.759433464654714 7.939836637573797 9.026651159215952
As 6.4264553214501765 6.787585845679512 10.70554657424064
As 1.886936165508277 6.501379794697683 9.59944173852014
As 4.7616763645702616 8.626779651959838 11.18817480008571
As 5.374718172077645 4.4756494949488825 10.69582948754278
