49
Energy = -219.64014147 eV
As 7.7071610063357525 4.75547034729519 0.07661395845454944
As 7.515591627032745 8.775294709544744 0.7846667029339341
As 6.513255545069373 5.960225145878983 1.8475443477001257
As 5.165254412181905 1.2739403994080754 4.770222393520108
As 4.604595513904493 4.386405515781523 2.362510316798767
As 7.045499567009563 0.6750940410778207 3.2271515367509602
As 9.887900727785983 5.263469932673651 0.4515298398826119
As 9.556146313214223 8.70172359832873 2.1348411569714987
As 2.701821076032191 5.909016423356772 2.88001714987923
As 7.989601078236657 6.0161135843599505 3.847067075116887
As 6.758006436830911 10.459442390297527 2.233435391329552
As 10.154256136992599 6.284312688782685 2.6947568812538276
As 8.266496218931175 0.034414736810449036 5.298016725372963
As 5.270257780812799 6.175788431552828 5.849544502760836
As 8.996908448962829 2.031131974296092 3.9649480552278114
As 4.614433450387152 3.8458996227872246 4.828423592046678
As 3.7699401346745653 7.550854176630679 4.450144238085941
As 8.995590375332277 10.968251425028752 5.558492385142904
As 6.747220559522038 11.301364467444813 6.549029272239758
As 2.150471006868718 4.026206637511469 4.407626823647324
As 7.966050060578853 9.26296258931812 3.987532837642078
As 7.584418797114439 13.060513242034858 8.04254760575552
As 6.69429409777261 1.511926063413743 6.688189526678441
As 7.999916793972196 3.9244736284035913 5.274894844163367
As 9.208380156905823 7.194440561114395 6.526596053142773
As 10.17141565099626 9.447210934379484 7.191737360750639
As 5.035983385670686 0.47614992858333055 8.316598983326337
As 2.0768920916646296 7.589425976949358 6.2999116280630085
As 3.893219734822286 2.588533355450147 7.501892929517925
As 0.932595421647769 5.346221385370941 6.142631377630326
As 6.633971395802985 9.335709033587126 8.040573754462674
As 9.254493150217002 11.954906158882716 9.561227879929358
As 10.242980206389026 3.962412781493971 6.4448174455650875
As 5.543658266386016 3.927785013864754 8.86339057522723
As 3.8734096483230336 6.671198502658653 7.897508008826459
As 8.79036066736275 9.550270020204339 9.232500109389237
As 4.976050252284829 10.310978835049356 9.640974395131696
As 11.401425767270236 6.117458057987938 6.05966014288954
As 5.863827345290602 1.8630623204014198 10.245811503524962
As 2.1783516736616564 2.950304470446528 9.294146710943291
As 10.279189728022697 5.7109145464919076 8.221636053621138
As 1.8551492401651009 5.281205172156157 8.462243007294463
As 5.855317945733063 12.90992482161306 9.820470870674471
As 6.501474200091987 7.732887016975458 12.217785356027566
As 4.0645536312133705 3.490816365604906 10.854134977055708
As 6.401912360352803 10.250465696692377 11.701768369038373
As 4.393433194184088 7.976056341096893 11.061880026347653
As 7.656465382886268 12.585184458071147 11.42094734589077
As 4.713608322493093 9.075388458250512 13.22261396176777
