49
Energy = -219.52663317 eV
As 6.78427951617522 3.3734404807779725 2.8103295901765044
As 9.180512624033293 9.464852310998458 3.7344430200155823
As 4.268576459283516 6.304492332993122 2.9608923778470033
As 4.332932707038442 3.818153433597604 2.83633216790891
As 7.556950430925339 5.741007842686667 2.625529117223106
As 6.720761649725355 8.863095305364594 3.2749346728650512
As 3.582167088460091 2.751133316227205 4.977717666960448
As 4.88821314064076 10.357261854063603 4.280250979934074
As 2.034018007814826 6.68858307408133 4.057447627140792
As 7.376172056498437 3.2431094886090235 5.241865774496192
As 9.792248328152978 10.378479402912973 5.954720872416325
As 10.67792566366954 7.445955167230772 3.4795645633926235
As 9.277526278802876 5.61281708515777 4.463648602411025
As 5.587401294626542 1.7366961176808757 6.1340777855053075
As 1.2585852624778195 4.66750212587646 5.165376093937178
As 6.195947257356256 6.7202613534617255 4.506606440454551
As 9.353182172568244 1.911038825563403 4.632185918991742
As 2.194947332079208 8.468247874294445 5.770474385626769
As 6.233428610415651 12.18071707353221 5.339735602277647
As 4.649788342829879 9.032447664862282 6.388959735662118
As 4.811965504755313 4.0405996741354455 6.722857507530565
As 12.44652629216742 9.895891018958944 5.907516946035095
As 10.675682149151667 3.6477658168290947 3.8963170980738107
As 12.295579311705474 7.470530004586035 5.431244042326005
As 9.769810810234612 8.831689077774554 7.922983613648098
As 4.968956191536734 12.761323832647065 7.461398827515512
As 7.246387438156151 10.441541527898817 6.778083748356638
As 10.713950276020928 6.672318890000618 7.1623183509728845
As 3.499235388777844 10.785630671844391 7.758769887970375
As 4.121300979741308 6.565088371067035 8.406374953232675
As 7.671753248052714 4.42075407330536 8.460646956942126
As 11.836404185230478 10.119718161720245 8.323173240470997
As 1.7586085383293353 7.357124751286802 7.936300862093982
As 3.401878877006189 4.11377165614296 8.805503247566103
As 0.8374768206084259 5.149220634934431 7.3938651778246305
As 7.123899614644227 12.123874526175346 8.58325934360146
As 6.866543227242837 8.508736227900972 9.526411461517785
As 7.0660674111824155 2.117721165569566 9.279050805165186
As 9.050353480224775 3.3462322762001904 10.234213946690597
As 12.42194367322068 6.263058614930604 8.944845861576818
As 12.969198663700336 8.51252194009173 9.806408559853294
As 4.690121849319729 7.769231838128976 10.549262823450183
As 5.101873331730326 3.0891522345966216 10.477754041175185
As 8.86222506314245 6.892765302593687 10.010470289684031
As 3.9932054467866216 10.27259197607654 10.138467412255174
As 6.405015878377897 10.741853761624585 10.556905225184794
As 8.273876113338597 5.167618141619584 11.805139600905044
As 11.220276093657057 7.132747671742204 10.96453916723948
As 6.220285615349484 5.295599726611877 10.386789702864975
