48
Energy = -214.5562061 eV
As 4.906689893539989 8.056320051154554 1.2059834273093775
As 7.700353898716243 5.9739933402558165 12.21080367710877
As 7.08308309193278 9.097974045457384 1.7650793541608014
As 5.405577932126567 6.895553040418517 11.69575142865791
As 10.287569572966799 0.8823523381790175 3.85854708462449
As 3.5481116947698506 4.661340820500179 4.048605911835615
As 8.009049632418828 6.794832607540672 1.9081710036882555
As 4.684318593378742 2.462916805191852 3.804193258740193
As 2.6300110622570867 9.124089966816687 3.7899686229857394
As 6.395902185945366 8.946448365251342 4.174934427971758
As 5.791885816255834 5.573262517396778 1.2350055244733933
As 7.7974996113535715 0.9197541775363446 3.215341264660207
As 7.731708825333673 11.983733905950752 5.062198687790357
As 10.406630489769515 2.764611963059319 5.3480011455825265
As 1.2577072499231774 3.715338626059729 3.99009791313938
As 10.271136446365201 9.98175256221856 5.198208446374037
As 4.609889213306751 10.682415989949016 3.8526331839535746
As 10.346581876252069 0.6026503212589838 6.371807201412332
As 7.903470816912169 10.776236614521808 4.92980566203877
As 1.6779451142264736 1.8269550306218891 5.636642013064311
As 7.09075882855773 3.1369850499844882 4.017375262958643
As 2.647749016176767 8.711375546922735 6.25964984873367
As 7.8448217990302505 0.6884914482322806 7.057735159847656
As 3.1510782733152953 5.25260280692858 6.422240054872495
As 0.816041012125064 5.749224816984796 5.461007893257385
As 10.390342734112506 7.513353914468625 5.478694773158628
As 9.94578181555503 10.89260629694045 7.54333986547053
As 8.164215303650964 6.716575952492764 6.237418310107431
As 4.179176677562906 1.349818635484526 5.937201697586131
As 3.799376376707786 10.946060638300924 6.228540628364266
As 12.563284294004958 4.689731761519056 7.576718650901781
As 7.427455275228156 10.684103666099869 7.373480890270749
As 1.4619739506857201 10.677048617947086 5.3866136201051305
As 5.197097153452498 3.3327657774175456 7.201386502553068
As 7.590869332353787 3.060536025983656 6.434487334664888
As 2.013540857652569 3.2492601127955343 7.582372091819598
As 9.884146971881407 8.859403911102893 8.998448352776789
As 9.664666367816169 5.4264493346872715 7.736949535329622
As 11.33860617628202 7.309388133599961 7.77000426632048
As 4.95140514699264 6.847365428994489 8.606414609169086
As 2.4210021365643644 7.61473481391927 9.789049299935193
As 1.0730581374651043 5.598340286345925 9.693946618808933
As 7.624071363762492 8.259788478960559 8.105043175918901
As 6.830828013968006 5.242866615481571 9.481145085442336
As 5.5628933770866995 3.1490927850491754 9.695565330863706
As 3.5862965607447195 4.913337299311046 9.693516109790963
As 3.5678824135901306 6.393452329288041 11.69575142865791
As 5.872705302488814 7.1189541119816395 10.9253653898802
