49
Energy = -221.02955415 eV
As 4.8610954356417 7.130764146020424 1.8676210877153485
As 2.875419876745607 8.324375978421875 2.9205274668586387
As 5.6609518326256145 3.597018543126872 2.3436797008372463
As 10.918041443469335 7.796139279842093 2.178362846777817
As 6.97598389576433 8.665502855920058 1.5050479422126448
As 11.40051406987615 5.530257618814116 3.0669827891097703
As 6.866265151213767 1.9175473446250713 3.725436923807483
As 3.2356305149368736 3.274431492881287 2.9439697974874037
As 7.0802774916383955 11.029716899873172 2.3533996095641596
As 1.844978692808664 6.615277503633263 4.460306605581762
As 9.686553016446764 5.106442240025611 4.821160465694048
As 11.592818447231943 9.224688260835492 4.111312705849643
As 5.776635490234397 5.741398606002147 3.766002942501924
As 5.251104738893689 0.11199580183281743 3.6321566072450633
As 8.255534781111086 11.244278763934608 4.519431530741954
As 8.537820756517096 7.465854822576261 3.009706386250658
As 3.1842134826946786 1.1655310318485779 4.343526851078879
As 2.3738603379221024 7.838641479394182 6.594398455351957
As 13.18022529213458 5.7799070562419415 4.773322833805701
As 4.712428865450728 11.390986323255815 3.0027521811775806
As 3.638988456136536 4.93317194257443 4.781887177232607
As 9.012375530300258 8.91830312145636 4.9597442117312305
As 4.663445571251048 9.298486572239092 4.309313099543911
As 11.720854753338308 3.9928337812466106 5.871587198196987
As 8.848701121852493 3.7363722210172803 7.421066042667198
As 3.886068114099783 2.419913651024769 6.378305155683672
As 12.435046855417596 7.848635889618288 5.893735205469468
As 0.20802894418657972 7.841376057361116 7.814983795866928
As 6.3354118037212555 2.8578774749546163 5.953106686381902
As 4.4541219722740495 11.499979369017879 5.46974150415691
As 6.895420668100768 5.342739859510339 7.55635985923547
As 6.88562484089441 1.0086839182860448 7.581243873468475
As 6.70908959710357 10.917142789428352 6.4509823951406196
As 4.494265578836921 0.8658983162308942 8.267793584651802
As 3.522666553991338 6.001057265273856 7.783851429282251
As 10.96615086291672 4.961074482089315 8.061203464980506
As 1.2682656436882025 8.402070258703091 10.003171362347755
As 6.764000274539804 8.366289585788559 6.302957648224287
As 10.147360736269919 6.903531343026572 6.67435270157398
As 13.18022529213458 5.531578857071667 8.623723839385741
As 7.986257423970329 2.4122229901936763 9.379863831341936
As 3.497664310465159 7.165658887948256 9.962947798006727
As 4.596789193865239 2.591552066646984 10.078858458256423
As 6.394326850116586 4.287846027383535 9.825013291307464
As 1.7098867606923824 4.316420368386137 7.887362972465801
As 8.069287377478556 7.489622962684595 8.188500229561525
As 0.18791666069125887 6.310498626167074 10.984575943920637
As 2.2269055180055886 3.364908670536688 10.111992203802524
As 2.4815178669350066 5.42929362705279 11.448466338488451
