41
Energy = -181.90969044 eV
As 2.2156649950701937 1.626692332908727 8.905263166327517
As 2.1876922853881693 5.03047850587192 10.224870293841473
As 5.351459103076567 3.388182161024309 10.188969546632974
As 10.205333643619321 4.405255677795999 0.8560832525171416
As 5.278889995452634 9.579628032823727 0.016352984101940183
As 0.18102672330672376 1.2160982146654484 9.907677132028043
As 3.2017281794486254 2.8235383172836825 0.466491904674407
As 6.089838554467227 1.2945896423263272 1.0739549324492332
As 5.301245271956271 4.52521433006424 2.0870445794752386
As 1.8255944873085523 5.48245152313367 3.822347271970134
As 8.443250349029428 1.8262198317753913 1.8511280162061299
As 5.014655160147489 1.327220256220756 3.1996002018870753
As 4.007974174456665 6.21024318015073 1.0867390273368813
As 8.449096625964343 1.760624500091956 2.461162770363388
As 3.5739116611244777 9.754339266291957 1.783908151467548
As 5.351459103076566 8.135322299732211 1.9593563776940208
As 10.132234588491814 6.060292932111908 2.5535489317566458
As 8.607710924777688 0.19629777912699506 4.388929737117353
As 4.706330591771409 5.743389719334646 4.689975351141701
As 7.168271020172873 5.576251518466085 2.3913825190925966
As 0.4777134792227014 2.180130291415477 1.8461264079110693
As 3.3868123101579783 7.327353260117896 3.2572657950214516
As 6.1338536411057785 9.68332360280341 3.843096418023015
As 6.775289712256188 6.5766423804961915 4.443925623096015
As 8.449096625964343 0.36994812184019593 3.838452793529573
As 7.381976814072843 2.577476831899794 3.9041280185274747
As 8.556175798480664 2.6833101972894244 4.7765042176772585
As 2.379872420853058 9.416995734772014 4.7128606858576045
As 10.30141002663095 6.5695243928650315 5.029833070497064
As 5.707906565943259 4.776482384598238 7.354257379087149
As 0.44473543945293814 0.3499433598127111 5.630069712954254
As 0.7431743317116567 2.731164219542282 4.925310102804252
As 10.12887430878331 5.472045296386862 7.053544780333907
As 4.930599420151445 2.974682328215237 5.90173005854916
As 4.116160170131026 6.2624570568051094 6.85619344916849
As 6.470474659019809 1.65199559305649 7.024283372612136
As 5.505461820376432 9.68332360280341 6.293667024501635
As 0.7000460799471172 3.363971016838887 7.1213908130436545
As 3.4688501608046503 0.2061947025321388 6.251815401207689
As 2.1254554723432397 5.2651746852866435 7.829653705951256
As 4.825838865948018 2.7380109609738144 8.335276052587272
