48
Energy = -214.48655451 eV
As 5.596922053714407 5.224460579284566 12.539694531289163
As 7.142484141702534 5.622740408480945 1.6018187918008011
As 1.6172375181806709 7.941873185494325 1.1398576529961044
As 6.662999879024866 10.065311554756438 2.101971433924944
As 7.869260920493776 8.09581847768714 1.2384893524934395
As 4.126872322099034 7.02659073334367 1.1766792052139434
As 4.814888545539271 4.863102454230925 2.120090838471839
As 2.868705074903601 10.042035666878306 1.6495141868869365
As 1.19357180247417 3.2431093709278374 5.706409220590506
As 10.725272558762956 4.165210630551308 3.0316076503121128
As 4.669372780251018 8.784997287485334 2.9541452436080156
As 7.712999451243947 4.032338087165108 5.255823765831357
As 10.011658678793141 8.1394810808139 2.5031150353924634
As 9.646306208492685 2.5611976360486377 4.628377243520897
As 12.182381162007607 5.600056401101709 4.39901142582429
As 2.782400658299815 1.7874015558825294 6.985073180244768
As 0.979109379910965 9.264996703277166 3.0805601017317805
As 6.178108847135253 2.3644766961884276 6.351970244027252
As 9.785688588630991 6.2232168339024065 4.08178984932997
As 0.8373977121790869 2.851482719772167 8.131096113256927
As 7.590981417420335 10.787962496990785 4.270765031895248
As 9.77672896051962 9.643034481818544 4.4927544188538855
As 3.0565304451058273 4.904965461513801 5.422378949317826
As 2.6379078488291183 8.753368771831285 4.914961792362605
As 9.94386788014901 6.598358732813419 7.607409797262749
As 8.52911077402259 8.191031830819353 6.16593432817393
As 1.8817800616655926 6.90818492529295 6.384075132015141
As 4.16701605359645 3.848181948488507 7.410248125958477
As 2.6974739912323944 10.161799448467114 6.86595959767807
As 11.073343512563738 2.6610520385233234 6.630038749763011
As 5.650094385416511 7.628351929487063 6.988116670326806
As 6.017060677246298 10.07679935262517 6.223501314132752
As 2.1577277427825834 4.693964212975275 9.14939992061027
As 8.003957085984894 5.052252599565601 7.4810907887249485
As 12.122340941124847 4.748039320955602 6.699618054078202
As 3.332339038049116 8.101230874893277 8.044108693881938
As 8.076066110605256 10.094402391763643 7.686919978707082
As 6.971547630582877 1.9506336410455003 8.599607120094747
As 9.135481486331404 3.252847713263353 8.73178174563706
As 5.039462263029957 6.251096808179998 10.252001264323141
As 3.1487339111940864 3.364493594040037 10.948756217854989
As 6.739260994122916 8.442337742193091 9.105840570467375
As 3.5378765454826953 5.571827274621676 12.126923875698596
As 5.483318734949212 3.7017334224068352 9.923817063688213
As 8.865012922549646 7.22628514848466 9.834425191069434
As 9.0143059546416 4.8874825147218255 10.782765419026614
As 5.971175019321428 5.907797854031151 12.539694531289163
As 7.068573321849691 3.7832993991239654 11.88381866430895
