40
Energy = -175.74826183 eV
As 5.165457539378313 3.2136991697094164 2.8331487483251117
As 9.995907464672493 10.619243462710541 3.167662499551058
As 9.398620096758911 8.205719581224479 3.650821975979141
As 7.1105390419228645 9.091652082264034 4.060726404922038
As 5.349546005093592 7.395073001419311 2.80889420542322
As 4.288255035935011 11.273777037925727 4.22183273184276
As 4.9310646374994835 5.316174565153533 4.213108481804029
As 3.5591945202680217 8.922220836953983 3.501093644733883
As 8.154248752100957 11.335854670980591 4.744153078242424
As 7.5138469725935755 3.8780512721655613 2.7191040732008585
As 5.418607252987039 1.891992065863544 5.035487531053146
As 7.375229740224114 5.541460544331047 4.432891126608308
As 11.03100381999678 9.448661931603864 5.105593113065006
As 7.852357051556959 1.4406497264027016 5.113945401553217
As 6.18438050623031 13.167029738944024 4.738617318808238
As 5.575490771676243 11.069004944160273 6.308205364446252
As 3.8269507739586905 4.667761815979651 6.398134740269715
As 6.273169927887237 8.068460018160243 6.191828438495336
As 3.778887042738821 8.443774849770062 5.974930442992245
As 6.2679656177047045 12.716374939036681 4.035546012332597
As 8.560662430867666 3.9740073772402447 7.387266750742322
As 10.07628250194938 10.81900690616799 6.964780042564803
As 3.4440565806373833 10.341973700285262 7.555820943252019
As 5.545760179050333 12.716374939036681 7.14703398880821
As 4.294427579059417 1.2349889208456537 7.5775788850075925
As 7.935773778047792 1.7468652131546063 7.5808041830375466
As 10.628281575442477 9.596091772238816 9.020921922086295
As 2.466138731369572 6.656677473577737 6.948685528117975
As 8.134869615915655 9.22818424503112 7.704261006813133
As 9.91444250852134 7.454278351281842 8.09054826406704
As 5.646283296268548 5.595033670385163 7.918676582222666
As 3.1479184374458846 12.916101811507428 7.052238588441388
As 4.336707401103385 9.166026717775008 9.569024965299194
As 3.8242850593606574 6.705951287335559 9.261978515458312
As 8.62677911244131 4.109141448709473 9.86988710993028
As 6.109995529569994 4.11172058701955 10.005277803338819
As 9.374824309325621 6.481774254314824 10.351357836146926
As 6.825590150120146 9.595003313086629 9.909596358023004
As 7.058736975937242 7.1650805479768565 9.940567072700082
As 5.555725027198573 6.000456360592512 11.44623167111169
