40
Energy = -176.97015877 eV
As 7.340427087376092 8.559411749158826 1.2712690303545273
As 7.586579889720253 6.714345060713073 2.909297577852759
As 6.34843930079779 4.497073279417486 2.9330387523954164
As 9.875635227782386 5.821207257549671 2.693803457404913
As 11.287558347419415 7.848383040481408 2.406536135008451
As 9.735892936072037 9.38881147282094 1.088265450127083
As 4.664358655790825 5.743576638995612 4.350895838874459
As 10.120252275255398 4.367643558084529 4.727106260508553
As 6.997348797347146 10.397624818354092 2.9306672247530505
As 7.624114834528087 4.50277402841407 5.084841610932078
As 6.492196302929276 7.354026346630167 5.107566171652286
As 5.327119725776787 9.469345687010776 4.5724252251308375
As 11.485062543060506 9.787304421721004 3.9417658483003435
As 9.629744060119206 8.029448737291327 6.008881451743503
As 9.445008943022584 10.98555327670071 3.039960902426314
As 4.903486640126324 4.735235167905058 6.653110623770919
As 6.361532011053049 2.686313554241078 6.2611461960378625
As 5.3715702403422885 8.763417556965617 7.227980965568706
As 8.272788456107293 8.429651244698654 8.124649595948007
As 2.5433000864783333 4.071135651523921 6.821642497894047
As 10.414458458785536 5.778225477568358 6.833102385579734
As 5.117680320486028 6.519578761089034 9.181121539066476
As 2.1371302657628317 2.9831861829322857 9.164644657685812
As 11.661909105058987 9.304420151192721 6.262235470064543
As 5.516577341210402 10.527565938215048 9.039670044079456
As 8.042810984584527 10.825527629907018 8.869185787190084
As 2.8307649887047694 8.632503950098272 7.181971023755906
As 1.7059643597438197 6.3781047067265275 7.233198484821321
As 8.166479344187396 5.478821639988521 8.021179689113865
As 9.793624610118625 8.065587345639992 10.012362755507574
As 7.653611311402652 3.0560145933766663 8.409985552861261
As 8.43276591520428 9.85001874820646 11.18062698077625
As 5.791928073458847 4.09703557194259 9.847552695192219
As 5.414754087523008 7.025623850269273 11.59468742790823
As 5.981924393421374 9.448545324764373 11.309567960710083
As 2.710828135116299 7.2327867238171075 9.3218624502316
As 9.246880770600256 5.586190894613493 10.269550642573442
As 2.352062229467292 4.572195915031221 10.970787880191262
As 7.187973387583072 5.198740359951998 11.658238730050462
As 3.894834520810618 2.7544226503280065 10.950995990294254
