40
Energy = -177.41797283 eV
As 3.6163469146665714 6.123803131649442 3.212079377798114
As 9.222689495800788 6.151480161455273 3.193062904700583
As 5.806195394780459 7.117899144759912 2.5356250096936077
As 10.649275834538685 4.651029105720283 4.570588353527396
As 10.686083505520228 8.234697688019125 3.6238427812518994
As 5.238619911195733 9.43909741310966 3.3296685298266917
As 3.870618998638231 6.729287711601426 5.597160663697169
As 4.268482449767596 3.784120877793431 3.7785333058376303
As 12.347706935379776 7.489694741994722 5.430761820208171
As 6.687942019227876 3.91548176147539 4.5325611556731245
As 7.22206981215294 10.954835442518664 3.8250078165219223
As 9.642214291376316 10.449349430846386 4.166545666820648
As 7.127835482670893 6.394665946231054 4.518321840393385
As 3.76814380283487 9.23194743013953 5.357236230875292
As 10.47422266465696 3.8847195512662305 6.981912574297414
As 8.178795841879328 10.908369238403235 6.133709069855981
As 7.472132943609402 8.595908938802385 6.742113284841829
As 10.383077045854927 6.307771180876013 6.414819433578338
As 1.5510215346361096 5.900772815314717 6.056611587293611
As 2.364824277018246 3.577675861757257 5.445784036700714
As 1.6570653098917065 5.1674034898564 8.478613328051246
As 6.490498241166354 4.7378435115249955 6.928821172116124
As 5.120690101460779 8.926024129584436 7.423928104948583
As 2.8500647750704684 3.065605671900051 7.873417642934343
As 8.392383208702524 3.906319500034285 8.378340031971078
As 12.861506598766953 9.214693012668825 7.238257124513525
As 5.53408622265746 5.690701465404998 9.373756302647706
As 5.199136639994859 3.322108290163045 8.589317901142214
As 7.6189853105641285 8.043906064287846 9.27872452902232
As 10.568132458427968 9.444199447750337 8.186387505074052
As 5.429561165266679 10.926978629668795 8.813923760370455
As 3.4363446604557817 6.963532408108131 8.88819485821582
As 9.112912535488192 6.05225057434724 9.521895528275147
As 11.884347180048174 7.4739507586059855 8.809030310937358
As 5.712236000373833 9.633205964488752 10.744407076386496
As 5.692747887064569 6.006216488675107 11.848846280574795
As 4.060773997845435 7.844866301804622 11.216738030752301
As 8.268966578391304 6.431576951545651 11.860893474138916
As 11.350802443803055 9.20000366644463 10.55111059403401
As 8.919458886782957 8.845005457831187 11.288450358929762
