45
Energy = -199.43689606 eV
As 7.179852181935108 6.69958790648112 11.430872965826657
As 8.234378032242732 9.722022195603564 10.266657331962412
As 10.90205301169561 3.916273259502913 5.393536776645025
As 8.90712615602575 3.1377341764199147 4.131677917921558
As 4.883321979465834 8.638353794859167 9.611653403046773
As 7.053602136410582 1.9561436777655024 5.414511983776399
As 2.1772551687994155 8.35832909090358 4.547792873742835
As 3.442966931976091 5.38012685173895 10.903894046958213
As 11.756811870460359 7.622810610456314 6.600701589394207
As 8.253878536174097 4.38513262081379 11.250898683391414
As 1.4053041565342277 6.183697870805807 6.991388510959333
As 9.038902273718763 8.033957890466016 1.6661377154097474
As 5.748352438043244 6.130061477765482 0.5730468488172227
As 8.619807054186563 11.840755163070767 7.0789568836989805
As 5.2193633765101515 11.02361487847491 5.480837529907449
As 3.1608904201083146 2.890844205219492 5.826865918807023
As 9.974337755853087 10.311549107070494 8.513226205136048
As 9.953405763614796 3.508757104857792 7.673697130104998
As 4.311907905862291 8.636021908573582 5.656852761692339
As 5.158962582144528 1.760837290982767 9.194648308071619
As 8.087696956277957 5.832823475316202 0.9064114332355746
As 5.209827951179628 3.4220236711966012 4.491667434930971
As 11.622786606190449 6.253189840296377 4.564430469373145
As 9.257640870588688 5.404059549969756 9.230165000483641
As 6.933061977438237 9.362349934376287 1.841954626153181
As 7.197718890955713 10.829990939320957 3.9282809579430604
As 3.766729017257368 3.558138573345903 8.114036843392762
As 9.38384718950692 7.258882083431816 4.096010637098688
As 4.744546169435504 7.4032268288091965 11.821672619069748
As 7.308626450371221 2.247888508282067 7.935669231699878
As 6.088321474300314 10.91129042479093 9.67816451756124
As 5.852800166522565 3.55717847924461 10.874507356603297
As 9.329251721367921 10.404546375554585 5.128453687745939
As 2.1705316085026958 8.542088365842016 7.015667316336641
As 1.7283370071682074 4.700164168314238 8.99123016979739
As 6.724217174712314 10.274135384737209 7.328433647386212
As 5.102603200302263 7.719447399799551 2.249723365624824
As 2.649931522220819 5.439255432739456 4.966162790671222
As 7.215779931527936 7.734378799782954 9.116195781456984
As 7.9361442940848805 5.378175614377427 3.3901923565658776
As 5.033815138119391 5.540338251617791 5.770196999157027
As 5.250515291531415 5.285768605122197 9.21385575016099
As 9.458064181166463 8.464303143276744 6.790153646771895
As 6.279839073181834 7.163510376286615 4.39844238942352
As 7.741908769772785 4.6332572987829 7.407487951530426
