43
Energy = -191.39605605 eV
As 3.294577533661588 5.084637535136519 10.960287080803862
As 2.035324054921282 6.580396340978105 9.41474695876257
As 2.1539229111619216 8.90269713687264 10.209600110988363
As 5.136574755443368 1.6870531239217808 9.221951967881173
As 6.5390292719561565 3.1261525097741565 10.749443576371267
As 4.878437977259093 6.542522211334312 12.089722311750581
As 3.5078201264209317 3.2621512024538712 8.215475080619042
As 8.639919865706522 3.5484741460586005 9.439245651279675
As 2.9852784380940824 2.0466125339713295 6.175086047442194
As 4.590030426614531 8.577250493936125 10.67446043496456
As 5.691848427374468 5.379198953952907 10.049171345818975
As 3.6907411466143025 8.1292278790144 8.377664107495676
As 8.525702595415428 5.792842919300972 10.538292173535162
As 5.414362335557719 4.363883388689889 6.787170907000682
As 6.6701089633552035 1.327573598748059 7.2450166183462095
As 3.1002996461762447 8.945860802371433 5.039070526518416
As 5.238085960481794 2.256610488873626 5.345561134888303
As 3.7881078425473302 6.614737477915365 4.434067520008141
As 7.729033817525951 3.5506572631967077 7.138542238275521
As 5.537575217366838 10.647532602469013 7.140663728311986
As 7.231188262912391 9.40289064718391 8.771708006611588
As 10.432246390954807 10.325602851841646 5.290933295352978
As 8.233551212720132 11.385271500672314 4.839375695487532
As 7.435164720396383 12.345172123267027 6.980229363825536
As 10.132125477139875 6.809146455945574 2.0823967203162606
As 11.386561558578888 6.842707436064023 4.248051888131659
As 10.891234733734906 10.54017027762772 7.746452919393486
As 8.10109526837803 7.868758806211014 3.0497124468307697
As 11.150708074683095 4.582411107677073 5.145286697168876
As 6.58219971414027 6.795070644684103 1.3799219244632315
As 8.795228823406983 11.335807805249633 8.837442224180052
As 9.651960195103245 7.984610326714261 5.710868052313742
As 6.477169882422543 9.531169452949415 5.126449173995084
As 10.938290582962484 8.011132745800483 7.872384470970047
As 7.76621198815351 5.9331087651919265 4.600311442258324
As 9.237810340437196 4.490994917981128 1.7461678119007287
As 4.680472816323941 9.899954558997123 3.4176145483081304
As 6.86234750960682 4.632774478645374 2.607941095061577
As 4.395886907707524 7.683441425006419 2.280347857453108
As 10.115092233471618 3.203577882769166 3.656524673112909
As 5.822735672949824 6.866658015985384 5.853708557961074
As 6.253989028577593 10.301409448527775 10.807004348160714
As 9.26519292627974 7.847331350734919 9.689172900377484
