41
Energy = -183.08850055 eV
As 7.312092858002189 4.887176899201229 1.936981422443652
As 7.301865084406495 7.405273228384769 2.0148923788198494
As 7.540215826852752 4.342221200710244 4.3464368846330945
As 6.905041313132543 10.307304563425326 3.5324363661068947
As 9.778134722475615 3.1911785129267067 4.513587383123275
As 5.159002356449463 11.552895989372654 4.809701419336124
As 4.853007006287714 4.58191672691645 1.851692678812523
As 9.62850143112891 7.242436027973264 2.993864433405466
As 6.093199679823628 2.3261687111160705 4.408386811578419
As 4.837649636274875 2.12788481266354 2.262712022114033
As 3.9340432838212323 8.25813336918085 3.150021289482492
As 3.1051500510981214 10.174146367269543 4.432015244036769
As 6.162748677764361 8.00413931399844 4.14735097531658
As 8.690080808460541 10.787765502876537 5.195694450820616
As 10.355434193319404 8.954756516892473 4.648829031395959
As 4.01838241254832 3.639130475535749 4.019263139067102
As 4.582780610479725 9.742805051030045 6.427910167263689
As 9.121967509192569 6.90251777510117 5.392545113981856
As 10.907316268117686 5.114801047053293 5.66701208576753
As 9.307344155226868 3.749264650379003 6.907252581137025
As 6.527144539088856 12.178994470552311 7.741888642801965
As 4.167516408827483 11.459796274873575 8.211885426967681
As 4.971286111920135 6.672656846020376 8.138180634160078
As 9.893406643052666 2.6461815379725944 9.248752673329392
As 11.45494725388177 3.77352636550297 10.669698748968662
As 7.5403125897666765 9.909645918389991 7.242999143266068
As 4.360114479948226 4.8970158865453595 9.756136343243137
As 7.77578728248796 3.9419570279469203 9.634612816096222
As 6.920537760447284 7.442205730558178 9.467108015322609
As 8.8217767235212 6.070851442604659 8.801105534155909
As 7.6866704870290326 12.475966927971319 9.940215443715994
As 9.113928625351809 10.553017287269821 9.096540488422779
As 4.634774459453496 10.176726560725672 10.288887649956791
As 3.4918164636085716 8.104353472902764 9.60837990115801
As 7.289828171312609 10.076032532097566 10.691358033976346
As 10.214200201449342 7.0960404065192675 10.653729270662508
As 10.221471885479165 5.142735981538614 12.244659776976409
As 3.7123157059820726 6.440407752264296 11.413300744462134
As 7.843492462572248 4.392430457754738 12.031610585388052
As 6.677016292851596 6.643554498871917 11.826640803111907
As 8.654119959870686 8.180408271875798 12.200145837979957
