43
Energy = -190.29088002 eV
As 5.805489281039608 4.430582676676822 1.516472891197487
As 10.863860165149132 5.779285252542938 2.5669646213761754
As 7.489235719539672 6.183500332598061 1.036396099319358
As 6.014105917300036 8.625175363490383 3.017909397625737
As 7.756133514251815 2.985745097459151 2.1139689619772497
As 5.651586596128486 5.203788680705486 4.252428813056046
As 9.438886894477958 4.541291316154506 1.0882556263325696
As 4.076415572226344 7.28352875962076 3.8125786086773563
As 6.32315149538174 10.84523259271173 4.199720818510601
As 7.519821176377852 6.660118761324186 3.495155338340552
As 9.785458342723727 6.235840935494648 4.644627587458782
As 7.2375470415447944 3.1061290606554675 4.488301455735957
As 8.612037370638618 11.666340517741554 4.125185968051264
As 3.051867506424189 7.759395316709152 6.030152827584482
As 7.78058647310004 10.52005945911013 6.131141679360823
As 9.17314503346024 4.0018817416728 5.662944850100666
As 13.23749986487859 9.907145086885764 10.102013820904933
As 4.426643598066843 9.776294296783558 6.580485814945935
As 11.585054243935415 10.358919328179786 8.279999598092076
As 6.4110477557593475 6.460479313232216 6.521833043851194
As 4.220728374504575 6.010331788007844 7.6017414598403645
As 6.276727033745114 2.8339632738604075 7.706962345157085
As 7.832296331768619 4.811466581101811 7.669755986416851
As 12.4340549272121 8.057628470296654 8.704561842196105
As 7.950024254472145 1.5086480274216552 8.950544316140995
As 4.416166337960553 3.551823645093723 9.192440395183215
As 11.844574179592813 8.132450121296063 11.140224098740312
As 6.058272213888179 8.786335714545396 8.340990237646828
As 2.9747816433071677 11.190010680515872 7.916661569589067
As 6.982594918121021 12.55484470234669 7.466198505224274
As 4.015704367146803 7.8460187849712595 9.359575025259382
As 9.305385005604755 9.733810994279759 9.043002200821393
As 7.363511135819765 6.435090003049146 10.466535558424482
As 8.675107018478862 2.490049860612723 10.876960991076894
As 9.854081755378512 9.585679545693283 11.43971381773767
As 4.735140083853397 12.49303408606083 8.742984600407912
As 6.074927956723353 10.604350627896277 10.07025905370644
As 4.961614275876353 3.9571247483419802 11.417702678827519
As 8.156601107357385 11.899619096390563 9.59699732989482
As 5.142603048999284 6.989421177161536 11.444060985877114
As 7.356630549803742 4.314425156764729 11.87952103697822
As 8.242241412653305 7.897126908816035 12.32182859858427
As 6.147419974621873 9.246773585020298 12.245001013062991
