40
Energy = -177.49788597 eV
As 6.002574331192143 10.090450203053848 0.8833910603504529
As 8.481474604442619 2.317294643262444 2.880104984939768
As 7.695016625430679 8.246012352046971 0.9105239996885931
As 7.199085636604844 1.801193786406924 0.8096604458634286
As 4.739070464193977 8.299544322471093 11.81849186518482
As 5.496809982144728 0.766534201818243 1.9824033671672345
As 6.664474680793819 6.795867559592364 2.6426410820864152
As 6.6671516698843 1.170365207126865 4.153470739135683
As 5.039545195204498 10.42665342399127 3.1378492294235865
As 2.897550652098399 7.896650371219486 1.1513313345428309
As 6.474322031267396 8.566450329727594 4.41740998758062
As 9.720726467763818 8.552771013753334 2.4672092922564683
As 3.009565522340266 9.176319209798779 3.1630278467097366
As 3.1279498950226152 3.507353169857539 3.894102596501687
As 9.054517380351296 6.1922831027165595 2.941877114458888
As 6.402453382284562 3.5639701014450402 3.5097735020125245
As 1.9496476141350059 5.611488797676447 4.341439055962862
As 8.668082877869287 9.733319685173917 4.363006469134758
As 3.665075393196881 7.1980358567571665 5.256514827738277
As 9.162832060964718 5.973069645711661 5.39883786232329
As 0.8604073372908115 5.33614120567093 6.544312442025078
As 1.745395602844563 7.697069017597486 6.833124685529798
As 6.98196775462297 4.722479286757844 5.728614955469507
As 7.832182351859173 2.656134587243041 6.79567427948527
As 8.244947179288568 8.122150912640404 6.1988978938176205
As 5.101760150139345 6.450298518134157 7.352928313117302
As 3.150522369777383 2.2696537207282854 5.8259623138269365
As 2.134019632713074 3.521799324728837 7.676084982379557
As 9.032471771547767 3.469576299284013 8.849187557659697
As 5.7587174297544 2.139772628779005 8.049093889758641
As 7.947249891234454 5.725642904739199 9.287050523705155
As 4.267443018512461 4.423041368858294 8.595051743370965
As 3.4494413729619264 7.92737537132705 8.667351443131068
As 7.939933265922535 7.997634714621483 11.470072723987936
As 2.8341404322490225 6.062279195739578 10.155512921307716
As 8.430486360056667 5.587878904032056 11.743432489286581
As 7.200755012726314 2.205670051748981 10.008550411551655
As 5.709112686051679 8.405775076728746 11.075000926825288
As 6.305661720278169 4.646365986546533 10.831980608929513
As 4.587188154822827 6.379363902326504 11.81849186518482
