46
Energy = -205.5884287 eV
As 4.065628932515638 3.5557252399460206 8.121791350759322
As 4.370602721185783 7.899370816838629 5.221086236416118
As 7.153321156623776 10.706169079907601 5.496189530954274
As 7.2291916256617 3.8611304033180165 10.186701850270643
As 2.9299764057274387 2.7031462087463844 4.640569651344598
As 9.826708011296994 8.182190660252722 3.4160717253484663
As 1.0926770046460523 7.679898954352957 3.293343877712532
As 3.088703350289011 2.216113534998676 0.5926209120552293
As 6.7273684299532714 4.844211625103018 6.423545567529542
As 1.2407788740361758 1.5459233355030673 6.100697571351324
As 6.024789603199739 2.1468504696923074 8.797024323097459
As 5.685333712545698 3.449026729361435 2.6535779068281133
As 6.312252627768161 9.877699977215515 3.3153113192595
As 3.6807834332576292 10.729247220573923 6.5537221703072825
As 7.99346269318028 8.664584680002807 0.2680241428430368
As 10.310875306588033 5.871473565510128 4.524822031346739
As 7.461831405260287 7.554769669937577 3.826772575877376
As 2.7386421153636475 5.833353597320448 3.0320323104021685
As 2.587636265216952 1.4553727676371246 8.218767581121496
As 4.534072320886162 4.297170893970195 0.552435265071152
As 8.45541916244274 4.7944512770758685 8.20741561297567
As 5.111669960103949 6.311889214638196 8.68009703187281
As 6.650192479026262 6.9929225312563466 1.3679077509009905
As 8.154651604003128 10.397573162240665 1.8722665165354986
As 8.484920419884597 5.519533601587584 0.662145548531474
As 7.820177071262624 8.425657511764951 6.278495468658244
As 5.406337692392895 5.420510915157417 10.957941478124566
As 3.8854229099971356 0.3874868122156932 4.264915323562581
As 3.0174136779033405 7.4761575607660715 8.928213493142916
As 1.8099302353107076 5.620119267919042 10.221891642345698
As 0.826676320375683 4.646519636039194 1.96143717807702
As 1.540119581202624 2.3092436497611084 2.563192956753943
As 10.490306914353685 6.265983631461213 2.0506068575608887
As 6.259625637754398 2.6687731072764147 10.957941478124564
As 0.3817030843776837 2.6993293170455916 8.153579820794544
As 2.022331101543732 8.681792142291432 5.447856964464659
As 7.881964707811414 3.2390695323767535 1.4815779802351992
As 8.014505837052864 5.030569674439663 4.285048752703775
As 5.691357009944824 0.3573020914252733 5.931526139879274
As 0.6757392693912656 5.084435855569964 8.160727907618526
As 5.23708621742803 1.2394664219181204 1.436477274518278
As 2.692347447282973 6.5595750639325265 6.5753993674849465
As 3.5334865802857487 3.7955666756391455 10.553727726283583
As 7.712591008811558 2.661688870494134 6.994768577455899
As 5.600166639725858 9.3124857309007 6.8902200588147124
As 0.656717201866658 5.451683170838676 4.302729048902695
