46
Energy = -205.69245183 eV
As 13.800367942936882 11.726530508362217 8.68350799643908
As 14.331702497514632 9.400633727334059 9.596789219174845
As 10.752411440971178 7.853498457964881 9.853640154242955
As 10.183850617877287 8.991254528423347 11.98693254612388
As 10.698827103247039 13.138357249542063 10.25366919453396
As 8.8415080845652 10.01480476827389 8.934702830951466
As 6.659743466748844 6.728040895588241 8.434541192013299
As 13.488618021265468 5.460092222811776 8.747831877140044
As 13.660216751902826 9.640949664240134 6.178811222933414
As 11.195638816576464 11.29969936702404 11.844848958770726
As 7.854073358296396 9.069318343797542 11.053663164894273
As 13.107068957034372 7.369573338733525 10.372832016741324
As 14.631942425564098 7.604312047298004 5.749347215159261
As 13.599970165931294 11.240926751713992 11.139185516946227
As 8.228696476420074 13.454251616162647 10.200404320399583
As 11.753780159736255 12.914328494572361 8.00436125629838
As 7.625692106298618 5.6148871727441465 10.435795252163057
As 10.112042359278062 5.688299065627505 10.865686344500444
As 11.433913030091981 4.1729003043845845 9.312574960311505
As 7.362566979379988 9.831630725264185 6.95617826422851
As 8.178685959996859 8.266392371716831 5.182215883498221
As 3.9883139426924923 4.695474208406675 8.029490190787985
As 2.210258331498497 12.002007291504244 7.6474840935436825
As 4.434434770729694 11.205625005257101 6.814101322706082
As 4.172808182292907 11.704233621214891 9.182448226640561
As 4.957492898926593 3.0395118327297124 9.654139488246322
As 11.037416658949281 5.6678240369487165 5.321745068233856
As 11.30101545715316 9.325993718556699 6.8528594098611
As 5.100585148761592 13.476851563424479 7.661538597207663
As 2.006733140671419 4.540298872549211 9.532417753414485
As 8.72908549297355 6.719410048079919 7.023325089273567
As 10.659511523870245 8.159872582843274 4.77236195141829
As 7.648554942633461 13.731974015251007 7.753810004630259
As 8.304611369549763 11.970616052539196 6.101011624961653
As 7.499691694561584 3.237574166410014 9.803654765962422
As 8.129343161622536 3.132249100131119 7.401621894352068
As 6.926212146403927 5.13890388549896 6.532085111191765
As 10.566256838175498 3.7511362677000024 7.0581261710684275
As 4.219813391691654 5.313875919164091 10.38249498534256
As 7.082980199632686 11.25486140186029 10.130676361076052
As 10.824210795677057 11.645369070041511 6.026838644908036
As 13.317309615527133 5.557223279909027 6.237366622826367
As 2.7135346431544645 7.967043290209703 7.443665300283988
As 2.4232083970698954 8.565043431144169 9.79412372371604
As 1.073057648604429 9.755293892451064 8.05699724318292
As 0.9872466627906293 6.7760556018432245 8.813100744946135
