47
Energy = -208.54367896 eV
As 6.839727039157381 7.201254531307134 0.8893658546422437
As 6.848067127633664 9.479354278270796 2.050234709790134
As 10.562651588099442 7.958618875208291 2.539236896520536
As 8.73154084519726 6.401877532866524 2.21542461864716
As 8.678861384130244 9.069391024875696 3.8206245444625733
As 9.303576392045757 4.063558657663688 1.7698803673690946
As 5.430017167801827 5.556529036157857 2.270783992204879
As 4.713734750047136 8.889258212668416 3.269845193053711
As 5.722433362339509 6.901024509024462 4.382279191295389
As 10.615892495921004 6.649512856178457 4.785840691168528
As 10.210407618744616 11.131421292546833 4.002916323600294
As 7.0335010995947265 3.6934998402513592 2.8377085726713696
As 10.523033993014355 4.160133336010556 4.074549625236482
As 4.408026195465506 9.725311525858709 5.6611766851044205
As 8.3230548427683 5.183951608112593 4.658193232362776
As 6.896122052771834 11.500982009925744 4.913786485222202
As 9.041884077760947 12.597003476925316 5.640217112820613
As 2.6370736091425737 4.46187948576029 5.681344470503145
As 9.729126555916155 8.57588565630013 6.971259471048215
As 6.799751213971757 9.41413617178497 6.331111608345294
As 3.022112700898983 2.3822459181655686 7.014559043645335
As 2.490077660142788 7.770689103357947 6.788867190769912
As 5.3145674176254625 2.2273078645230333 6.496382239154437
As 4.379121382694853 6.121259752401934 6.432495996976129
As 0.9320230716552497 5.665155489586628 7.06940082852954
As 6.3088093593974275 0.7390196801629978 8.277461622129056
As 4.918225849716536 12.117146121167357 6.34904449605122
As 6.5170174324463455 4.028381110759387 8.085344025972276
As 8.243207635506032 2.282683659462942 7.730328275302018
As 3.8108775115915243 3.289969542341798 9.554215250777956
As 3.78060185442293 6.29398713269083 9.537440717363367
As 11.882923623784814 7.374209242937484 6.717585481976848
As 6.3317853167921125 11.079994080557308 8.17749594591518
As 2.9653235567988916 8.643163804276986 9.213770115323053
As 10.67643025879154 10.897450933004519 6.44341758281213
As 5.558981849418996 1.7199746045687883 10.493797199106917
As 8.0276303235721 5.843370402966782 7.227262930524924
As 1.3997913635422263 5.682319716435374 9.501447390412022
As 9.03002104397655 9.085623469780511 9.366122571242569
As 6.940851076194507 3.779137148611667 10.679408841759557
As 9.779259027653397 5.322819530828162 8.962520476615955
As 1.7798769808597361 3.5802702422572654 10.900949736526231
As 9.16955830467338 3.017133010245751 9.929575197261936
As 5.183001386565487 9.59054198354403 9.855512040296892
As 3.7908664524175895 4.837802681018388 11.644325273768457
As 6.877533718442293 7.8511746935538405 8.9786964890428
As 8.61384815610377 6.9353928903049225 10.579601121884231
