40
Energy = -177.78885597 eV
As 6.463056032362523 6.887375202430358 1.1940269211546426
As 8.773712160918478 5.859756338807913 1.8713973097955146
As 6.1284198083587125 8.945601163643355 2.6514133500647583
As 9.358820892385435 7.864484816791808 3.1440549602080923
As 3.664841323066973 8.771727471307434 3.017086251705761
As 5.656579053328352 5.391628731407891 2.9917542890727837
As 10.802716746833132 7.1688737327337515 4.932514146936397
As 8.755681534319024 3.9225679183037503 3.5888788693026092
As 3.49875046133788 6.4069668169967615 3.8310060201627762
As 6.787256886256339 7.203717620552126 4.393699294808909
As 10.8699662709957 4.685800145005141 4.640092826086538
As 4.266639809274437 9.473186894477701 5.421320517763665
As 8.919949206356721 8.221613829881248 6.350242902218856
As 5.358156315038566 3.078086558386274 5.460532787922256
As 8.421665760798112 3.122170827163998 7.347109701269458
As 1.2464894169738254 7.335277045943361 7.083223562122242
As 6.022759125990712 1.205052360986306 6.980494162478644
As 8.862294647895256 11.93802499518623 7.0315163872779
As 4.768536786367675 7.110504430746655 5.883788748664003
As 2.4328839661323722 9.4741284897666 7.170190839536828
As 9.205626312288762 10.326312593957613 5.231341482581246
As 7.3904197418375706 4.55396478576605 5.601695696070778
As 5.923453509049163 5.734311288631035 8.465108103293865
As 10.80614262213447 3.7826200865531847 6.9996805076477235
As 4.263625125315174 4.084103462140254 7.51811824503247
As 4.071226355086622 9.212860400662784 9.066218119663867
As 10.191956436448267 10.974018665001497 8.913564198582618
As 4.952265876248348 2.100059855390973 8.888936052821196
As 9.863345954450944 8.504108817434506 8.669768713567965
As 4.050684806028779 6.82719543976454 9.812850509382692
As 9.279799819519534 5.379207559692664 8.179642778029521
As 6.715724403528468 11.57588282183449 8.300753069314219
As 2.143385096357134 5.825239803933382 8.573496017139771
As 6.2427640544788705 9.158211785560644 7.812740834252743
As 8.095097539500038 11.036916215887997 10.345013512356326
As 8.12569614718004 6.447306452883454 11.852672603687196
As 7.6547620947934 8.556922896709148 9.8636305805856
As 6.689858300053039 3.9878382083338835 10.14836546326287
As 6.134286382577519 5.262644050564964 12.210508390530329
As 9.104184755171103 4.567210955816068 10.52503281068151
