42
Energy = -187.36578608 eV
As 6.926453149400696 10.036354933055089 2.8751200337007314
As 9.143125069288857 10.86197429329472 2.7737196114533487
As 7.740515898181436 2.703860309221001 3.485383515325707
As 5.811630674646915 4.274993470400023 3.8374513140407585
As 4.62285098106572 2.6139916701058805 5.269345001668536
As 9.352960546850163 4.54449983482243 3.466219722541785
As 7.190620246977451 9.240278573148883 5.245101774572361
As 7.93943508358315 1.602442515391912 5.716955158168823
As 10.496852707536043 11.600388475392286 6.180659590820065
As 3.21923060066792 6.149586868177465 4.963459815618664
As 6.803523613297393 11.696901346837501 4.957863343749744
As 10.862282225286028 4.249342136323565 5.139291020277013
As 9.650956381215464 9.645183527107484 4.857017283124043
As 8.566593318738189 12.657894623478716 7.3606125558778395
As 6.386699705250977 3.0246398703848505 7.01386268832604
As 6.7738376387386285 5.254561483747089 5.938819661179739
As 3.0878998167948075 4.186401927555578 6.467450391709615
As 10.210342843800314 2.287571382371807 6.444424426076972
As 4.451328987804719 12.009790142179103 5.013221236489919
As 1.2533686339172168 7.321433227163583 6.00975469333106
As 4.641938026407077 6.086235711696293 6.976971840696299
As 4.029848447908249 9.62764271262834 5.3032415522083385
As 1.538886907366693 9.570283910965523 4.977718124175269
As 11.552283946361634 11.049025533472491 8.398105275951865
As 7.5541584217943205 11.225004878956788 9.091356681265696
As 7.4983074178529625 8.718741242664091 9.059076884454633
As 9.32131153003394 7.979353732745611 7.548222050516454
As 10.355759337754604 3.7912350949665177 8.479119010508178
As 6.984461780380812 3.9305261815975707 10.775554834794724
As 8.757679280223734 2.452932708737665 9.933787354444535
As 11.430458851183753 8.582153364958845 8.696557309823866
As 9.730232545126247 12.227598964602182 9.620958993664114
As 3.689096414196311 9.902481491698284 7.773995367138518
As 2.0406465322373672 8.125655247770334 8.249185966356537
As 8.789039140198584 5.80649763102134 8.657653313383802
As 1.2668090051446264 10.359691202381006 7.37997311538611
As 8.427360538310783 8.984243266959172 11.434318580198662
As 10.794171114140624 8.30522388762688 11.075166151590652
As 8.693983055953131 2.976928738961843 12.3765338548099
As 8.583443034574646 5.447583338134302 11.98428050525285
As 7.7437238944540345 7.389436314113558 13.102526470046943
As 10.504111006884699 5.9176525847124735 10.50818227680869
