43
Energy = -190.55102373 eV
As 6.187535976408742 6.223648728623027 1.210726390356633
As 3.931752201935966 5.515217581449598 0.5223999781478283
As 5.753382487219936 5.226268328225423 3.484579338009079
As 3.6169275020606007 9.092456580124749 2.660464964151286
As 8.883850024810435 4.62216788680025 3.6867020102512096
As 5.323423596611331 3.4731091247084245 0.6886516106877646
As 6.006222450339272 8.365888791216374 2.8762774029413265
As 5.539705096161304 2.6936277095502805 2.953124209981829
As 3.186072312892802 5.153190532339871 2.9365677323631743
As 11.220912331029162 3.8661820280557517 3.2863132525853884
As 8.22745993471092 9.355180444264942 6.031064625464813
As 2.2398879191972227 7.312941986583136 3.7052247223522077
As 6.504090585522655 3.2295954953223407 7.299003276766034
As 10.798476250761983 6.237479833729853 3.728018821786605
As 4.036124198607175 3.514064064911409 4.870829753318192
As 6.032193158414207 7.274249132672664 5.017258467659162
As 3.247269029491257 10.065409658297895 4.939869479911982
As 9.117192752302572 4.5527439092073205 6.246524468956557
As 10.495609015745032 10.249060736732414 6.478172555878818
As 8.702724866316284 2.1255199826658915 6.760457506111952
As 2.6255978462748044 8.152960369037308 7.954132664133992
As 11.539908952731768 4.77431111797142 5.606712058273831
As 4.984643566164827 11.61931039614976 5.900133252598812
As 10.508013989770074 11.040575453504866 8.609940731557566
As 7.5055479698716425 11.672310595707051 5.632170681659107
As 3.594956479269701 7.7871594165454665 5.805304770424404
As 2.816943363839003 2.222606892455952 6.603255229369689
As 7.156714081012029 8.955772902899874 8.244041087051324
As 7.968841585058393 2.3564883050122027 9.123217382291733
As 4.853146918604178 1.3713025384959774 7.840639715009343
As 3.5441126174990507 4.400668343016816 7.811807590407952
As 2.1681411885546167 6.029930450544762 9.103458948605175
As 10.250860319001452 5.6336462240071485 8.630119181562739
As 8.222905389888187 10.808194989245916 9.471891524868061
As 6.0107936828303945 5.597073088344175 9.516135350664934
As 9.302630021670732 4.117537289359363 10.300762841746446
As 5.205805012571667 10.7330640580605 8.177533544546385
As 7.08032494651356 12.463252973279355 8.006763306714092
As 4.023768938166947 6.193687492053713 10.887966441658781
As 3.5954620790932625 2.7036312832840803 9.587394735024242
As 9.273611370385856 7.4695814226074075 9.725948673935333
As 7.8283245371089665 6.014513309631842 11.166239577623195
As 5.108594940879646 3.954880040601916 11.132661629891413
