44
Energy = -196.96012409 eV
As 10.770606613015385 8.517697843132343 6.704966419299738
As 7.302582412185479 9.550474963038898 5.965665295279511
As 9.27677722007515 10.53375110434148 7.089899692318726
As 8.451946181637652 9.70964641107063 3.221257235719733
As 7.624489962968517 7.576609824613918 2.800230291665957
As 4.9649895715649945 9.03029690831781 4.153499191847202
As 6.499046804131359 11.001620233102484 4.025327514017588
As 5.467795920452689 5.3516481678510806 3.7424502971401683
As 2.264899754198603 6.542687830277184 1.7036986032498345
As 2.7520181224360076 4.1180121065784805 1.5845587586484944
As 9.860012350719641 6.70840254959453 3.4646664320505915
As 4.623511751121312 5.790313186520958 1.3776615947638156
As 7.928554960462708 3.431831257487668 6.074280008720574
As 3.8258578941670476 3.4316997732597865 3.7233083537697733
As 5.305188591210356 1.2036998755426016 6.074139446775451
As 7.1257004200252325 1.910865926327194 4.350568322921986
As 10.251595168794244 3.1657236749915976 5.274658001284131
As 7.133988031661723 1.629468218446442 7.704096913918011
As 9.327809105204848 6.631993796080331 5.917233564186334
As 11.773740936282508 5.232401692341291 8.590687104191073
As 7.067050624841742 3.7104975530032114 2.634864677070924
As 11.39778088106886 5.28488519176799 6.101625166264549
As 9.530916436577575 4.241608953582947 3.0529281001720814
As 3.490448119859592 9.989638500162487 5.928275070158383
As 2.561849986799171 9.451019050339028 3.6800346611599686
As 0.21071082610980163 6.877759113600836 5.084834338587325
As 4.322003352741052 4.5844982988560625 8.201674374776914
As 9.377893566535008 4.426031738682159 9.173380388863208
As 6.584365686097994 3.7979426035403865 8.801139705797302
As 1.1087006702110807 7.281413284782604 7.395586479326457
As 0.6086371161164017 4.968316836782799 6.6150110697357185
As 3.4947545123663093 2.408013081238459 7.2982245090206685
As 2.050395054533256 3.2568727224096228 5.4347167906466485
As 2.5061245003456607 6.981216309277247 4.112242684468147
As 5.740716817209663 7.135496790599245 9.276796794708345
As 6.0575176219248625 5.939117341691298 11.440219632742277
As 4.909701254247075 3.8222539241321485 10.591953852021142
As 5.934630540769371 9.502477333603341 9.894645435213075
As 3.5543548369070894 7.743563573191096 7.030473772436036
As 8.677421236105229 6.795119551272957 8.982578347110245
As 8.639625964675794 5.755028095526764 11.225615950044668
As 11.053214866780756 7.6008461143924935 9.01945358611569
As 3.649829290912076 8.526582720223162 9.441601537745546
As 6.954050040149691 10.864761677951797 8.05307548292011
