45
Energy = -200.90228942 eV
As 4.000682367966773 5.985196612685633 13.31775162832558
As 5.9000743423546025 4.413375323649113 13.144357128972999
As 4.195253528265169 6.258602035526558 0.6698929741472345
As 2.830589255303858 4.353852750711739 1.456525227699625
As 6.316058712736714 6.66802677589827 12.93747478428922
As 5.271484662633236 4.07071883615789 0.885244092641897
As 8.353809712302011 5.941747643499789 1.8025346445961383
As 8.709832298724196 8.262227049739801 2.823924681154475
As 8.084394828019564 2.8676329291528693 3.269756713347093
As 6.420288038191826 9.079550192017434 3.4249753289584874
As 9.863561450846973 4.627139863415927 3.333865194665907
As 3.073364506365651 7.394986033154182 3.6039899049182376
As 3.220482717459738 4.936108543786896 3.8859380749526564
As 5.269432903336232 7.416885382108624 4.9381665865918345
As 6.4295224895803464 4.8016714150587125 3.0218956950145546
As 7.027317768166584 10.736502713410593 5.091545404618739
As 4.149616672732242 9.097749256523493 6.3848293968086605
As 9.86135547061522 7.79130096876765 4.994399477458652
As 1.8613222130953433 8.272655499785037 5.581618196948589
As 8.037231276826107 2.1934850255980227 5.718889880415034
As 8.524517561818978 5.668896764534685 5.140800042752054
As 1.199556384017847 4.318108780456731 5.236193603812382
As 2.9261303234830076 3.9102449238587274 7.004166771107077
As 7.014997881957623 7.21380268492434 7.439721068457971
As 4.1909156546623425 1.7530173972331908 7.305895319121516
As 9.843182924655652 9.956160862511846 8.258162679252496
As 0.7495848990928817 6.342358989913868 6.656849964689654
As 8.340983855772096 9.187842234363123 6.408874266734417
As 5.8352328742219814 3.2920723503739233 6.21477637992682
As 9.188960705552043 4.083027488846177 6.960256820671896
As 5.165692274277331 8.330828774588603 8.603209978768874
As 1.4941021189209838 3.551406166653236 8.956861333545215
As 6.967208997659753 4.6002933916402045 8.038132121452538
As 8.030866215695209 9.497846836860424 9.920053868390847
As 9.55639883143532 7.671936085046188 9.221724267514738
As 3.5799728402575033 2.391756110292262 9.704542334867236
As 1.6241307133576557 6.0575103595856445 9.112630052940103
As 3.918919363140235 6.558641210309303 9.939819790479195
As 4.704368811256782 4.298575127192585 10.789740338459897
As 7.481177480963697 6.743217657288286 11.67868210900275
As 6.919049680244374 3.3522235029146783 10.20934152571403
As 8.63590425451494 4.805469838263904 11.219027654277312
As 9.53920374730322 10.032909701368666 11.907358648361242
As 11.113408541817712 8.254537520913772 11.20880299212735
As 9.402970338806833 7.781012879826032 12.937474784289224
