41
Energy = -182.23560321 eV
As 7.495466876487643 7.246923389691382 1.5524666283449322
As 8.40561488499907 5.454438291182657 3.0415473510681763
As 3.4026060065090133 6.93190338020326 3.380294563900943
As 8.087798566534264 9.499207989465813 2.3540502449538825
As 2.808275878712126 8.840804706526557 4.62858430231358
As 4.591286316049014 10.054087283282229 3.3010769268076765
As 9.934885723166001 9.831937488664838 3.9315001421857123
As 2.6276392301152187 4.955924996236486 4.708921092534211
As 10.835388189602126 5.917228475392106 3.361786015197134
As 6.229952947626312 8.143915968329361 3.5439832464243093
As 7.403823011307324 3.522148550661944 5.750914611511842
As 11.239699203237116 8.01324981214028 4.609855348427814
As 8.09864051200336 5.954098162426419 5.5178160547514805
As 5.743679615068469 11.742739765896992 4.785803750962771
As 7.817153635904855 10.540152001641323 5.646783958137441
As 1.61657442633876 5.723361519148659 6.904424369860884
As 3.5143184185879126 7.381307699636308 6.858525003048499
As 10.535414906375301 5.287960459217662 5.777034900318592
As 4.718483217545066 5.236887735810474 6.058308234499551
As 9.81273378908484 2.8241405386284777 5.723245237966874
As 11.944295401795522 7.266533099862663 9.218924735069605
As 6.229259781094328 8.758422397168305 6.469192954277349
As 10.743600720346135 9.213587692282307 8.84456039572046
As 5.196571350296067 11.00963889025126 7.141333916958088
As 8.54008943989164 2.7864032084148977 7.849292820945397
As 7.822277660064955 8.158500120624042 8.284106064566936
As 7.4463392297580935 11.866116738712634 7.84320516460888
As 3.2803979116144317 3.9912838267479445 7.726788225530278
As 9.061922831601121 5.003647720935924 8.915433680018044
As 3.8456717815836527 8.089525078830533 9.245655451438196
As 5.9121176736291385 6.708724346267356 9.303747399568508
As 11.279374315756252 6.509218285740799 11.495778457976773
As 9.568590518912977 9.847425983640118 10.937743911334772
As 7.346658305917146 10.13709754642395 9.69808795855455
As 10.591350245632455 4.189676012560277 10.706922291760831
As 9.048962604068718 7.391972484169097 10.935843243860795
As 4.527750399639106 4.4270021372606685 9.82367786575926
As 5.7312852435816115 7.36804648821506 11.665246927316437
As 3.4817226229624065 6.270444108187629 11.06709278989994
As 8.129131865552088 4.150641297075844 11.11514668404256
As 7.711740534376443 6.112220115774888 12.633842870904274
