47
Energy = -210.81661631 eV
As 6.659574964816859 7.11889993583783 1.7276131288839163
As 5.5926828135935995 5.531491058050058 3.409596509857494
As 8.567355759822334 8.420040726265311 2.4515867711416135
As 9.980603648968984 4.734464558900058 3.100295624904259
As 5.384661034516958 9.046652923431063 2.866501814715264
As 11.88924924748359 7.308475997479648 4.287104166591851
As 12.077766495311584 4.799783776275451 4.4753659734047595
As 4.774950040294762 12.286268717470817 3.4092500412082734
As 4.471401327925483 7.334452231248024 4.795458871326233
As 3.278745986815311 10.38755126192941 3.041562765192671
As 7.029460274599689 10.787720956607615 3.421281594617919
As 9.395346565272721 6.919970791847622 4.234579059711721
As 3.5413931385609385 5.402852559704861 6.3486854753649045
As 8.46924357415994 3.147034500330998 4.273112987597397
As 5.132640130426628 3.4987313855074853 5.963418497896186
As 4.297494575848216 6.284271954349542 8.542546910923038
As 11.201971307073032 8.230668265816083 6.492077829525637
As 3.683775345468526 12.383231414229627 5.619123956653254
As 11.404677419910701 4.336065378930844 6.80527898651109
As 2.5772072754918463 10.070558179153885 5.483501296106027
As 7.199550449816666 10.377822966544908 5.885511889878851
As 6.630487209156611 7.961359743538502 5.955090678439864
As 9.72735247195086 2.5529036157599614 6.3613398157453185
As 5.9042717693601094 2.98876343690255 8.328171440973716
As 10.020570604335976 6.303115523716987 7.489264078471677
As 12.877993676125863 8.308731461589566 8.366106242310419
As 7.090472345314103 4.916782473021245 5.323367753427469
As 3.8746353976280608 9.917378639844552 7.683278631484138
As 5.700621397082642 8.336521845592374 8.188131669609335
As 11.705559790336514 10.427085900588564 8.884742323956026
As 11.489362780142638 6.576637569358088 9.54386945611287
As 5.539925332126093 11.74909286433126 7.174838689587311
As 2.638435329589492 7.828609713835776 9.532849442600618
As 9.322697111088202 9.778174347916519 9.134693129283754
As 7.19365942764425 5.095187572274548 8.398701052779927
As 6.675454099830941 5.710409775093936 10.884145030590139
As 8.399708414640392 2.902172103500905 8.477473410973868
As 9.509115035469321 11.083007696818484 11.359425411128072
As 3.8300832735076167 7.689805560555715 11.699667234804764
As 9.640246421593744 7.805530581082002 10.604116792241921
As 11.99162704287822 10.848467048750214 11.318885621912255
As 7.768617722476142 5.215793808804848 13.114586040882427
As 6.325516157515674 8.141387046739775 11.354087028517775
As 4.352198202279198 5.236642784423842 11.673401162442174
As 10.620702983044476 9.138168626310192 12.459382857992805
As 5.429180284637212 5.351265120684922 13.977356178662882
As 6.8155543678606785 7.413795622846947 13.763374696849677
