45
Energy = -201.40465439 eV
As 5.418188363397414 12.246998700996222 3.4751448055421124
As 7.484663767179425 0.8044320301131422 2.9237801240392156
As 6.906446053717611 8.264130132088747 2.004385215160082
As 7.682285632413122 10.411087806388398 2.834273061320489
As 8.903349748364635 6.856344419093526 1.9076390518421025
As 10.065707643118124 10.030562973550238 3.5132923077809433
As 10.222368570759349 7.595758163039172 3.9071533308326862
As 2.389425397678165 1.7915462683259746 2.835051854454935
As 3.2311619515492054 8.261549752955423 4.754361145458283
As 4.751358766765749 0.832497744365197 5.6775571692984155
As 5.045679459370159 1.8637425958351495 2.5788168158711247
As 9.331959454891987 3.621092263205201 4.039754209817896
As 2.5054092007322435 3.4097866398323866 4.58892715946292
As 7.084438992863053 9.911592426336497 5.285869358754704
As 2.2662322386360927 1.0146800991900207 5.178867902288794
As 3.3034587943274594 10.60558093677498 5.696472001107495
As 5.494200098004836 11.81663175237082 5.777910891757981
As 4.407499586842133 6.407740394653596 5.965524381519969
As 5.214286753292246 3.1424352805640288 4.860770770177319
As 9.21385792097088 11.20061707370594 5.577402217290293
As 8.372774470705167 6.754361841417159 5.371361712671935
As 7.590276465799233 5.294131353998151 3.404824969078262
As 10.139256159589104 5.057758005706902 6.010117927680423
As 7.714796469487802 1.9897997489605963 5.014536544603765
As 9.964727523032007 10.405895674488926 7.836429596019074
As 5.486683925714455 8.032086247700123 7.523612478007605
As 2.0154996855161356 6.980683227929572 6.486559825744532
As 2.505614165598968 10.617389118337517 8.030153077721492
As 5.573624569091856 3.9623773820560055 9.501210421532333
As 3.7113519670934942 3.348117762867968 7.994100676932025
As 9.833322494714192 7.872412209273355 7.72790624254352
As 6.102518652140662 12.246998700996222 8.189771695872482
As 7.056908094133963 3.6250999616547737 7.5140921263545115
As 9.484341727037268 3.8598845702028948 8.08448837519263
As 7.505514202229201 10.1696195652867 8.242160280209415
As 7.634103625039774 7.168357258443203 8.8371185530649
As 4.276024095536192 11.32768744513284 9.603764496632003
As 2.01450874264512 8.25907972436293 8.651875482371775
As 9.302165422582506 5.38566027804912 10.060541487387402
As 4.371573630908476 1.0451934926674527 8.235577641590456
As 4.180994638006475 7.358563803742109 9.479876521156527
As 7.506559151167561 9.093854926067593 10.487350008956028
As 10.668472704136894 7.3168439981619455 9.970147381281278
As 6.637765632169126 1.7226849407809626 9.067917593249923
As 5.004529985055987 9.229736730450671 10.867437704372938
