47
Energy = -211.18121038 eV
As 3.382193385516551 7.992458006800071 3.4012871674748015
As 7.1232855445999625 9.83212285501485 3.338206386497594
As 8.39975967026508 7.716142914124716 2.885937588474332
As 5.770207709243759 5.4343808073580435 4.413784055336656
As 2.1065369413814317 10.012855385660794 4.244949774442832
As 2.4353613815896544 6.814061525949046 5.3972343834639025
As 5.366490167238599 8.745630286207746 4.76679755163886
As 4.596613171708164 6.126173098204458 6.516400160616276
As 7.911899288862248 6.557537793407813 5.065559986210555
As 10.671856470868498 8.40511969080433 3.679116781894201
As 11.469963384757976 6.1116428058664 4.522313772242036
As 1.5921631890051786 8.94124566018502 6.472642069909054
As 8.154967162698208 12.810199357362166 5.950189442327382
As 7.7539827211904475 10.340710147603504 5.720794492969733
As 4.336676876089008 10.99386166185289 5.2196682544481625
As 9.411019232421868 4.8140498013792214 4.098647555651632
As 11.502496512776338 10.803440079780104 6.904618585441241
As 5.8617062171851995 3.050252020595913 5.31911553739725
As 3.217151381854155 10.643010338849333 7.3998800822559225
As 10.083070092013896 12.74645882728691 7.592114348982978
As 9.844354434304574 3.0494327551076745 5.763727525223909
As 11.793869940664868 6.248132248325796 7.023226286925596
As 6.152201667893005 12.931220242266317 7.33758484347071
As 9.896791198427543 9.15845677406898 5.926722828437811
As 7.486249558642375 5.150803773960143 7.7606959644084155
As 7.671150536988619 2.8181587382485986 6.977516675681357
As 11.073917209104481 3.9782742050442867 7.743858521083987
As 4.2074440018736805 3.667218943345904 7.111019919646394
As 11.71916818859771 9.307470488877811 8.927200811064903
As 11.068447327123305 6.258699370699594 10.272854566453498
As 10.040821151498076 7.597652585654493 8.273644331858879
As 9.016418515868356 12.27291362453616 9.763407946844005
As 9.181540506135239 4.748907460765985 9.553559175604349
As 5.493329523452628 4.564746505687097 9.11843176490187
As 4.313411918185722 9.193647256299505 9.122464490258464
As 6.893299436127733 11.286990668454242 8.936478182874934
As 6.739321820900099 8.77624741843589 8.569666163380667
As 8.883053079662604 2.505655000107044 10.642048891752095
As 10.552648752988345 10.602425910813597 10.74833191965125
As 10.126087080732425 3.4496689681481203 12.515232162165281
As 6.521543173398369 3.29293563509533 11.10455160133487
As 10.305389128741705 7.298391999246047 12.365464189673924
As 8.849477595816252 9.335209100158963 12.095149840551743
As 8.789321783864965 5.464766617747736 13.229792400119672
As 5.296431103783125 10.853348566251238 10.770455424064018
As 7.3170782618206145 5.631567163250182 11.339436747607062
As 6.6201908079958764 8.666063120967765 11.09857705314276
