44
Energy = -196.82520485 eV
As 8.755863173445896 3.769341415405048 3.2638626152616226
As 10.887829576583625 5.94507794637459 7.674451535267362
As 6.830675013073771 2.2269314347010196 3.60305755770002
As 4.08608193489251 4.658277533981788 7.117926894743861
As 4.307203430236367 5.278642904046353 1.3186740402279427
As 8.481844177311814 9.44019440090737 3.956649877538553
As 7.965555656281864 3.846059395602877 0.8854606473502269
As 9.424025745816406 7.240662684652442 3.326990401842475
As 8.677354101516935 8.965070104748696 1.6452782737977611
As 1.604327415155331 2.0554045698354106 5.495131995692495
As 9.43598512230393 3.9102735389897036 10.649181095583327
As 8.999424917038606 4.62220066854243 6.740650946677764
As 2.1141811521598646 7.198033872303881 8.189006019534004
As 10.535697912368908 3.6127919573246734 8.438776467537537
As 4.054654959316393 10.772008751827704 7.457719835192831
As 7.798016405379215 10.787418003421584 7.220553981669231
As 2.31470758688562 3.1877853638867206 9.281405358135439
As 5.895897969204516 8.356555291550142 9.424493135436196
As 3.192247041182361 8.614506724271262 3.2768185758362507
As 5.568626968634017 2.8887384374118974 5.710276405792305
As 6.008479455484226 8.778555653225647 1.7771300007652873
As 3.4620169161073653 5.438414539716866 9.429938592332393
As 7.40907736737156 5.832041072105334 3.8670964073498943
As 3.853010924930336 1.3310803854773436 4.814563659113071
As 3.6717061311297 7.065671908707539 6.238200289110202
As 3.7640613280349897 7.8458096953038865 1.0579412710298353
As 1.6828385688416128 4.022962381086572 7.009785065420177
As 7.033723150572077 5.242651581017751 8.117311732419687
As 5.930905840967986 3.1722550778408456 10.140523245786028
As 2.1784295206629087 6.584758302089938 4.270300474473548
As 9.857204281601025 7.41872958909432 9.382470587982175
As 3.8893457809259804 4.871615928404613 3.7281266826484076
As 6.636255584958036 7.523045071829786 7.165574508412975
As 5.726805137732517 8.425222293479798 4.279683287078843
As 6.059932286236901 10.835386824681962 9.048510292832328
As 4.4873630117879815 2.096027951892341 8.492241499581072
As 6.655299686808712 6.148391452490803 1.4966701083515899
As 2.492295034416589 2.820314659036433 3.294716001185741
As 3.502920839356872 9.031668817525496 9.178496801014164
As 7.963480588623691 2.101241581801868 9.732836410403957
As 8.059613070041381 5.945945199487349 10.255024795493592
As 8.885524209005261 8.499869712838377 7.2721110093220345
As 5.811097339916902 10.577552924435798 5.649393830048993
As 5.847762137916323 2.825617336767236 1.4209463356013448
