47
Energy = -210.27640991 eV
As 8.006185117691324 4.001968748531541 1.9761606253197972
As 7.301089873156978 7.0956791814751545 11.810051435639354
As 10.2299702125171 4.9721281765103145 4.370339614669378
As 5.450860213179209 12.562309151262044 7.583042892637472
As 7.004858754776159 8.657974328062163 9.877535386799558
As 10.04714092162093 6.56602102133519 9.842499905411067
As 3.366508028412576 7.811229684120292 4.824203984060186
As 7.985096090765391 1.6338250406743124 4.515211218301399
As 10.807564154466698 7.354963342611182 4.694566727876273
As 6.030949145353573 6.808017087308402 3.101869715328938
As 6.767263057281871 3.8596369519013907 9.491019367610397
As 9.190745056720695 4.716842093034454 6.656575047648957
As 7.940118788576322 6.488420802894139 1.5841358828088343
As 0.9707754143490782 8.362612741123641 5.02707276893679
As 4.717428816182104 4.3607864787694055 11.53546067450228
As 5.599099983283123 6.215544991264606 0.7064430163495324
As 5.734747619829094 5.450115465854177 7.81978985455904
As 4.8281963464600315 6.769478485973947 11.486655956109331
As 11.130378010212791 5.116443335232662 8.125522043455197
As 8.422920008078512 5.024804415084606 10.930338206903032
As 5.013026864225867 2.869339926426621 2.916839351830029
As 8.838266940181443 8.089777346818954 8.335796533796799
As 3.5697272076424023 9.784148692508941 3.0370145074633745
As 7.193539246821899 11.016242481756047 7.545937618043066
As 1.6205589843038883 4.889376139700384 7.175180782802373
As 3.0609924598125087 3.8662395606473314 9.899593097532607
As 12.611722396174201 6.14744377305944 5.759611804778953
As 1.2375321226298497 4.931600139529574 3.963303716037152
As 6.774862618152569 3.82953096329594 4.447809695950162
As 12.611722396174201 5.659987195375977 4.692322957855299
As 5.870267089843786 9.19469636791966 2.3547081641700953
As 4.04604320374948 1.1528355823717524 4.590163188355005
As 4.97760020036822 2.6487404769166947 6.251975288347988
As 3.877397272146058 11.007974149092023 6.516611011347816
As 12.148062876463538 6.928687833229385 6.773236617802833
As 6.018524879591337 3.724589871566156 0.6297538508528889
As 6.0754084227868 0.6175887984211796 3.2135097725232766
As 1.8074363602771601 7.227416685920616 2.9657475517223126
As 5.7698853192799895 9.30249216822343 6.418504192934412
As 8.526010248798013 2.6850219421014887 7.964281131581785
As 3.291679016189665 5.0924286451958976 5.367067008947658
As 6.816581038871885 10.412306257045355 4.384791043033708
As 6.992152726804523 1.187556701658398 6.733290433128349
As 4.8159386904006904 7.414989718707269 9.0150722293765
As 4.6547382189574 11.707134093439064 4.224736866263677
As 2.3364446801055525 6.024514107390632 9.250983528014254
As 7.579912465504979 6.669314588499623 6.682747998233776
