48
Energy = -215.22049945 eV
As 6.818784822159127 7.210578559326546 2.4396858446553233
As 6.822537233957206 9.575776467159338 1.6673492048364382
As 9.074307628601481 6.283990178618744 1.944259473837585
As 3.946049239898021 6.1639960018492985 2.303240238516236
As 10.470106864555623 8.220942107160532 2.5294994004112206
As 1.5828799412335914 5.674400118256644 2.922252904377495
As 8.663296129533284 3.5551466163936847 5.171512569488167
As 8.745119653290423 9.868047671002277 3.36816306767941
As 5.354508440408817 9.902879498240523 3.701880996993858
As 5.4515229116357675 4.323730294835751 3.302237025428839
As 7.181239289965921 8.422601552586945 4.672656114451057
As 3.646060741638988 2.857661779194469 4.274794284423028
As 3.4801165841814456 8.079264841911218 3.83351377050026
As 2.509327357401426 4.9184748155187386 4.9718518114584525
As 8.918102519882732 5.9206339624262805 4.428981537749508
As 11.210072398119987 6.808654930741881 4.782180536572958
As 9.55913322006723 4.636887867071708 7.216412535740961
As 5.7720576434608395 11.212063314078947 6.963057995558846
As 8.17624160335054 11.22606234429229 6.757659131275774
As 5.052491805016203 2.6181548679635656 6.324275950479693
As 6.375084189363929 4.682298944939894 5.681800114014215
As 11.864482951729011 4.784474670029374 6.60159766996072
As 4.171251718701739 6.88232174089103 5.955819359040859
As 10.188492196111754 8.644086442837633 6.118395357106255
As 6.444132672472202 2.645383372409595 11.350381296895447
As 12.407152722498791 5.808170609290005 8.790575906783877
As 8.871177120874224 7.4656741105184565 7.910331424879711
As 5.197757810890742 8.82266320905681 7.48016411798667
As 12.148199872297143 9.742393569947698 7.175279499821263
As 1.4124698878498558 4.575218538301816 7.17449168856803
As 5.402161463869267 11.447966576744532 9.457424272941873
As 8.707616824472627 9.90807061674241 8.710435597995001
As 7.075365691524096 3.264575793580272 9.078909783615414
As 2.030295583841493 6.985609137956841 7.417749691561567
As 3.5187886637423342 9.852211089541239 8.979779664800308
As 3.3635307616544856 3.2081659100447086 8.110131134872711
As 13.427056417258287 8.092712121659911 8.589097083697874
As 4.817604347251543 4.9683886416642045 9.094982769897477
As 11.044884374987767 10.599382672546774 9.272189204197637
As 10.279930600280666 6.698134666682989 9.801086082205257
As 8.22560531338241 4.37439667106256 10.932426041806853
As 6.167599710095907 7.707095039781217 9.988999607187644
As 3.881313362437473 8.217274191998834 10.841908960840987
As 7.067577453929125 9.977070476455768 10.616485688670801
As 6.627464234910196 6.096095534665521 11.925884812239174
As 11.851952805738977 8.56722303747634 10.513433241404941
As 2.680288930804805 6.347811516810466 9.703316732726439
As 4.708269871237708 4.546646890299738 11.542922382411728
