44
Energy = -197.67326247 eV
As 6.74859562510312 7.0101652563639805 1.2937445567963184
As 7.422954012340818 3.637456423526191 1.1359724506414088
As 8.809387000456146 6.446738296498142 2.657710212691494
As 5.291556550916662 10.340703974292866 4.290918186535633
As 4.357970856109918 4.75496397491468 9.994144399086004
As 3.5363616401199156 7.199983373189579 3.6018358569284996
As 9.691177544495108 3.5580990514510704 4.987778361454505
As 8.269545799829494 8.404100712015584 4.134743233948691
As 5.7701871142697385 8.052080525432082 3.363285762888763
As 9.450057053220933 6.972753837886897 5.7530418588537815
As 5.897288500281606 2.807752368908225 9.516627802408168
As 5.468208481519714 4.987021063435518 2.0167044046957536
As 2.9014295935471264 9.503480868448595 4.370585545090057
As 7.652775914004515 9.793140455399445 7.944727915104863
As 7.110467320602887 1.3737232367248902 2.19748535582247
As 7.888762826524194 5.271613305117334 4.737372753401229
As 0.7237132162963223 4.3105014892261115 1.6010422636915727
As 2.8492347410658327 6.626527095447225 6.544730241379667
As 5.974670608246563 8.925619491629567 6.257248127161762
As 2.450769162912907 3.192663683317944 0.23294513761990301
As 5.062279538659551 0.9402905712999444 0.785311253248052
As 8.90333734566106 7.615732695432281 8.116705122626941
As 4.415845320616928 9.95510537998003 7.816831319291377
As 1.9326654801184628 0.8647272292281145 3.004085988431461
As 5.923264735916425 8.805407404663857 9.516627802408168
As 6.259923931354468 2.3293701776504436 4.370582533461232
As 5.0447174174316665 0.407129255371423 5.444873674216653
As 9.03464009893864 2.5051945614608666 7.139907502119171
As 0.3938237034043191 6.183846420986526 6.072120602523393
As 2.328282135684217 9.03480266318393 6.840324435039179
As 5.6398465400322335 5.192346637866772 7.374081629191537
As 3.671849283425923 2.4026186939312897 2.1914551937349414
As 8.486939864666315 1.3668029586349897 4.994389883854208
As 6.8854006095375455 6.486748351601991 9.122078704393873
As 2.971579290384348 3.3746577865352987 5.902357048871343
As 0.2399088383825638 2.710425714774559 3.192459109089005
As 2.3571006423481835 6.174817166016768 8.989237469637715
As 6.888455483626232 3.1614210912563276 8.24408724480743
As 5.342637494412083 1.247576336979879 7.837584649907555
As 0.5223632167171718 3.7302875994042566 6.161513368477408
As 0.2454298629676418 5.051766043107184 8.312568320908037
As 2.5975672543126667 0.9561391607960468 5.439160221150835
As 4.214740471841186 4.4993591659790635 9.338535572567238
As 3.1944945896556614 2.511635994110044 8.2290187108609
