41
Energy = -183.57323605 eV
As 9.479148115849405 6.061827694687779 1.8853046504364757
As 8.328892144584737 9.24756391772652 2.93434498347769
As 7.60497770006474 4.491820581853231 1.6062650949852124
As 3.5202005666839384 8.408283937202311 3.6555241167501653
As 6.389567341277548 10.473034676142039 3.977055309102114
As 3.5281808361875218 5.909011420770747 3.159112290442655
As 11.137321359126219 5.147548000481391 3.5265531681233644
As 7.59267028206776 4.047607778152735 4.025212434578365
As 7.451168904536196 6.792261880101727 3.0839137231103155
As 9.900571886223567 3.272018885212809 4.533349528550622
As 8.841740888568122 8.137914917450283 5.114109188646139
As 11.172868051057701 7.232378827798339 4.943146958087975
As 5.498644265963942 8.458120222558442 5.206828576941377
As 2.0700909455718004 5.475037000918921 5.181596717745682
As 7.164134872716857 4.884781098157384 7.215161633504741
As 6.395645861530736 1.956648932352505 4.575264505535187
As 4.581827960310388 9.611352036132706 7.223831612407122
As 7.738778095679256 11.685616482375403 5.686505274102487
As 1.6035534060190233 7.918062449046534 5.1818557048877345
As 4.550440595937935 5.437999288395168 5.366866743769326
As 2.0555502516414896 8.748844078078832 7.4853002251398815
As 6.3273698197933586 2.495605849552215 7.023411557776518
As 6.246528638268548 11.551746018627291 7.660001523101357
As 7.841950182092201 4.186300445861528 9.593238265896558
As 11.14490943443666 6.118794363774067 7.175016721558278
As 9.735766180836318 10.25012695277869 6.14352631878864
As 2.9686147863660075 6.698815610741981 8.290714449596488
As 9.550865970873877 4.136780312264209 6.8845681513664925
As 4.320989478243467 2.9375406030959432 5.532465458317444
As 5.702482424837548 7.910967555447676 8.722878023109992
As 9.597327566605601 9.645072095438259 8.558078227716205
As 7.250527821298196 9.985183804517613 9.328314623652007
As 9.10414324759824 7.233797739157214 8.107970443545161
As 9.361250086646939 6.1155725366822855 10.321093621910835
As 2.6376074045701228 7.120961358160238 10.72999087988348
As 9.589278285429574 2.6476610443659454 8.760245080322093
As 3.4844438596697738 4.817228765387056 11.062246950558762
As 8.18321751910928 7.982729730109525 11.421571221162583
As 4.614021987455761 8.608898553158388 10.873475983404857
As 5.635215987681746 4.870214765193291 11.825697601077612
As 6.048328456808284 7.239081260310181 12.369205927149915
