45
Energy = -200.39716227 eV
As 5.187356863680786 1.4318122077002102 2.6148922517524826
As 6.28900794939769 9.242113633053428 2.450555761241659
As 8.25161967320138 3.0617997017192313 2.710180779816422
As 2.7046601672259794 1.9086947875374043 2.598389259368938
As 10.20186238167363 9.817639259265087 2.781797888764511
As 6.066252762098457 3.7074223274600935 3.0251430238342576
As 9.753883894753827 7.522821332880281 1.9536961082483129
As 8.082890375463034 10.89119743443232 2.103651679939912
As 7.360247173988504 7.060129064227472 2.3924802494593087
As 4.248378726229394 7.8524268919795785 5.366118883140202
As 2.4093642684313035 0.33065114467142503 4.504499265768868
As 4.685489989537825 1.2214371373148485 5.07594650703946
As 1.9359215415157722 8.741251574705263 5.319769467590419
As 9.056708154974377 4.579863947491907 4.445200029577229
As 7.498446542273518 12.30597528226097 4.1126963759314865
As 2.6966051328309515 2.7250160558896654 4.971972251706381
As 9.59592226668096 7.2507150932085676 5.743227195406461
As 7.389821713631338 6.4170697320969 4.823803151278788
As 10.833215630543803 6.257060298663744 3.8207146813021895
As 10.204354839844177 9.616786022597337 5.264168770434881
As 6.190440345900655 10.407030934657655 5.099634091989369
As 8.379822863813546 11.092973928590343 6.0717178155684985
As 2.3533974228578605 6.336327389012387 5.851852298141937
As 4.735117011709886 11.455056674026789 6.933084711556587
As 10.454135458535808 9.053794608286022 9.389385885755479
As 7.947977215884059 3.7052185728754647 7.678784335839476
As 11.352204291932358 7.0652497957173725 8.626934567493013
As 3.420765268219411 9.28691483894619 7.254464161724771
As 10.247003861425918 3.6360484749956754 8.575321498289666
As 10.752862460960136 5.383997845388199 10.34609099151596
As 8.579691902724127 1.9528791814039836 9.323646083452864
As 6.146003215075053 10.233974739785365 8.627138726310982
As 5.489746748101236 6.742271158888621 8.992335404611005
As 2.383020724884379 5.51443141939637 8.236527567202316
As 4.5939817791925845 4.509850610057524 7.872139571241645
As 4.40999032062249 9.940336326258686 10.343760719963804
As 7.808296496066371 7.940346195453328 9.745955688006285
As 7.333378566305979 3.962881444033229 10.082228913476996
As 3.2567749933049925 7.257584497065493 9.93461175306719
As 8.786571933690308 6.425366651804565 11.47810410800902
As 6.392069385620442 11.323049870437721 10.851428068679768
As 9.881546022262526 8.680068903311376 11.805534290765275
As 4.855402247716855 5.807842315351398 11.223115026231616
As 7.361044180127326 9.197220002707505 11.805296872483506
As 4.809481031196386 3.520136488499375 10.144739063127515
