43
Energy = -191.48132647 eV
As 4.470402484758414 5.1504321643992865 4.369043377711077
As 7.245539995167507 9.9399849317344 3.236884162252443
As 9.704753256058204 9.554983204290158 2.613831453069393
As 5.579689346368986 8.580566027680959 1.9736289637222721
As 6.148121562916874 12.1113564003548 4.176180174001214
As 9.074364205092134 7.304223716809074 3.529154209130909
As 4.9631082761267455 7.594177854315238 4.212361583248407
As 9.741497468411376 9.971112188816862 5.106933107120998
As 9.484168862365447 11.825695996890856 6.7741911264780645
As 10.923235042294767 6.703069098497996 5.165793492506964
As 6.693323385782337 5.170799658215459 5.485995480512015
As 7.568881064459884 8.48223388148611 5.282964279313118
As 7.605483145715799 2.921579096686244 5.049569709906059
As 3.5517407199852467 9.42660358943545 3.1137352639683034
As 11.610358235217033 8.893813529796514 6.201101886696626
As 6.987137618265925 11.114049384683849 6.3585440357767355
As 1.5768811946639403 7.118512846203427 6.620623157616118
As 9.56288877116744 3.5855666136280746 6.545744790312162
As 9.340637580799447 6.061717679509258 6.994439517489933
As 4.233666902372587 10.896742295440626 4.949219231669654
As 1.9421276739122504 9.211098161030002 7.931555416988507
As 4.476496835369103 9.31645547430695 8.157312183368214
As 5.51253828728705 11.690559553000018 8.270461347997417
As 7.375088310198044 3.010425529251332 7.549661656334803
As 10.30928942445863 9.912874436507925 8.19361925222017
As 3.5798009346477015 5.654577504843132 6.703655465101451
As 8.032577454510518 8.905618175678649 8.650761252693185
As 9.90652979667215 1.3547657153040293 10.569906885656337
As 5.524315564725718 6.883203335461124 7.701788589103986
As 1.6664795791507978 7.126257838537825 9.077255227664796
As 11.467129870763076 5.935754378033678 8.419289023173803
As 7.970146815447998 1.0296632446400524 9.069349403655881
As 8.234892286473118 4.792911698805514 9.858628137455403
As 7.469374347564503 11.124936049600494 9.69594201645414
As 4.348055916948805 8.830402836344797 10.621988814487782
As 12.138070462811676 3.6056626456935614 7.960825406639947
As 4.772634311053286 6.427445225200232 10.066294122955272
As 7.8153814068715155 2.5655425975749058 11.054137774409725
As 6.939136825740762 6.207678972513713 11.452991400808088
As 6.450005566848745 9.790318003181973 11.587682105636965
As 10.50416214656996 5.34309829500924 10.700780829196153
As 8.31841838940658 8.195220258028096 11.095843344830367
As 11.654485388946078 3.1513266269478146 10.323348055033804
