43
Energy = -191.50489915 eV
As 7.324154285438808 4.9496672194132065 1.6226739691961123
As 6.061211137204702 7.06527240738787 2.5570355595377094
As 3.7093205826630724 8.493878391039912 3.76401581915516
As 7.702424322827615 8.9821747206683 2.1395037457699804
As 5.595324563429357 3.394012638848453 2.5466101128991947
As 8.33487168664209 4.602549904725276 3.823001518396097
As 1.7179459787795983 6.320460604263687 3.7426772049129786
As 2.4821058651447307 4.092576845071304 4.43948376203018
As 10.577012961223936 5.675188934821026 3.437041418801913
As 7.364859509078304 2.213984827285015 3.8687691924036063
As 9.321350798222133 7.825914074510349 3.728123332171502
As 7.107447422499934 6.963188353598311 4.843748723970665
As 7.0900760930694755 9.558393517145275 4.5090383361368795
As 3.0822506065511717 8.647433474669866 6.1598980685639235
As 4.864970461547292 10.734947237527848 4.116297493936864
As 4.90979409193819 4.806765428915176 4.589505022273128
As 1.796938855692482 3.8223492101117804 6.809638499401279
As 9.14361673638739 10.294263987094643 5.937299337931556
As 11.191735461987108 6.134649956572577 5.813855702905216
As 11.160463339491658 8.642811447015584 5.98676126184897
As 6.4532000185976885 3.3385118596934453 5.950191614553013
As 0.765509592813832 7.376371716867045 5.661001482253302
As 3.9427728755547076 11.077401016371327 6.3475345297912
As 11.837586307124194 8.964925385804634 8.402989676954732
As 5.08755829542763 7.630848166274432 7.4707728496261545
As 0.6232249071454535 5.820466085749733 7.4760964970477275
As 7.857373658471088 10.513919752947745 8.056937734436602
As 9.165640448774385 6.253951707967785 7.5208223215293515
As 12.704055335623794 6.755737602470516 9.189437920461812
As 5.381540860818329 10.067903556041854 8.12972699168683
As 8.057938130245672 8.20005795904714 9.08088217519521
As 4.066066225387653 4.546724267102784 7.648799393179002
As 4.972011754121018 2.2008663623041436 7.648043522545994
As 10.119448370748698 8.923010161435736 10.252459631891275
As 7.054379586113013 5.084329183103161 8.52221283111554
As 4.184589046306387 7.485575746444583 9.816838903148765
As 10.757013563310313 5.229533236686997 9.127949838834956
As 6.811455568236664 2.7020578548295426 9.284649638558884
As 6.366274293809969 7.760666038013009 11.060711642925803
As 3.6141101183245343 5.0338149838345 10.041029467256523
As 7.4093336610164116 5.5260046522252395 10.968955568314811
As 10.972300463787525 6.726176323799321 11.06643671922533
As 5.55884029118849 3.860761333067873 11.140639099991784
