44
Energy = -195.62318259 eV
As 2.576665678773639 4.46046164808371 9.988281050611246
As 1.938638172537328 1.3368820188486645 2.6733555712943233
As 3.9012041250658527 1.2223368666045773 0.46533142810686734
As 4.230996234428218 3.5344843393163146 0.7348763137012024
As 0.39247473572701486 4.63605913112071 0.34485139111474944
As 2.9652598912805055 6.8968468474158895 10.454093837562562
As 6.148899869522616 6.671100573069568 0.7893712031881095
As 0.6668830673242794 6.970664631591931 0.5895995626632212
As 8.768596930528412 2.038962295523466 2.479164341767503
As 2.779763038943193 3.67133300828248 3.0983528592626013
As 5.530379868178122 0.6442960854482871 2.2866347949523376
As 6.610636186234115 9.209125398505835 3.1907757967155326
As 5.079880003481405 8.909744199851804 1.2182453978986785
As 1.0983716111799824 1.4749803447209047 5.234728001015957
As 7.725362190888904 6.998066223045057 2.738158708647889
As 3.7583343290242244 0.3756236356416578 4.058349908370642
As 0.17243707394726338 6.970365516993037 3.6526003388073454
As 6.511128190444951 2.782319639854652 3.2230012383318876
As 0.38899061232124865 4.494704279890717 3.275901368808484
As 3.954336842975956 6.736642921742481 5.3337976604937865
As 10.404401150559686 3.3364786635320893 3.951502477720378
As 3.954616192972655 6.826165980340196 1.9108895755538358
As 8.963317108559375 4.759254851392732 5.381574369842561
As 6.748674219065692 5.722586094266037 4.669553735476895
As 3.3085307322148783 2.5700191627306324 5.334644800043008
As 9.248214360444246 2.403512204514705 6.0158429863171685
As 7.415036961981467 7.771199301870068 6.00251025452501
As 1.9148557596873161 8.169144396252847 4.980568754599244
As 7.701015040270549 1.0226031346060513 4.497531564244786
As 1.4602695036172446 4.837056375314169 6.579875584066136
As 5.3110688852303 8.893828106145072 5.29548640505956
As 10.50836854790783 3.4935119232201455 5.46461730379708
As 0.16184620198643762 6.927522248616822 6.21144503791309
As 5.713775315923698 3.0913243149458083 7.031277674667694
As 10.038200332883505 5.536341486709625 7.5051476349666535
As 6.59880813928701 7.259444343588681 8.247124138357577
As 6.283376146171717 0.7948442909389742 7.797684706034743
As 4.128106205993055 7.041019955236871 7.896125706251974
As 7.523786467263541 2.721232737947494 8.842828230860032
As 3.740453198575875 2.8979533194524905 8.560622113885014
As 1.0665447950543971 5.130002507670557 8.967400742759567
As 3.4312902301277326 5.19154091112182 9.492054906005269
As 8.23947009093937 5.555258092271115 8.989110946126724
As 5.537734431382237 1.7719818605780784 9.988281050611246
