48
Energy = -213.19509915 eV
As 6.599234488217909 7.712651345011395 1.8627241368225558
As 6.917560967298065 1.890469493135669 2.554991111732722
As 6.99558402562161 5.4809388865188176 3.070979629710654
As 9.269080609486595 4.935529263886591 3.9923491535828406
As 4.528228338275333 8.36963289922633 3.6415407268657027
As 7.948647400479952 9.612845100250476 2.101008799990415
As 5.324926310967781 0.438821535586963 3.793241263690177
As 4.583900095293434 2.4795872771261864 3.0195946683898507
As 6.155279014914751 10.808015097932747 3.7235205963884264
As 2.647583301953744 9.898870797538244 4.630394173924979
As 3.7813511239971365 5.959633696073208 4.0924019045011635
As 8.428492417498578 2.608136621551753 4.487632635626809
As 4.204300224280451 11.622772171634045 5.3697805554789415
As 6.000075941344118 5.968439436201651 5.272577190859901
As 9.19371065025706 9.904951156384225 4.435644299029848
As 5.922776106906702 1.1011245330545198 6.707726099453274
As 6.264324108460905 8.741065527535003 5.3334368697328385
As 2.1442411959857344 6.321736311439826 5.95814466933662
As 10.251579823528052 12.420973121559927 6.517870688154004
As 9.090722159245566 5.775123767115822 6.373312742693441
As 8.088814702390335 12.09046232660698 4.847253256845007
As 11.446176001377838 10.480431307552747 5.544448848597235
As 11.300608325903193 6.823018250426642 6.07211796655377
As 2.3790999359315115 8.686233996074252 6.767809600076298
As 3.511583396773527 1.3780945509226623 7.217833087581795
As 10.118736865296382 8.745858523602918 6.7385979047769125
As 9.170255977090163 3.4806822321340425 7.447660578471372
As 7.256866308168136 11.244788360827508 7.101977387926501
As 6.895684480884577 3.3806478224059133 6.314981654225442
As 5.138430666182016 0.6533633971848505 9.02742216749144
As 9.052870212439295 11.879753506373048 8.538663484570842
As 3.854901166319225 5.42910148757645 7.567076012923666
As 4.717803511305498 8.717902063701814 7.545639994891098
As 2.8876641369399136 3.3578763242480827 8.670280398522964
As 7.264097773457815 7.796363006256843 10.614480279940372
As 8.588905827387592 4.105695422031591 9.867920891195144
As 6.287395617365337 4.5503471217355225 9.127646001926523
As 4.7538442189962895 11.208140678772883 7.7670140295614285
As 10.82721462051718 9.659691622608115 9.77619746452424
As 4.810731827690195 2.8489857049300524 10.22041708182562
As 3.622097106901431 7.0971208379702615 9.410232422433108
As 11.57510159468583 11.25676429976288 11.483066735694745
As 5.4375068148842765 6.11350829725466 10.856067046897314
As 9.284124556971959 6.523949187924716 9.91658303872338
As 9.188760052139193 10.459866364616815 11.481851374382009
As 8.676306459982685 6.692789057204137 12.327813703720446
As 12.000500932563957 8.81812597170043 11.89762511721792
As 9.883004495298767 8.739806128688242 13.183136442396567
