48
Energy = -215.2395682 eV
As 8.995211330560958 8.371500188984813 2.5619354091242696
As 2.4035794249100246 8.558587407110945 2.8894234374468306
As 5.877877021328528 3.486540678943962 2.874333586892067
As 11.228462474046315 8.638891945930405 3.6473748129639416
As 2.819683137431283 6.076307754015556 3.2248355368342785
As 6.160151894824498 5.786551454439343 2.1121522278670435
As 7.927718945851298 9.675262719538287 4.392114324290966
As 4.729203900044393 9.251677603778948 3.54848922040383
As 10.221938987927329 10.789667015253706 4.474942939652553
As 8.597584747853059 5.898891625360495 2.5904601334953337
As 1.3744516512876588 6.136526069782814 5.288711414570835
As 10.692102344280395 7.513035713002658 5.767430433096485
As 1.002286949853953 8.611559544026798 4.953938512607642
As 5.144062110723421 6.8048760071568015 4.140484843951032
As 5.833507927054435 3.757578718546305 5.2859985342869065
As 8.458337905312774 8.396524603750674 6.529678496854903
As 11.058850794284147 5.157070680860863 5.151063549239638
As 3.5270694825214406 3.6259419379301674 6.3010861404104155
As 7.144445596450899 1.8650561287567022 6.100783085444682
As 4.6866960790846655 9.880560668514539 5.96014845417495
As 3.407943714927959 6.092117714620038 6.732507805493147
As 8.64664424494924 4.631988324288243 4.767515904992661
As 2.366538706909304 9.587206633490448 6.758246852328199
As 11.969556120064663 8.90207312804849 7.450350941218842
As 6.360652532100404 1.6350119013675155 8.416974478969419
As 10.087674974398215 10.4201306899928 6.9619831627431505
As 2.581205546172018 13.018432718739374 4.640953743647339
As 11.564882848691468 4.261658073280068 7.448682994817317
As 1.365748207424362 11.82847566308458 6.447644795004265
As 7.0315614400871524 5.933469560312375 6.210535648556306
As 4.888563039479689 3.66485266793324 8.363776214027299
As 6.652069015567632 5.567005613432291 9.08489973935352
As 8.239100363926624 3.194733434697178 9.175445102544344
As 10.10947538216328 5.596759241708274 8.971504346353592
As 8.670451066023528 8.849568232205215 9.5706771347892
As 3.208225390057278 13.387235564774972 7.003670026993386
As 4.8101369822311275 12.297803783702767 5.459908047320948
As 2.786162526983098 6.312052911385159 9.200870396207891
As 10.978959560305091 7.971553743969092 9.581013114473455
As 4.947030231525621 7.519273236192546 9.143714640245996
As 3.4429811697667234 4.130589079226528 10.318205099254522
As 10.11756579732305 2.2565557378521053 7.802467892073896
As 8.07073044472056 6.9355634015767995 10.883964233198464
As 11.165690631026433 4.3734059568533175 10.925829846600944
As 5.603267096176771 4.753582129629293 11.36081561714596
As 9.409528722491963 2.674731478429092 11.37241037489539
As 5.6356036609683695 7.267738959651949 11.523410642154928
As 11.399744426924888 2.0547385028872633 10.027552660002828
