48
Energy = -214.5085597 eV
As 5.419884745797402 6.418817739165043 0.18504974196802973
As 7.591049391339234 5.502578394220747 13.286539248166678
As 8.856185806601696 6.939824597121028 0.6806770075598365
As 6.879729077966666 8.376682306227844 0.9247658712090231
As 5.221480442869414 4.547662313628168 1.8940158693192566
As 7.28845376451095 3.0832780169396536 2.0055069302486186
As 9.163569519402985 4.589548705474665 2.695335615045985
As 6.790721252525913 8.958629370542004 3.4097462164924095
As 4.370330924136895 9.580205031530507 3.3931854942669983
As 3.4472208342405013 7.206937410802568 3.2417168071285003
As 5.7463282519445595 6.26475362682914 3.541430029604222
As 10.116287352153902 3.549176698110595 4.748233175592991
As 7.64636361639941 11.364288705913314 3.8371526011110775
As 8.756465466110148 5.573521383524948 4.986934520288126
As 9.690394751817058 10.803019376518225 5.032162788412935
As 2.606758684048559 7.710964725479501 5.5621318319788084
As 6.617561744026083 1.6469869626957265 3.976296639665495
As 8.678219023564935 1.574103173820154 5.37781222058939
As 4.727420128451956 9.04005633276961 5.846038355159633
As 4.862350519965517 2.8320841504537495 5.372926466470573
As 6.241901399226314 11.600333280985506 5.871748515764629
As 6.234612867701109 4.884241609713987 5.588032215311303
As 5.515424731377778 5.940623845926251 7.7359681704462
As 2.9905170058082335 6.13729912500681 7.423180742864662
As 9.941773771024756 7.834526294330215 7.79822506344418
As 8.202475847571172 10.62231226151574 6.887646451392782
As 3.7549056635694407 10.116547983690804 7.8954418278049125
As 7.700433037872273 2.88752575931436 7.258024413910262
As 8.642382545928115 5.80590386303322 7.996888421882816
As 8.932018174366627 11.285087124229513 9.236952919617247
As 5.001344702845735 3.864706977644594 9.061437840905361
As 5.952972164188378 9.245412647049122 8.733879790923387
As 2.5286683918773307 8.135796808184837 8.878355457827652
As 5.5065693442303685 1.866305601375593 7.584738049286249
As 6.495674729455755 11.432216139272144 9.790635940968905
As 10.447938330431954 4.3944287855526944 8.963744368808445
As 4.599199522882687 7.89889598535861 10.449712633646133
As 11.069527590458856 7.759407126087315 10.052510791106453
As 8.870517150440573 2.491129423964824 9.441085473239403
As 8.822962590548022 8.867011266062432 9.935037692585576
As 7.719860855982385 6.096568690993549 10.465420885009088
As 7.001428925682368 3.690011162078588 10.65282218455684
As 10.11335430457719 5.655216664161506 11.094954030706655
As 6.492135546740854 10.854635272368077 12.241370063607723
As 5.019891259919273 7.410372743528643 13.286539248166678
As 8.358757489767765 9.294838816064942 12.576815646308024
As 4.365828659739706 9.563758910193924 12.2946223750944
As 7.372808561095532 7.174427273728801 13.110680586311908
