47
Energy = -209.93692968 eV
As 6.249254498117279 6.267884189180227 1.160625146211887
As 9.3366557200926 9.241021878361922 2.7684559225819165
As 8.486139377500482 6.946414641546861 0.5895762211274868
As 5.6150999532923755 10.304303599444387 3.1599955079123347
As 5.904129595129885 7.749240751321317 3.2478237691042833
As 7.947409248471513 11.245594283610352 3.481180436048122
As 6.6458233753989795 4.043278481049 2.243422053465994
As 8.936901553190118 4.133623983207478 3.187564244712867
As 10.083627314832913 5.6007783565914515 1.6083916224646404
As 8.000286840940555 8.073877355729362 4.481132577387717
As 11.272097174124674 9.143939811007348 4.392680568711366
As 4.788831252620078 6.930436923828048 5.481744698233731
As 4.70429357400385 10.62688731388155 5.4957457102706
As 5.192293840229636 3.3152344622146352 4.23878832274519
As 3.422463187309935 4.941737133640545 4.883863042961516
As 11.239609938806367 6.634794169007727 4.831294731380764
As 8.852383934759256 5.832266690130907 5.031154987475164
As 3.150064242861383 8.702320902988589 5.735688672400423
As 8.154166243368657 11.432142718660495 5.976219646339358
As 10.412066459258407 10.41292927559822 6.39603406900545
As 7.102894313313503 1.6901438883989035 7.4920487536047675
As 9.554812534625135 2.088033327822839 7.903979717707352
As 6.6093724362443 9.629003550346951 6.796244382179571
As 6.991072794790967 3.6620557377089065 5.927080045030916
As 3.4934004820034374 4.890071211628334 7.440585384704473
As 11.939258828977202 5.922764080867181 7.226733279632523
As 11.328468120319357 7.752837066928985 8.809842061001524
As 9.32831731348722 8.579031328002122 7.630527266792421
As 0.9768493343679563 9.329339188073984 9.301109480382289
As 9.779913813291294 4.621856916577346 7.659578254383969
As 3.740936442752047 2.9477728106882317 9.153765428728557
As 3.3010352168371417 9.188294027303781 8.544877908073301
As 6.198082296885222 3.1792831369516743 9.277548277574288
As 6.50165530851776 10.555682350033642 9.1867822438173
As 5.986030398938539 5.198311054745172 7.659299053362882
As 6.424900054138047 8.103646970010729 9.939129201340732
As 2.6378541669217235 10.123615388286632 10.926522594161595
As 10.066867547946917 6.746777060232518 10.746779758682605
As 9.006972241115557 10.316101853671631 9.426884301598086
As 8.27956950835386 5.288790907037365 9.732453778395168
As 8.50557330172723 8.65996882504345 11.249689237069298
As 10.074827928938415 3.485901086207308 9.896525714641227
As 3.64674615870559 4.7977590209295835 10.80334159707282
As 2.3410822435070084 7.063434551997034 9.520665180852044
As 2.8566912565065667 7.816994835858517 11.841897565781633
As 5.3304459731614635 7.723290587123838 12.157523263496607
As 5.864245036800666 5.322004694006992 11.61867669687531
