46
Energy = -206.54074393 eV
As 9.022994721208002 7.918539122723519 4.16421609245336
As 8.244723815362503 6.83588594679728 1.0050101873682817
As 9.893093897145643 5.699360629950585 3.6050124633838805
As 7.613798197832816 4.886453738175806 2.5069009177329185
As 8.367404466483059 2.7588518496530443 1.429285034223628
As 9.263636733395488 1.5339164379789165 3.454300103912109
As 6.134426285356429 9.137841166948713 6.330759204900705
As 9.798112308980219 4.870411886390453 5.950482144393314
As 8.400607594843352 8.15192990428485 6.5837633921990655
As 6.345544158982549 6.5759426306731905 10.912242232636956
As 9.058872711011116 2.5013119235373598 5.741856216484721
As 6.83112320149745 7.742434790886223 2.833827796334828
As 5.703706305266105 2.53122091892907 3.746801896682383
As 5.296994535787707 4.906723969303517 0.7515573675284513
As 6.2059377125429 1.4223533307793688 1.580062159520909
As 5.59711643989483 8.10683711092372 8.608779698288826
As 7.603618530442162 6.5918232107781565 8.440055073059156
As 5.104144675951966 7.075150553631462 5.320192053637277
As 6.339246255849294 9.988808332491788 1.9121095438443714
As 3.652838699842324 10.991488033220218 7.541896258269096
As 7.385752863141516 4.348708539229438 5.693434841553261
As 6.722631346302378 4.315824213288662 8.09405655283142
As 4.393139662791006 6.872960368683775 1.8652450177295852
As 3.9575608506014563 10.076271558282468 2.6438859019602003
As 3.2343857347197953 3.925309800123225 5.735675572001371
As 3.583046708301913 1.4361179513524847 9.020233170146943
As 7.040642467660802 0.44667023280145424 3.752960925220073
As 1.3487640785533384 10.430895369940632 6.771679297851251
As 4.82118831799359 8.810334418977787 0.3396571628883772
As 3.760183338998278 6.9033990649187205 7.424846755251764
As 0.7292603376737493 5.556889228534023 0.6276217833402206
As 4.210081782767371 4.51578229554087 8.016759799655834
As 3.853478601185683 1.5600570845638606 5.134783869711453
As 2.4934923122582333 10.80596525517919 9.794813555738353
As 1.6074163960747525 4.888146985245886 2.9187332623394737
As 3.3120843939789344 8.087857838336426 3.8739144290490515
As 11.402827637768404 7.690110136946549 1.5989238525993115
As 2.2278142071927944 0.961292822867095 3.3597928727347224
As 1.2750431605119288 2.2714663544942475 8.955599729331583
As 0.3704231105923763 0.07932845303957901 4.796336017619466
As 1.0366322756991706 3.720486434749629 6.879439086655276
As 9.893093897145643 5.766156379427826 1.4518414161005924
As 0.43267823181583304 2.6918180686030793 3.0354689911368014
As 0.30702596165577734 11.507285822509132 8.720089224425315
As 11.074541563826001 2.3960944873288597 5.372308929775109
As 11.09256028315091 6.219259638557453 3.598659279405386
