40
Energy = -179.36679729 eV
As 1.7112613116397573 4.9531425603149515 1.9100765111294051
As 3.771608700411479 5.107303877953183 3.361736447188338
As 6.746169630935935 7.880373205977244 3.4140622685731445
As 8.870368575967136 6.618302418545019 2.940712398513829
As 9.471755023020343 4.7982282677298045 4.550792970165434
As 6.1499400429296704 7.989805802777969 5.854026164675169
As 8.08231612710241 9.986412634475517 3.161941095554247
As 2.2414881223692533 4.8678408038660175 5.34748645883087
As 2.6103429294784046 7.154661468984802 2.530919255231986
As 0.7222761966090979 6.1924719047005 3.8394728971590246
As 9.820271337023101 10.02485611039719 4.906845041890989
As 10.256802567652857 8.699133276609576 2.879550718322452
As 8.271180453076619 5.14191014390084 6.710868865819261
As 6.477336527843264 10.568758206528532 6.427948052907503
As 9.32194880555296 8.201657257987119 6.557975669114235
As 3.713636063009541 8.479943970356379 5.679598988789065
As 11.693374239438805 5.215838154161201 5.623842184359186
As 11.742645404311252 7.597967050948976 6.478801990129604
As 5.926088273322796 5.333688004775027 5.902696157342442
As 4.050558132973047 10.698744059389991 6.910740078954272
As 4.70356934302622 5.31493588945345 7.96232696453928
As 8.945534385945203 2.7530359390071033 7.250571556813546
As 7.093013943067592 9.849392115547682 8.687080939398276
As 2.781826246390777 6.606516630293794 7.072741521172385
As 9.610386173129012 9.949620427834901 8.3605742435003
As 5.770632390031064 7.488038464679293 9.085341918601442
As 11.312459743482272 3.6106599800119787 7.580992336997287
As 8.254924789887147 2.2727824578411187 9.51079932365468
As 8.270340960592046 6.15020130876038 9.484367072693754
As 3.8459340945294795 10.79558254851315 9.443705792488462
As 12.282163220199468 7.223579994055474 8.887013677268872
As 10.695070173895257 5.393115198671302 9.177985315264719
As 10.885062342736324 8.828874124709568 10.232037947229454
As 6.120347148858475 11.424542713740141 10.312644934414074
As 3.610420036841203 8.422740609253772 9.990462260509187
As 6.552874657423915 9.931677881682555 12.15307290189208
As 5.3754834688693265 7.9216426036481495 11.626339129227683
As 8.202322561595375 4.143874758972697 11.013113723880586
As 9.354872920688837 7.254940894806623 11.485344255171148
As 10.605926574615069 5.077739918608811 11.617923611105478
