48
Energy = -214.8576912 eV
As 4.523341344920881 5.809848201107052 0.8426965073688184
As 6.517755341446669 7.326671714879836 1.3385045704252494
As 6.039890711113701 9.6849264132784 2.0832545333670724
As 2.6285714429397897 7.015504708872731 1.8789294699110541
As 4.0193655138476565 10.204134823528317 3.5588040473781613
As 7.972909204485153 6.327211799938594 3.1033769834502354
As 5.010745402453095 3.9025447939232913 2.3613986454490803
As 9.447003261908439 2.060056563389231 3.0428506538223554
As 7.496239000233336 0.9296500717522329 3.4215137374167943
As 9.561355721530848 8.26469723920648 2.810720861342849
As 7.7945797694589665 9.778568483241935 3.837127689821163
As 3.859780954055021 7.737490661214391 3.8998443469187913
As 2.975621753686937 3.427348036561824 3.7034444738092267
As 1.4456679025037036 5.382822164129746 3.3641113689644015
As 6.785912111200464 3.5100574653334875 5.50141001977735
As 4.7964783683183985 4.770249315699007 4.679764022009008
As 10.568697698144497 2.4379940930021244 5.179819127342436
As 7.473209791488607 7.663077579409001 5.198976173395558
As 4.978482633187741 9.988433561004745 5.831079876845797
As 6.940487445604597 1.0331962613228414 5.826512377408079
As 4.720635874519415 12.00322243498669 6.917685365189819
As 9.936991673473134 8.301494831006995 5.3330768023049115
As 11.393317748493672 6.340394470369637 5.97426566881577
As 1.7539543588823623 7.159344290604065 5.16071816414368
As 2.0114955202279945 4.56358851576879 8.049006138049847
As 12.947818813096172 8.495999142069927 8.402548945918594
As 9.503492127882273 4.661505707463474 5.733243049168938
As 1.5797507478793438 6.885810087453827 8.828425951027233
As 9.332676222042506 9.881617703585098 8.215542357091426
As 3.2833323524741536 6.425270258740498 7.01159204619481
As 5.932844412596545 8.64043006852427 8.486200632592265
As 6.287111851289858 11.158560389802602 8.646478014208437
As 9.16058838721165 1.3044685632863227 6.892500248087516
As 11.42927174342851 6.569324177583875 8.456744604508657
As 3.7517770470544174 9.418740812986544 9.526939663950227
As 5.542209213355522 2.5922325137020965 9.05391940650843
As 11.737494995343337 10.412327988332073 8.272340479200253
As 6.757996864483099 4.398473944137541 7.819851278929649
As 3.5654961981740545 3.8919069666246253 9.898976848005102
As 3.020155173576446 7.372122564197467 10.841076050544467
As 5.287873368212556 10.807195834576685 10.948777903871598
As 9.11773674370782 3.6038763751299903 8.012920122586863
As 9.22500193708264 9.14154175260642 10.608236492615843
As 4.890246111549361 5.961345866993002 10.026702832717646
As 6.731874537302432 8.737804776512082 10.886401232188016
As 9.140881984707073 7.478168052981295 8.755297128294634
As 6.623867583623382 2.9876011029316123 11.287548163408792
As 6.032676366662265 5.085812187107892 12.02351025451441
