42
Energy = -187.56871093 eV
As 7.909436377816698 7.420932199078255 1.863568972435558
As 4.0304445850731305 7.890987558278337 2.299900732179062
As 6.162485480560329 7.885922442195923 3.5759502777549246
As 3.698380477572975 10.358525828431729 2.689896316175521
As 9.80340671676052 8.470141038107117 3.0897817693847185
As 8.275994605499305 5.166281831595664 3.0090503921629557
As 9.079299525633566 10.827578731862417 3.4505700049047556
As 7.667926684041834 2.429300326790544 4.527644360453104
As 2.600569690947307 7.770110334192892 4.398125323292274
As 6.482582640283564 5.592485341733677 4.875418635644524
As 6.605103885401963 10.535129927085672 3.648561284649008
As 3.2197377425346994 10.075942285117065 4.981991401966694
As 10.305567615461655 5.372427956879516 4.467722119233885
As 5.378100074303538 3.456137499568528 4.034401721510062
As 7.39768400517728 6.046974281313906 8.741845983168709
As 3.858467969224563 6.385616562080448 6.085654749297234
As 9.240482695986278 7.509890034882729 5.328348139820488
As 5.967479993598997 11.595769041794167 5.651458738322592
As 10.035938380349002 11.182102305366707 5.7239462928915685
As 7.961387356386325 1.93871152599063 6.949894214052308
As 6.715984068960748 8.011762840305058 7.3479063261985536
As 10.925955267325694 8.958880728676256 6.479802008494314
As 4.437250887095278 2.2624991976037565 6.038829469259573
As 8.609256439572468 4.23785542008649 6.043472576455994
As 6.024694053320279 3.469969966639205 7.4470947304438875
As 4.235535762892735 8.198850749511829 7.741829510283742
As 6.423910176298112 6.432693177821719 10.995699872088547
As 7.9906045442172795 11.752477614228788 7.036787907634054
As 2.0307000209247503 5.486397942999808 7.580563725711388
As 7.459738260852042 9.948409434762086 8.762752138648663
As 2.746451514442216 3.1014229948740573 7.8213529619824484
As 9.774039589344884 6.536444073478199 9.255209386900756
As 9.822764398040835 9.122175667806633 8.775327338060485
As 3.0368343354927303 6.751121679788182 9.451627451181055
As 9.62391648198913 4.139540346723607 10.676035341274735
As 4.610012317937017 2.961436977726278 9.46204431922851
As 8.325818381188174 9.352969979488254 11.74850521850394
As 4.3186928846946735 5.079288723279071 10.758789055493668
As 10.593118342003748 9.8171466543318 11.160572838722722
As 9.837500833690738 7.462591402324368 11.635827304632521
As 7.49225286881652 4.343637316196987 11.92610704845404
As 9.6843138622394 5.061281852953788 12.859953834999102
