49
Energy = -219.15478909 eV
As 6.263517209450329 3.8130544442964838 1.0947094791443643
As 5.85639685320185 7.5302057003548954 1.7846782638544838
As 3.934086317124711 6.464131810790601 2.9047082132733273
As 7.664966774381636 5.665026212997982 1.9427905320484027
As 4.115246580207456 4.072319601162321 2.2851539937481666
As 7.640131623278109 5.666303786977703 4.406872116236902
As 10.040817986657078 4.646778263255574 1.5068796318120292
As 9.091649279002521 7.629337106734457 3.7485583102521196
As 6.619023373448761 8.840515113754195 3.7279927081413
As 0.9629419916109293 7.6744326200491 4.216357024637719
As 7.373583674631364 1.8303352794412433 2.0946505915774685
As 5.11916818958802 7.618186082481695 5.339789820845883
As 9.540451651652958 4.145642840186787 4.926026143487481
As 11.00398527091803 5.622607699360879 3.527016593281634
As 9.615093254071924 2.6395017089157227 2.9044667365408223
As 4.208477592068642 2.6989010115634895 4.406773435569558
As 0.26776799348899744 5.743550609333943 5.2263037248015305
As 1.4308052652954706 9.329696246696672 5.95721321599507
As 3.8747733168702636 9.805830798635014 5.741435155603345
As 6.145820606369428 1.1771502962267608 4.186051731705411
As 7.207822106583615 11.406256902460244 6.700567571329888
As 6.603374282330787 7.207827195708516 7.37588696733485
As 9.109596577305359 8.268669448591368 6.181124448154959
As 0.9611002311655908 8.16784386931567 8.10596513645176
As 9.545168028787675 5.955831409341978 8.740693199325852
As 9.577464450674093 10.775819288351945 6.195214731257256
As 11.146050095789413 7.327259347065273 7.312030368172084
As 4.093660289078884 10.313853615665755 8.155720146217943
As 9.306670105144265 3.495235361620392 8.419001808761251
As 7.279469221424504 12.936143217773813 8.541291615713442
As 6.291031965654424 3.2032310679100107 5.641370053970038
As 4.321075203865009 6.451911862555495 8.590238845515346
As 0.8773145576510702 5.7439440712210565 7.626942682493274
As 6.479642081131632 9.56462697190893 8.26287121604796
As 3.1613678579841857 5.146245040662689 6.800062784242763
As 6.871679802348017 4.197653025636686 8.889550364409109
As 10.697487825018793 11.077709773285964 8.41271845795299
As 9.923845101576438 8.794602607650676 8.983985541016398
As 5.686399317407847 2.2401164801493656 7.884471668475218
As 3.053180646414969 8.416619399610413 9.41296795635423
As 11.022242105902432 5.819779272127875 10.729271917058092
As 8.926231490685618 11.916915136209315 9.970136885006506
As 8.298119483312972 3.353101149962152 10.715677880610796
As 4.131816759536629 4.722133215496094 10.269151296195107
As 8.935112179816986 5.453820897690592 11.981391434326312
As 7.341292241676927 10.025521800638542 10.608793798949508
As 3.410247401551339 3.2246248858398365 8.45403340917102
As 10.737704911703288 8.280350958449375 11.282435746969888
As 8.336587199405617 8.000303818131824 11.929462970205357
