41
Energy = -182.7210878 eV
As 7.623945465262038 8.342270484590093 1.7772661849033098
As 8.794478667908312 6.159207794169909 2.444897030882885
As 6.836456477416094 4.465117034705344 2.68543578666693
As 4.736670813493272 5.853401042860118 2.5800353557427633
As 10.86646489976658 8.334351212038557 3.4244111973322138
As 6.047613007972062 7.69787752615246 3.5254576274496614
As 7.9731889004295695 10.491035079564643 3.1330898002024385
As 10.208652433328185 10.594311045020552 4.306175220819873
As 6.018027149778273 5.974966272122068 6.112298295316883
As 7.4705378729174825 4.1994318837652305 5.079704423037833
As 11.733435956483026 6.54654394865966 4.941401607916463
As 9.268802035846633 6.946802378047106 4.771131685222525
As 3.811471505079976 5.729509528523647 4.910243750411204
As 4.477089091774612 9.566830684834201 3.6806579772191297
As 7.034441111437949 1.8837709851355013 5.872742757570829
As 6.240680627431552 10.799639186789413 4.987391500402052
As 3.0862490774415647 8.172808569155816 5.282611984910479
As 9.406435016718694 9.78739770038937 6.48648108382166
As 4.931479363043048 1.9618765428424505 7.153883713327056
As 4.3194382877688575 8.194708216820194 7.428646270529861
As 8.944492805294558 11.817093388889127 7.786258979483512
As 12.38347991278977 7.398887259552794 7.194283855292656
As 11.590474768005468 9.742412244903928 7.618716047164116
As 2.6301615221181445 8.929163651874456 9.189491470012575
As 4.185959206528268 9.472409418857788 11.111714733262293
As 6.610008746832141 9.070210390532102 6.786458250807184
As 5.659805204281729 4.193178986797048 7.923065436582632
As 5.9406862272795475 1.7142917988749606 9.511592295081646
As 5.634523542017146 7.627833372119413 10.185171741384544
As 8.433633947294487 6.592142311520223 8.516342616171094
As 7.82313530146485 3.1344090812277856 8.550622804224483
As 7.131446187490316 10.542415326033092 8.782891336857594
As 10.944112664158759 6.488865167126094 9.04110117477707
As 10.891657411649955 8.877143575820872 9.882189312804147
As 3.281227265137674 6.6177039315987995 10.006321588310296
As 4.5719175529806035 3.7896693190269675 10.169416399516926
As 8.404639090891829 4.8658719717798595 10.407739827555869
As 3.401727591551822 7.404246339023368 12.416144106523802
As 8.352659930372377 8.621161156475658 9.98338752667485
As 5.877941124200557 6.837025305996853 12.50176557402113
As 6.330692798495496 4.471949447914757 11.761302231939155
