44
Energy = -198.77792716 eV
As 6.70751198062623 6.415465809460536 10.702648998423982
As 4.9779684006176605 4.73322642891519 10.051598127488402
As 8.168407786251395 5.504671908544363 1.499545575506646
As 7.646947167548147 3.122781836422789 0.8807696016903431
As 2.8078349746858238 5.787875056670728 10.696422682633157
As 6.287349135585843 7.827436905301099 3.9460104257157305
As 5.595440558204984 8.248414532441302 0.8303380225831246
As 9.472460503270439 6.540862797038954 6.140129859910211
As 8.513721263661546 4.600326758067251 4.896596124553417
As 6.817550590578741 4.133510839059343 6.671503822488045
As 7.631721715456092 1.803662051971691 3.0123432692586913
As 4.986989438452051 1.0317811078209895 0.10604895951149525
As 5.1912407039812445 3.334645239676219 1.0530037101996625
As 8.234843255510269 8.581171515119538 5.351128065036111
As 3.334100399014187 7.971386035875831 0.6229188610621238
As 6.076524633052186 1.7750656805368243 6.293005439724675
As 8.408565833968833 7.213007383835737 8.319843264977079
As 6.662009252495107 10.954850288640257 1.6708261789337164
As 6.638764366655368 5.43168443985236 3.452631673165616
As 2.4686979437830034 4.797879128651774 1.9265303914307952
As 3.363252719827752 8.6702753349142 6.568692419725379
As 6.582689986623123 8.504378114603695 7.288026768146982
As 10.708157096415169 2.5194702916856437 4.835771489030277
As 1.4162615006252823 0.9729532235296368 2.59906188570038
As 0.16910634212074047 2.340794705510308 7.323111046420605
As 2.253862770868539 1.1796277039297645 6.50628619635022
As 11.028106690973544 4.835819749150749 1.8850852518565304
As 2.1470974837034222 5.396859304322134 9.191923296188307
As 0.41785613556302287 4.802103786859527 7.516936663618525
As 5.634550906565161 4.219768524973647 9.94223645702127
As 4.19159400901097 4.753735593934419 7.905240869954576
As 7.724095288597197 3.3445113889894706 8.871776957482343
As 5.273562767382635 2.1887205210078644 3.9405716618694773
As 3.3827637420750727 10.838975979620336 1.5960987136891978
As 2.130737123022317 2.5418556818507625 4.408869183384827
As 1.9565152165146373 7.813225993979093 8.440882281480652
As 10.473362461543562 4.964855001789672 4.35433744108899
As 4.090521492305666 2.1744544319827512 7.8360190505423
As 7.737901626123462 5.524937269271798 10.0515981274884
As 4.941475377052973 10.770382995386667 3.5235295861593388
As 1.6038314967607434 5.461814032663478 5.431399696022627
As 1.2076010356216709 2.857866874982849 0.9662863380410663
As 1.0714964998917598 7.831276308549243 6.094397148895221
As 5.086331059721684 6.903012174919826 6.019399147861175
