49
Energy = -219.22089293 eV
As 5.9230333199568435 6.624453503142309 1.1767189585693034
As 3.686857411812651 5.535776275838904 1.494928056112914
As 7.118390148074313 4.419339405854857 0.6462362731985576
As 9.576830454934724 4.333498383779182 1.1167038601528125
As 6.5238641840152685 7.670997845549638 3.425872443063025
As 5.982541643007135 2.3876216664674423 1.6188390044380965
As 5.628448224995894 10.08398016476533 3.670695155470006
As 9.541657591264974 6.554890084555693 2.3381742791016777
As 2.9701728603902695 6.705854492104139 3.5969250315131345
As 4.694711995999128 3.904815631763712 3.040618329461076
As 5.073969631360871 6.335204232753665 4.9208142865094455
As 3.2915897137553807 9.629797822709516 4.544408447618232
As 2.7188837280501654 2.646273226744189 3.8938582380639835
As 8.787260329743345 5.379542374632379 4.432666465748654
As 1.446610244316179 4.762269739179677 4.212342997223217
As 6.644457213389346 9.69527782564171 5.920721317436904
As 10.138589752285048 3.5062175573343586 3.388679516676622
As 4.510510787074296 8.346672890449655 6.294284873293144
As 6.625270984069699 1.2818866667990145 3.861751411172498
As 11.776007192253266 6.850157549596379 3.350004216322351
As 10.87272193989582 6.308778250493941 5.445920959992123
As 6.197823289336464 3.0752457131112148 5.587421388703073
As 2.390978666025149 11.258215852032857 6.2603400373109945
As 9.08411464015808 1.2859767549865098 3.6663152195117075
As 10.712712423141495 7.149959476557171 8.778701179449953
As 7.42198616692676 11.927698979737091 6.166430591609873
As 3.8353886288578365 11.927698979737091 8.210013836190683
As 6.211764144178233 11.587900031700793 7.4994413232897825
As 1.3232476988602506 9.607711179260544 7.878631878460562
As 1.1058267578454295 4.885158030315241 6.646016924801812
As 9.424849553901383 0.9028127153668196 6.117917624507237
As 3.9311051656985305 2.0183162245549675 6.0126688474041865
As 9.593048908222592 8.550593650139806 7.025979690295763
As 9.304686236362404 10.39624333393604 8.875921507069382
As 7.364317538731254 1.6429708747933023 7.311570718526822
As 2.170837743940214 7.313741782742245 6.931132478101325
As 8.396881063964264 6.632720399279328 7.909205981908063
As 9.96099267069044 8.788891305702505 10.618093112968365
As 3.023781830822843 10.05774694830386 9.690195980699347
As 7.819744030518883 7.456279055671072 10.25173328115232
As 6.977299340263026 10.263054994317379 9.441652072215037
As 2.833061537060953 3.4246163637922487 7.77234011854579
As 7.289117778799034 3.7169350111958495 10.890127015337445
As 8.8995454604566 5.320464393386008 11.014109353430847
As 4.652100011159402 5.097931887872761 8.251308397720134
As 4.7127365377200565 8.262361377352137 9.199798434490756
As 5.526795325925616 7.185611724832707 11.337342632846214
As 2.8866333113082563 6.575325897958268 9.169906259980744
As 5.0700704849878955 4.814389677887104 10.748346288841145
