45
Energy = -200.04098703 eV
As 7.791379596863859 10.928175403201095 2.3505542863600066
As 4.056940101497008 10.039255865565375 3.1659074591171343
As 9.695379987047522 1.6070962502101347 3.1845726427511947
As 10.041024633412057 5.474371303299216 2.3612837934291933
As 7.65402856855704 8.4822166715398 2.452479831986256
As 7.52795931870651 2.714264708877841 3.6742791117850464
As 8.234214626997177 5.479248414015059 3.9560083174603453
As 5.368458928691444 7.9906678491518655 3.2467605979967225
As 5.784450768013074 11.835184948851342 3.3652349830398327
As 11.158721273458498 3.68172950011822 3.5592968636828726
As 4.672723294362474 2.950873427160859 5.381898307941564
As 8.768803867287925 1.6519266042213872 5.54327185147164
As 2.3623709385289775 5.254845479867948 6.31104542848235
As 8.93850097604479 10.6391486307175 4.856886695818752
As 5.570757442529318 1.0483468183125078 3.972710724267206
As 2.1879907313921887 2.7464440569625013 5.800460801790211
As 10.75586387830242 7.854962927439555 5.080874029148458
As 4.6805508313933455 9.002314361237085 5.430132584488805
As 8.273610613578013 8.136296496172386 4.941349386471698
As 10.848860370640141 9.933694761221359 6.525450498500486
As 5.500968735926666 11.308918885645351 5.938203759850461
As 9.692626396924265 4.321902253570568 5.612257843250736
As 6.617343151033469 0.12893521071742944 6.02991226856273
As 0.5809976223240683 4.888686147665332 7.989214359302756
As 2.7010718041961628 3.569632506086424 8.09219870333988
As 7.773091018571687 11.58817794857984 6.926304634620061
As 10.83678039191644 6.158880256173887 6.860942157138448
As 5.517109341825017 1.8489782079006607 7.462999640591119
As 7.380430102039653 3.697406079349168 7.253891304047842
As 8.75297943163833 9.409130578580285 7.749010247677171
As 4.420200871873438 11.104944970227212 8.638907365421394
As 6.3316159681395625 5.953419398430713 7.867487481859948
As 1.296245972173753 6.985743893797584 9.340944007091416
As 6.390835088966778 12.302407358742075 9.317604276860257
As 5.602410878663087 9.008787781997592 9.260406682786071
As 3.4338252258738544 7.259369899889623 8.120384013399821
As 8.78873695963712 6.393902915287236 8.4529415546588
As 8.638166178292668 4.069385790797396 9.414915296928672
As 9.24224593336881 9.838742554025991 10.219192062835045
As 6.928779310475231 10.461499250881252 10.852756070385563
As 6.351593947675067 4.881941173062991 10.110829049104678
As 3.3923198169990245 5.982615943507687 10.226681618594444
As 8.942995800178757 7.466846626081174 10.82276285114689
As 4.571114460061365 7.975264137338327 11.290165167800067
As 6.73861041767315 6.739101327271363 11.784314960506643
