40
Energy = -180.33706203 eV
As 5.8950625477258765 8.6033630936754 2.455234733213699
As 5.744005970237222 11.05922492143005 2.1817854428003582
As 6.300383767591343 5.433037476949659 3.8760665831715913
As 5.323854111052156 3.281627521958473 4.674713863457265
As 8.34048393681077 8.697936688291234 1.9899253400135182
As 7.468009336685112 11.879162974845862 3.792971276079739
As 3.883590164562233 11.469127500718457 3.9714310816013807
As 9.626708953839518 6.635793360264089 2.6763059899288697
As 9.360184310441404 10.274079857840512 3.6600721849024187
As 8.223998285994574 4.515539885457528 2.611203213286858
As 5.226260578084438 8.374254456348641 4.877433722843468
As 5.811792215096789 10.76008580301548 5.38729749711065
As 4.633820999095958 4.786946480114125 6.592882571008237
As 2.9807439328726777 9.307908477315147 4.537656315247819
As 7.3679026205745775 2.0365469235892277 5.540579459951546
As 9.13934339175411 3.653781448510538 4.823587203719394
As 7.887934045287199 5.535866985556727 5.8842932773073695
As 8.53565761952262 8.944185430167202 5.592023976134893
As 9.837337589611018 6.894580422452489 5.159121311043258
As 2.423582290650865 5.613688388370845 5.746803660063483
As 4.582721513890067 7.406559839861883 8.221901860584788
As 2.508180162156452 4.035153634686895 7.634891043201655
As 9.708758069615813 5.5825330896417045 8.150240511552864
As 7.628711204716198 3.1398960336933497 7.812099203120264
As 5.701016690792866 11.122663117121652 7.899535735792893
As 5.697058511922057 2.1091723115834164 9.162653571087262
As 3.673525984506125 9.691968731246227 8.500321246562859
As 7.452414100887943 5.472713242022454 9.514562523899961
As 9.487089669590942 9.694804308592888 7.883289638609941
As 2.214154197527036 6.4858163429317806 8.063068809185287
As 7.11955766037707 9.142115010506002 8.27604484330954
As 5.297652761957942 4.094929420508838 10.57188545133193
As 10.956266674048775 4.050465185931135 9.578860067536432
As 10.220963957901716 7.748216925099404 9.383480651054912
As 9.4361316534946 2.1347773687078577 9.264667124042164
As 6.857546876963287 9.263081002685045 10.712482368004553
As 8.730724169554723 3.7973586440893063 10.97888107615991
As 4.481480654666073 8.400118087941035 10.521137000876818
As 6.534988353006098 2.2665525870153456 11.47483589594687
As 8.390201511506005 7.294168065833883 11.05357372182568
