45
Energy = -198.95427261 eV
As 5.592240217887929 8.357656303070337 2.0729633799929306
As 6.52749963626844 4.378494685591267 2.9147785832860817
As 9.519853778604856 7.108608709848927 1.516296415509881
As 4.903371088301864 6.010623129961679 2.6157550402939695
As 8.628434359183311 4.769122014212531 1.7311811052832669
As 8.008783265040961 8.784388932021262 2.577271401520474
As 5.480417153500403 8.85445851059677 4.526230077852702
As 6.042728123211172 1.9857205663724924 5.952639100079067
As 1.5589316312061479 5.631335623241169 3.0697785589734523
As 8.265416922246823 7.409865457661149 4.665996962991018
As 10.542952387476987 4.4161529622461355 3.3223079349761964
As 0.9636959025201557 7.645076563347385 3.9997843573288563
As 8.27037531267236 11.225476263612308 6.761371248854057
As 4.679066522443884 11.007291553649642 4.932914907269444
As 10.596808176119302 6.893255317255081 3.8193257982918296
As 2.6604294999625626 4.404475853420527 4.926672225754832
As 9.950213323381691 6.009265099027272 6.7588412509562685
As 7.668789444062411 2.1466738017360902 7.82178225356133
As 3.999036227976937 6.497241289098934 5.337795555622786
As 9.861989052958416 2.907769904980242 5.196324920411069
As 11.091792403635045 8.192329647851128 7.075009350589339
As 4.95014834140757 11.675432941525926 9.0082274171341
As 8.546141754712382 11.911352312556849 9.105278063071605
As 7.604750219175047 3.8739336859858895 5.986066626429027
As 5.866483660878914 10.364075852844632 7.0048790977543725
As 11.455433520173248 4.0661713458409485 6.783862341571645
As 8.60000208799503 10.416167320596115 10.860362286906664
As 5.559930697699435 5.875751532734286 7.257390760176192
As 1.1142855875395017 5.274861061359655 6.724718950423154
As 1.9298762173239223 7.5878531905737185 6.319678162723236
As 4.566845860706211 3.5819899920187304 7.558348784768054
As 8.615845609984813 8.729931351108084 6.888394632028579
As 6.02561663799003 2.9667741248598594 9.54146328543304
As 4.122590506650011 8.573921035668452 8.519568700856595
As 9.910396334021579 4.636538189605302 8.79161093066088
As 2.8810159266095696 10.362999622158354 9.666898268336512
As 11.119678479308453 8.30250169941776 9.568630806511912
As 7.258149964152451 5.108404447199383 9.882323306296472
As 5.123905076091424 9.752290471841635 10.519520265323385
As 2.3556082777599596 4.602867747478896 8.78671878038843
As 4.145475979609744 6.177493656932157 9.403807458827252
As 7.983884807758671 4.887355619542974 12.088680106337687
As 11.388872991284952 5.9541655278358965 10.359600860110369
As 8.675249992130034 8.107224896252522 9.982074196245598
As 9.573232738441451 6.760905883326036 11.983121180353256
