43
Energy = -192.2371037 eV
As 8.35831274705664 6.969347127234309 2.910336178065624
As 10.431680285754354 5.850801833624848 3.7667435855165765
As 8.80072764624967 9.41341596453664 3.2459718529523327
As 4.391555170321249 6.425924841442296 4.413458532215206
As 6.859764878822258 6.546459427322984 4.959393898740377
As 8.71765061600124 3.017502588273781 5.499217287059335
As 5.558181585454475 11.731479318970447 4.8854302483344565
As 3.336970352972126 10.569836081579611 4.696868060806452
As 12.086597133897726 7.628629106916106 4.3930459096565695
As 6.747862783047815 9.387899630417389 4.8479090408169245
As 9.670580515146264 8.314227614393044 6.74570472760142
As 4.156262592343006 4.102950101422109 5.440278641516495
As 6.511902052129549 3.9345957432972964 6.222171598060759
As 10.62019240567664 9.593983972139117 4.8755063285231826
As 2.608233379839445 11.287624305762636 7.018870677965741
As 9.435832403346394 2.131679638773234 7.642176000012405
As 9.502862350200107 5.395702071574575 6.02832028409931
As 4.257496862879613 8.529561089879735 5.898602637549029
As 13.030179954935338 6.702274531145333 6.602299019911532
As 4.738991989476252 12.600596226879057 7.083119777027091
As 8.245287135479053 11.617290808599071 7.917809799330031
As 6.941442183443288 5.753179982556664 7.9593781692204555
As 6.20986107203844 12.383189486870242 9.150584030377463
As 7.503793490192107 9.341304652720435 7.208128223099009
As 5.670901362055013 2.0467486680816895 7.603183720839612
As 11.626432954546338 4.601029811669019 7.027065804399352
As 2.6631970108026124 8.871459839465263 7.808690478174601
As 11.188719544530407 9.634740337820013 8.197185012389978
As 12.532766576198382 7.663108139598519 8.925981545647732
As 4.492489479692936 5.990729523495919 8.299199457114375
As 8.098004218522517 7.532954407692029 9.994585825569688
As 3.7107425321429117 3.6288955570057824 7.9118446635477575
As 7.538373922005483 2.053497810673324 9.246181660330137
As 9.797981963609729 10.99430073662763 9.795586073761738
As 7.278588420381057 4.394701550649027 10.045673332166606
As 9.414705182809136 5.512373389350984 10.740774403924728
As 11.539415495864896 5.376558273101045 9.40953671700928
As 4.817243057506656 8.757846874385427 9.070110960493805
As 4.966627300487717 10.734265837405495 10.570125085325335
As 8.94995488156857 9.357644667220866 11.461577324263141
As 6.429117810314941 7.180338929108674 11.839159164347542
As 4.2291634571662415 6.9531711818590285 10.662967386403631
As 6.576030643903266 9.728855719271655 12.221924276646385
