48
Energy = -213.66153626 eV
As 7.363326424980349 7.484927154004633 1.4075362160190603
As 6.252137164490658 5.562872465780764 2.513611094538604
As 2.54411954585259 5.771961454118393 2.829414921328896
As 7.506499680684509 3.7307738369328955 1.2452012382462516
As 9.765594238812213 6.920397174311631 1.8426739306556341
As 9.765335897489418 4.433171724822367 2.001583677005079
As 7.074378783799855 8.535594175047423 3.7150900099682196
As 3.9922035231191484 4.52273356708686 4.303643530620253
As 8.136973963778788 10.859984887157756 4.165764057786038
As 10.319362506417741 9.654813681993756 4.546625542777026
As 1.0531129967362518 6.040128416607522 4.7655675852047565
As 8.081323175655214 4.589075025171699 4.03129324911523
As 5.463825015578216 6.225331149692949 5.420901393727389
As 7.388107014213922 2.281822034495752 3.3757482787288757
As 3.690300793997476 9.034207407750195 5.789429303011378
As 5.121846172034186 2.260567865015194 4.471025697779355
As 2.190514851318514 4.133238203724774 5.957418858983833
As 9.266303160354537 7.413927427067298 4.285687047316458
As 11.491137784544717 5.169110484140593 6.841480204818256
As 6.575063608832866 10.35066314325117 6.08151800277476
As 1.4305596904431575 8.050933969918201 6.4115402201112675
As 11.298823254877165 8.787099674797938 6.732103209293842
As 4.233840182340615 11.596701304769345 5.872141051795525
As 10.689587516279834 3.10136268906267 7.966379728289393
As 7.1884938549315125 4.955421840289103 6.499032778550945
As 1.7190865097426067 6.695451172814069 8.479981423744203
As 12.539041099975607 5.9448421871997 8.985460083027125
As 4.920435272012224 8.5060324147054 7.8210305872253745
As 11.337380603956191 4.083706747601221 10.186606081602216
As 3.6603495386557086 5.408957786892955 7.5047248647496785
As 10.766176261553031 9.909355043821979 8.888328889829978
As 9.727756578543604 6.956667717846673 7.462852419778345
As 6.193544705340818 2.6834961748775075 6.685771460277568
As 3.040780445978276 8.518560680404617 9.517002721002454
As 3.835179542472978 12.458172903372928 8.03860307590755
As 10.677012809395595 7.50420701861601 9.751847930144661
As 9.031598144565825 4.5218128346092525 9.303298594037342
As 7.42369238283766 11.486003313819678 8.137908692086842
As 4.380641583312661 3.162277822882219 8.432261879722398
As 8.342877759460064 9.276266127135234 8.86481430019873
As 6.187708728140729 6.421268721848095 9.654061716799225
As 5.2509025628228425 10.72834725682707 9.002974479531009
As 5.458570308266369 4.18704006069725 10.480454576815713
As 4.603650724129377 7.586461894872719 11.229654071220912
As 8.194842636518345 6.364826115932719 11.156899577388222
As 7.764067148234004 3.566320705445696 11.202474733546028
As 8.022669081125779 9.275686891928176 11.313343385466082
As 5.626056200423502 9.874209077865691 11.41402505647908
