41
Energy = -181.77929635 eV
As 6.995098701697802 4.22250925369647 1.2417456180067645
As 4.642905575232407 5.064237077576279 1.0649197949210039
As 6.594280191035746 3.562049189715464 3.6424732536443734
As 4.161596389546828 3.809274857121492 3.1678763630313838
As 8.333076290896898 9.836669342687607 3.0059636519905477
As 6.497824263672644 6.631152457157471 1.624543092930518
As 3.5789200566161483 5.8388015049853985 4.468202396932459
As 8.819914669957683 11.88596460439932 4.3968027810808605
As 9.70800869530218 8.290880202173044 4.424229337570949
As 6.723988486938012 6.277683540054866 4.093171539097325
As 10.293116881791011 11.19971262395554 6.320830397564237
As 6.365785179682534 8.952582160255682 4.175766216217927
As 12.065581361867444 8.262477384745644 5.12251613086531
As 9.221990203193245 5.980333063022726 3.8378748835724124
As 9.147504944037111 9.054930642377478 6.892394813540763
As 8.634712043703502 12.747281191483296 7.429673074310303
As 2.2823160912022513 4.872913041463654 6.194862419809761
As 3.582125632865647 6.56392823114492 7.4848497794836675
As 6.811333290639075 11.953280900274066 5.896164006933924
As 6.576826438570116 3.8022843831619997 6.928285960589887
As 11.241179443203045 7.247590943477637 7.079696809751086
As 7.528670163712594 6.058191562490611 7.005986731778628
As 6.653818962354597 9.57018963363446 6.557746808304545
As 4.208924535526244 4.188513448125785 7.914123921917492
As 7.914734820485515 2.563382255181877 8.834763627369098
As 9.786290648311168 5.295216483692895 6.2881437157245985
As 8.098725585962022 11.831501814248151 9.729366410973318
As 5.7800455212625526 11.172162766571336 9.331433347340115
As 10.173098503497235 3.462551040086408 8.8559654081872
As 2.4899363186163996 6.789496560764885 9.839008892915464
As 9.557894992067169 9.880357821471941 9.47509320021044
As 5.1234509806827075 9.772749400113529 11.053033533858777
As 3.777194785351521 4.738869407701437 10.392873618833649
As 6.696656910568231 3.937440290419581 10.430161946727836
As 7.7024751238108475 6.148783110427031 9.551771563767282
As 4.970198444329189 6.928876305693308 10.325943776498427
As 9.937315346049827 5.3916568210998275 10.293341794267953
As 7.018763970081936 9.019340681623671 12.463421581958038
As 8.81374809723411 8.197980917817752 10.986290495952474
As 8.107092796117206 5.003821991033413 12.229766168795091
As 6.079003654774941 6.688506085318533 12.645046125220443
