41
Energy = -183.11057508 eV
As 5.414485613108592 5.712955615977233 2.2110152040709994
As 7.346436710586763 7.401509598546419 1.416054006071922
As 9.499094493932217 6.309356716544033 1.8012047593916312
As 8.881414839358388 3.9547103805603214 2.587523707036851
As 6.515872122642249 3.916537133597882 3.5301929563549836
As 5.12996960815017 6.399841264550147 4.6183070165213636
As 3.2530558331679416 8.039907962484168 4.942474720217442
As 8.344095429393567 10.559045888685533 4.052166250264336
As 6.424501214461854 11.573400438008312 5.243709246208991
As 6.765410647600308 8.67642144988209 3.4074981898180323
As 4.246699572409901 3.1434841800748905 2.794402816520108
As 4.272505944329506 10.345514070591713 4.679119531893953
As 9.96039289355557 3.032869472082603 5.92700537092471
As 8.860111788456821 5.018836165203786 4.829109703163572
As 10.282870977588955 6.9949267567559374 4.067773379635053
As 3.3194233081461877 4.600142228303705 4.527133692392706
As 8.450383297598307 8.307353238959948 5.173969544040486
As 7.7946291649304404 1.8343208408401244 6.321420477875231
As 6.341815532107066 3.6796268106933208 7.241821420532214
As 3.6908353469956054 7.7917757484345165 7.356273106870833
As 2.880609268147925 11.387385030176512 6.458052520126174
As 7.049880530533585 6.56575670103036 7.917198964804158
As 11.0239204688459 3.7691289901361795 8.062468332578385
As 10.987595555353385 6.22805456447004 8.797157302351003
As 6.807176268921089 12.08541012785509 7.710901537650928
As 3.344926339414592 5.40249694703161 8.368770032010142
As 8.156973610997268 1.0229163318786703 8.6691554275588
As 8.991175605126834 7.8238662797014795 8.99703317852508
As 4.414727122352695 12.55004193259376 8.100156100006318
As 3.8910863338807498 3.5565074598744015 6.742930059311979
As 5.933841788036493 8.836660958524279 7.767821551697441
As 9.770691326554694 2.524018255279664 9.844988772940358
As 5.870750689762108 2.0936400629701257 9.113471393680888
As 5.354801405830253 5.938516660159067 9.770745497927077
As 7.49024558398767 10.71244613198323 9.628954360423478
As 9.617319911669432 6.258026947202625 10.841417763094594
As 2.1911251607702154 9.618147982319426 8.147154126974192
As 8.286436201052338 4.472854947682091 9.683999959925949
As 5.520809171820842 9.333275016010784 10.146110793566718
As 3.626041739900756 10.899420262630864 9.816163521262746
As 6.194615787639318 3.827646658832773 10.885927912897538
