41
Energy = -183.62475379 eV
As 5.328186656321255 6.273736798904115 2.943145609233217
As 9.488510729761312 5.596405852219349 3.164026854152243
As 7.263627277045051 4.718909895844738 2.425021043835982
As 5.202519439838071 10.127164336817861 2.8708721218212503
As 6.131183710372533 9.935812485921153 5.120372293974048
As 8.885765046078903 7.91104335837548 3.9932164452902343
As 6.927113583800361 2.6702415591964255 3.8903114441837348
As 2.918839265404993 9.896909281475779 3.035592446291775
As 5.787959849060421 7.397008620998541 5.205306644919628
As 3.9999235577628935 4.381159973689845 3.9076204686762233
As 9.95863299625251 4.60388074145249 5.412366740558357
As 8.90806119162814 2.3423226932146437 5.419949984632543
As 4.218366911451354 11.04417720741345 6.291361460418182
As 11.168687280924495 8.981194780581388 4.280839358585804
As 7.9037157595054826 5.212776898838528 6.72766941858964
As 2.2488155558180676 5.522512373762478 5.31030001096922
As 5.478399923681332 3.4892843710651222 5.632423530678206
As 3.490395689019341 7.529316283619209 5.995251863313854
As 2.3512563161040947 9.667582859431066 5.401913244116732
As 10.168147066892056 7.669924114450074 6.104484966477323
As 2.518872583161319 4.380995800880232 7.558730051855507
As 8.494436366268296 3.140154044189461 7.8401463952593335
As 13.377225562429729 8.164917613323562 7.3066311086625335
As 5.211360728598242 10.56256059403985 8.601682523248963
As 13.468876221907639 8.049416092071413 9.816458903445504
As 10.01043848303648 10.1185836804144 6.187676644158318
As 8.17516945883784 6.779222156605026 8.747796826919666
As 12.484466081386035 6.1740716866270065 8.49268378807304
As 2.9302150890347027 8.321725277898913 8.65471434732924
As 4.875056086088864 4.942991480407788 8.32850752167735
As 11.185452686971773 9.191618961168981 9.983986629237894
As 5.42487552310497 8.062193334624277 8.386665626844348
As 1.938084392328078 6.095483170490988 9.341571261849325
As 3.817399908454434 9.780381607356718 10.594826529733183
As 6.367086451794148 3.1387847085317926 9.224386975204265
As 3.783312675135883 4.873303026530094 10.539159697186683
As 7.505309221609405 5.050609586512671 10.503116243088517
As 11.969040045519037 10.126942060831103 7.809701006754903
As 10.48655930774576 6.818141746201251 9.793245988442534
As 5.965490241941893 8.458946678694108 10.799994884361938
As 5.5607104237875244 6.1751375511931474 11.733816441812802
