40
Energy = -178.72122506 eV
As 6.018485964940034 7.697179575278881 2.7268610526476587
As 9.4195146801711 6.985256703498209 3.983193222617583
As 6.368593466942628 5.249048017449632 2.095566227594569
As 5.008572980663661 3.8931208561025303 3.5714380559395824
As 7.096183268158194 7.162630493370615 4.837311163132627
As 8.774709552087756 4.895854522327349 2.669942291108832
As 3.8029563887131097 7.941024587625038 3.8761073839338667
As 8.687670575846608 2.709833892567896 3.842691296465249
As 6.343139147874981 2.229885374493352 4.41531929555363
As 6.872124685471025 9.405655407769144 5.956399122198216
As 4.117451463068004 6.735779892246096 6.108040993702197
As 2.224813792444158 5.217907793870561 6.375373289150954
As 9.775600539004454 6.214773081993401 6.326308970229376
As 11.513540898343173 7.890524368266086 6.869738873436453
As 6.4143834242482205 11.155402409538574 4.252921045523138
As 4.485722661437171 9.950907419856906 5.25279542926525
As 2.845322774537529 8.237585704579852 7.7086987746138504
As 9.348481618066046 9.014785728336353 7.6781837695603254
As 9.638545859161445 2.3722357762538047 6.194315575659778
As 7.412700141438248 2.5534123864812064 7.3009500659150275
As 1.8665903854091703 6.140269872237539 8.480146392583894
As 11.271519854917905 4.251885958509605 6.442285485260938
As 6.818403473252563 4.9836171993359795 7.707125128471055
As 6.327726532456904 12.91916963354601 6.088558662786784
As 9.789624732354469 11.22712189563386 8.669482440038056
As 7.995934603438376 12.943033495864645 8.03313893867952
As 9.775424116795978 9.083218927563522 10.083212309950575
As 5.997865059960988 7.431506919078587 9.586154995158264
As 12.125972764296032 6.854585573292623 9.026419117815912
As 5.852442276987924 10.420421806571614 8.69268565924012
As 5.5605696133559865 3.805997577885409 9.566669269756833
As 6.052516061001082 12.72446913868283 9.593355414408363
As 7.743887439857579 2.620114441634334 9.839620023216595
As 4.0692566309976375 8.999809206493266 9.78103785541533
As 7.623852397085661 8.397186772063328 11.21380642185768
As 11.346840622370143 4.617863994761418 8.912160502702296
As 4.512353937328713 12.204599009659466 7.636231458559114
As 8.753004762060566 4.868418665033149 9.342745801947586
As 5.747919540207188 5.633874834345273 11.311236458724599
As 8.210057374267318 5.970307146921474 11.562047826198063
