42
Energy = -188.82928739 eV
As 5.722626260086519 8.240894414174909 2.019629211241309
As 4.576810118180118 4.116074262825073 2.2922094809132108
As 9.201741838098933 9.152664029345688 3.155353859284577
As 6.238763758613568 2.9591317063617666 3.7570504597679677
As 10.666998062914361 5.392229519025914 0.01648159631389965
As 8.122609204103323 7.646394623339597 1.5122707638082777
As 5.647074481003788 9.64859897987408 4.117032376516615
As 2.784285402472723 2.456241514647781 5.2858322160437945
As 4.799760802377672 1.1357728962590816 4.588578696540792
As 2.483285950081925 4.244705873690581 3.5838664324268183
As 11.419542356605097 8.035460470721151 3.242125558975594
As 5.139914288553843 6.299978312812784 3.437784998668883
As 3.2638733925326053 9.18618018993472 4.793205355497619
As 8.723630640616673 4.229711400441949 0.4905758086740525
As 6.261827002607377 8.277682582716754 6.192561492110013
As 9.69654942557807 7.512045974763658 4.9579316381512655
As 4.420622139185628 9.752730507408154 6.973921195595022
As 10.910217040524781 5.7050698157608135 2.438708209855703
As 8.415323200036772 5.43838893264321 2.6772162846106595
As 6.192656539744082 4.4364293669137655 5.7628012209440875
As 5.388073038749446 1.3064145036488595 7.0818843506307685
As 10.193265687741738 9.390856230068028 6.486417597777372
As 7.51921216040406 2.642552878112585 6.898936341824996
As 7.938554958171369 9.603867744902745 7.567555406620548
As 0.8671110238860897 7.295154854052191 7.31234601575976
As 4.191693049734768 3.524638648121517 7.013025910161303
As 3.230654005929544 6.422327450120462 7.757570167355715
As 2.806412482926712 6.881777464260361 3.74948473794177
As 11.586707074616553 8.291774041464251 8.234906296149521
As 8.618454180612934 5.842614598812929 7.7145430044633425
As 10.858214241407984 6.0053474659339665 8.877434035356487
As 3.757225588585108 8.496807038305144 9.030561490076968
As 7.808109248855106 3.883857658841785 9.088978215326431
As 7.861418104124123 7.738021038538327 9.17986434920044
As 1.3190086627298903 9.043962447322626 9.032460733094496
As 2.17346516302131 5.142892386978684 9.61026819210721
As 5.6189429940244295 6.284847240607436 11.489938960635625
As 10.144611314664202 8.012553628765788 10.21157962964641
As 5.450573600673272 4.673922770182786 9.583579769194262
As 3.268822964733827 5.598638079234048 11.84672032332079
As 0.35107187471160684 6.862695171350556 9.724736949582795
As 5.082436345518667 3.910240956453618 11.934220337573608
