43
Energy = -192.40572257 eV
As 9.466774309946425 4.079689832713864 5.224238620749799
As 9.098485661567803 6.787635529144896 2.7524157623772223
As 4.810752652441937 4.423597074772815 1.708132316854973
As 9.069668088817709 9.253060911052572 6.49782953507957
As 7.654722669263108 4.027244375311888 7.728487786533197
As 10.235350739237186 6.074926679579104 7.847650739653092
As 3.0290442125110277 2.8341068241568115 2.3978408187802107
As 3.4558291020579985 2.108939480106734 4.780305052617149
As 9.376525221987006 6.081368960043251 10.199322925721546
As 7.503784214793566 4.24717415149417 10.225456204514193
As 10.724171658379348 9.445017324082905 8.543481286252225
As 4.0362473125297935 6.724365054627703 2.189681276990439
As 5.890481218331883 10.273944687346637 5.837335533224682
As 1.2237316475775089 4.494147918463733 2.1655130209955407
As 2.8554443415669692 5.393077107215527 0.4283034952612192
As 5.139498175413536 5.396545997129577 5.932696233044892
As 2.134633727869358 3.5586119099020395 6.311486759559162
As 8.127302583856064 11.035231472166 5.027420785093686
As 10.571263308849586 4.816421613890843 3.1033146481406626
As 11.093333619943648 6.995551251029631 4.20724053430395
As 5.643359038834891 3.2543352431601713 4.694567054952984
As 1.9230427235462884 6.504469723307434 3.4288320149597715
As 5.031294913471461 12.454983902581635 6.594684458891616
As 12.119925906450597 7.534083145900475 8.076528857083867
As 3.7444910050988054 10.9430498621646 8.060494184062081
As 2.7095740362151743 5.88752297233845 5.730537300901206
As 6.930521499656345 13.348885153544 7.894844365432454
As 8.897510324952489 6.859679297786903 5.362258891255487
As 11.263960294744209 3.9687336911527464 6.954433343381747
As 5.2402494033473115 10.735060098623865 9.858353705262456
As 7.039738045905592 9.524280977381629 8.094419285202202
As 4.21361763704052 3.8918822314174637 7.727434980560527
As 6.6393506365515504 1.9780479317952446 6.632915113724411
As 8.784479852046395 12.726167455438052 6.7186766280838235
As 6.200544654652522 7.230256809689149 8.47623319381021
As 3.7223097210716483 7.701350731984836 8.54682146477538
As 9.59665439591582 2.4092102263797828 7.983221743541136
As 8.96284972459501 1.6275890636630368 5.678350711224471
As 4.026513840001462 8.750066505617287 10.802318869361251
As 3.3671748799838364 5.408285387124319 9.522323289327495
As 6.205695450577077 7.50335351659006 10.973929026438007
As 8.957363988901065 8.587605463156018 10.022973496381656
As 5.338051275745774 5.175760171219299 11.11201240188632
