46
Energy = -207.24456471 eV
As 5.850599905986868 7.436795661725193 10.61920825490246
As 6.8309749022843755 11.434133333259396 4.96750996531811
As 3.643931538072014 10.802641236664154 4.9727037370648715
As 7.243773600674202 5.322977497071037 10.697758592466043
As 5.169668264785935 7.129937233827694 0.17921295599908107
As 8.910128625311637 7.079227163971764 6.047994225543669
As 7.161743897599737 2.057821788157487 5.899654073282147
As 10.408428183499563 5.461969478594894 2.813077295780962
As 4.930072691635614 10.516053311423681 8.216995836017004
As 11.14434457982899 6.475831715087393 5.007027037902009
As 4.603800713232116 5.784903518850086 3.319259334417073
As 4.422215924909149 2.971706764631387 8.679410748197883
As 3.7749547010126565 1.1813278869580774 4.2862113082746145
As 6.642757338152847 2.4641784294349165 2.511741989138089
As 7.557191609834856 4.336015368018003 8.484252793695878
As 3.4292803595385077 6.273117328899118 8.378067256443083
As 1.3084583139241581 7.236111236971083 4.449201814486292
As 5.936316441500864 3.5945658340789417 0.3976955790611394
As 1.3750201061846052 4.799779088270786 7.812011469760756
As 2.4054621734256156 3.766008856634824 5.795460349822749
As 8.240844488713401 6.706964421382855 2.6751821080825278
As 5.850425680340595 11.425518008913825 6.03511880740291
As 6.602290577837336 8.667881816713262 8.50120435072422
As 3.4979859547548133 9.016125653582302 6.747678081618031
As 5.582932566320992 0.19278853481248046 2.811976273169592
As 5.633234483124657 7.746204582288227 6.349916589148548
As 0.13397435434033184 4.004013376117737 4.732638204401
As 5.212194457504327 3.8468281833846962 10.947347349929471
As 4.605188051405646 11.425518008913825 6.1592403382360805
As 6.847701844982776 9.354100506059373 4.911956802165071
As 3.8046647489543433 5.926417697629613 10.791163509811598
As 3.8575829805811264 7.8719132709897 2.203812714794516
As 5.093445905362453 9.844704556409392 3.179013623077989
As 11.572644912076548 6.051857530751149 6.186135391909997
As 3.2596433783258014 6.08228518136559 5.339141451895853
As 5.892083004308684 1.087174355573654 7.815472652137643
As 7.257733892220474 5.744729777904114 0.5772257733905122
As 2.9022852570470796 4.368810802653243 2.2230305224853075
As 10.892724606868313 4.218452008915727 6.111390689193414
As 9.654742564694857 5.541520049769915 7.849660126307477
As 5.310035709946632 4.8214951045001575 7.312023668657148
As 0.6756546040025798 5.480174645044598 2.7816650209235534
As 5.315244180573032 3.1097539721435585 4.580900376087863
As 3.8237942726699834 4.977479896743147 11.699187561308205
As 9.262065778930912 3.699333734645498 4.270087106570692
As 7.545082666692626 5.457495086215319 4.7492338760693045
