42
Energy = -189.1482215 eV
As 6.745231877937606 6.75564997942265 13.079085054256938
As 7.27920894201982 8.84472673279485 0.2188044042573235
As 7.0880957102803945 5.114292152254043 1.163174757918874
As 8.314735854706752 8.20897710802342 2.3255008894222398
As 5.381205131023437 9.92712406070882 2.461141931624258
As 4.082860420224784 7.909044595585554 1.8064557265231522
As 9.234857022620359 5.846399772849711 2.1575772174239503
As 3.6841386533382225 9.161626461338958 3.8997585248777074
As 7.599126189169121 10.837637054511202 4.939695659474986
As 6.817817299399168 7.489209263064176 4.231836481549992
As 9.412941635644366 10.157290657273144 3.481177700504178
As 5.389042139742102 6.014040126817848 2.8797698686550675
As 8.402924542017356 5.5020510333692885 4.466189814131985
As 3.3141049739407165 6.970486668586315 6.257550860878007
As 5.761438833343031 7.141698154487542 6.86501603834093
As 2.6879815315909332 0.2679731600313163 5.569674168996373
As 1.982605193242502 1.2930894952804741 7.693323525549765
As 11.111560410362433 8.70349873846739 4.714471995286856
As 4.475551514818075 1.8058166738615782 4.872770447075107
As 4.314975982216261 12.164545536003107 6.171983805145517
As 3.4251389908700864 4.619051083876609 7.232452170875629
As 9.075437060796379 11.547054264556357 6.7900121915098515
As 3.0764020673225434 3.8632691692770305 4.89229823801564
As 10.293814573090678 6.560011152828809 5.74610932397148
As 6.466412777865377 13.356493206312006 6.650699307395293
As 4.03908108055246 11.54705426455636 8.589028147916206
As 10.705287356871132 9.668317796802103 6.988069728878085
As 5.779647268710955 2.005438986807529 6.965835016599088
As 1.3121728848766128 3.4500488478685467 6.603482398837175
As 5.452109474602764 6.23767149292346 9.18106725403392
As 6.389145004914804 12.419926907525017 8.982218514148428
As 5.1217482014070415 9.541575641764982 6.823879733480206
As 2.926751433086988 8.871911706789055 7.886688392759778
As 4.084662378611179 1.9854158615835618 8.78684251206495
As 8.779943325672079 8.140076469978347 7.007607216606388
As 3.673406178720711 7.802436140045114 9.982310386722423
As 4.455094979848708 13.52395219937245 9.992350098161342
As 8.30426287236419 10.778044074037032 9.148668734642683
As 5.866225429423109 10.816482295711568 8.843792527928262
As 8.989758108781897 8.34095845916341 9.491835700860467
As 6.990989170211358 7.515030157443967 10.71025709907127
As 5.397534830748633 9.449630092992225 10.82888541860586
