47
Energy = -209.86063068 eV
As 4.283208875944232 8.650090979073546 1.0221197048379567
As 5.861211658269475 7.1402786093962565 2.170308379369177
As 7.881788375821515 8.560520498361418 1.9710611420381778
As 2.1784137267940333 7.948260979574091 2.0418585894365866
As 9.035484791883526 4.816936779332569 5.269664910189766
As 8.541870735552557 2.591983834604662 4.3779796566591
As 2.9436229656930815 10.364594617375412 2.1849593068643762
As 4.625053695424807 3.868177651039038 4.1022217563817716
As 5.337600843980588 7.30828907211945 4.57589816545343
As 7.3674888492307 10.572411107381365 3.3674684445762115
As 10.441355400197363 5.9301049501579 3.5250738569867686
As 8.951339687967595 7.886867585639479 4.126231876423176
As 2.5379906814762183 10.059683335295265 4.638932645139145
As 2.8669867248466883 7.580912092558599 4.478495974535659
As 5.103432033107253 3.1890737630560704 6.568316543381823
As 9.785544443729849 10.239709778245183 4.055717071062314
As 6.318922895670611 9.459081291624416 5.398900665361766
As 7.673508397052647 2.1155345223786988 6.586147244688244
As 3.980202875000679 1.0182098137479452 5.989765613270972
As 11.53338020310657 4.77554978572043 5.47749196162102
As 11.507489904235511 8.22954244194623 6.36502245660919
As 4.4507417623349435 11.100445163525691 5.784039346760321
As 2.838872736053029 4.283687643516656 7.308427019906859
As 1.974060152088836 2.0331942004410166 7.444570916345021
As 2.5336452553716375 4.472623492256482 4.672074694418304
As 5.021548560249063 11.100445163525691 7.995711060365274
As 9.111248806733618 8.18098568033063 7.197185840629941
As 12.2747216708297 6.099039024742816 7.46934770132454
As 9.290684051166872 10.597064869327404 6.524257652508722
As 6.529761268042975 0.08743480566064966 6.01876506158472
As 11.509161929669014 10.387977726980806 7.707635208642911
As 3.3091340847062716 10.618806689591537 7.9661187421805355
As 5.661272454701296 7.496960526896058 8.136587026588986
As 3.2252084146262314 8.160430434745129 8.39592820576487
As 3.1478672909747454 2.7938898229813462 9.495724773794445
As 10.217952842534563 5.848972486053873 8.982684925367845
As 6.7719380243063005 9.731024858511315 8.676339001037773
As 9.815524302576929 3.7346308802518626 10.37021161340492
As 5.397365134221187 2.1135022054759016 9.126948841946223
As 10.307601714394274 8.822094024524281 9.319460392859106
As 11.251300946729707 5.551512507180823 11.21639145989561
As 4.937744944127318 10.81596108269695 9.873816864865407
As 5.289097900475661 6.761156258918957 10.447258019085096
As 3.765443013389966 8.762169923294222 10.790261658523042
As 8.919505343142443 5.382486385596556 12.03855463436082
As 7.790070080984149 6.898598434029874 10.345804203585182
As 8.207151430083178 9.332475652593484 10.706781048867441
