44
Energy = -178.89804999 eV
As 6.263664068586916 8.496919427977613 6.263664068586916
As 6.263664068586916 12.076753320000002 6.263664068586916
As 8.656117248515196 8.656117248515196 8.656117248515196
As 6.263664068586916 10.300312224945364 8.206392803035651
As 6.263664068586916 6.263664068586916 8.496919427977613
As 6.263664068586916 4.03040870919622 6.263664068586916
As 6.263664068586916 6.263664068586916 4.03040870919622
As 8.496919427977613 6.263664068586916 6.263664068586916
As 4.03040870919622 6.263664068586916 6.263664068586916
As 6.263664068586916 6.263664068586916 12.076753320000002
As 6.263664068586916 0.4505748171738318 6.263664068586916
As 6.263664068586916 6.263664068586916 0.4505748171738318
As 12.076753320000002 6.263664068586916 6.263664068586916
As 0.4505748171738318 6.263664068586916 6.263664068586916
As 8.656117248515196 3.8712108886586347 8.656117248515196
As 8.656117248515196 3.8712108886586347 3.8712108886586347
As 8.656117248515196 8.656117248515196 3.8712108886586347
As 3.8712108886586347 8.656117248515196 3.8712108886586347
As 3.8712108886586347 8.656117248515196 8.656117248515196
As 3.8712108886586347 3.8712108886586347 8.656117248515196
As 3.8712108886586347 3.8712108886586347 3.8712108886586347
As 6.263664068586916 4.320935334138182 10.300312224945364
As 6.263664068586916 2.227015912228473 4.320935334138182
As 6.263664068586916 8.206392803035651 2.227015912228473
As 8.206392803035651 6.263664068586916 10.300312224945364
As 10.300312224945364 6.263664068586916 4.320935334138182
As 4.320935334138182 6.263664068586916 2.227015912228473
As 2.227015912228473 6.263664068586916 8.206392803035651
As 8.206392803035651 2.227015912228473 6.263664068586916
As 10.300312224945364 8.206392803035651 6.263664068586916
As 4.320935334138182 10.300312224945364 6.263664068586916
As 2.227015912228473 4.320935334138182 6.263664068586916
As 8.206392803035651 6.263664068586916 2.227015912228473
As 10.300312224945364 6.263664068586916 8.206392803035651
As 4.320935334138182 6.263664068586916 10.300312224945364
As 2.227015912228473 6.263664068586916 4.320935334138182
As 8.206392803035651 10.300312224945364 6.263664068586916
As 10.300312224945364 4.320935334138182 6.263664068586916
As 4.320935334138182 2.227015912228473 6.263664068586916
As 2.227015912228473 8.206392803035651 6.263664068586916
As 6.263664068586916 8.206392803035651 10.300312224945364
As 6.263664068586916 10.300312224945364 4.320935334138182
As 6.263664068586916 4.320935334138182 2.227015912228473
As 6.263664068586916 2.227015912228473 8.206392803035651
