41
Energy = -182.8248386 eV
As 8.188673940090911 7.2405426825792905 1.3883843226096968
As 7.8982453163583735 4.822956469737245 1.9225212404466874
As 4.471313451445637 6.744196412031797 2.5560178274965066
As 6.1710730571044605 8.51008250623726 2.120180612043363
As 5.578480536451723 4.501194446425825 2.780048885606522
As 10.202548429654602 8.050050551054218 2.6635980044273557
As 9.588248294489134 4.133251590249308 3.631514393911236
As 11.236284566652348 6.0445271921253285 3.740191196280303
As 7.335813921019621 11.63529270009133 5.098210931330652
As 6.50432544326981 9.18704241121673 4.542677580006218
As 3.8115519988284623 7.120255802980545 4.980642072401951
As 6.1166160487087025 4.597118542593347 5.19884780520791
As 8.200490441837388 3.2828035038787045 5.525051816785433
As 9.745342334746205 11.009131644411553 5.29813143766419
As 9.314629487095077 8.511722365043541 4.944970657873991
As 4.612494172164106 3.7900323310929886 6.910184830798587
As 6.0876817855567085 7.002869853821271 6.044707121906909
As 3.995604064777168 9.599986272582528 4.816864706727986
As 9.407265794585715 11.301453430626363 7.780369752313636
As 11.203125976394105 7.243744933516842 5.902720544034428
As 4.885329499120329 8.252959927300823 8.472049290512171
As 7.1827617096863365 10.28993705380413 7.203135632212178
As 8.42066888296153 3.7931660386209893 7.968635596453992
As 6.164428020010426 5.09816392262091 8.249451803631485
As 8.82787269705203 7.628127471393539 8.00325825012417
As 10.6197273499253 9.260698489878996 8.649895849061886
As 10.117615484224569 5.540941620503502 8.475114217287883
As 3.3788537410607455 9.844235117567052 7.2532201691304286
As 5.197749540786263 10.762985004712794 8.681184735718832
As 7.296953994230637 7.767128264228979 9.986380220168037
As 5.1617281959283625 4.7212354962163126 10.590864729459645
As 4.064668625089506 6.899943780858637 10.829799418069259
As 7.6943281618661015 10.112853620436251 10.768454174897014
As 9.6895095076147 5.034260692669801 11.057440974644539
As 10.154934243614164 9.666199114967965 11.066993357897855
As 7.331008220927109 4.506334910516562 11.843258524248087
As 9.17724366106863 7.383403253807584 11.51531698209443
As 6.8655642116770235 9.579567937869752 13.08550577952595
As 5.04351783051609 7.7596665490986405 12.919085643971071
As 6.62094672211626 6.012374285429405 13.698317305495461
As 8.43888111760268 7.761662283510052 13.840902083832226
