45
Energy = -200.76747351 eV
As 4.725422621882261 5.817584760522106 2.134592104818989
As 5.13031582753618 7.424835515938056 4.029614178674807
As 11.356448717041012 7.1724011834315355 2.5111010342901245
As 10.084413952406774 9.280348413475728 2.0639947495070428
As 2.964826783535374 4.391170546162456 3.260956682860829
As 6.414330728640993 3.915150920375051 2.325500619281504
As 11.05015270092322 10.309245059102409 4.168886168556903
As 6.4487711361333835 4.134082595335414 4.782651675319142
As 3.8467008720442997 8.877834904681956 2.7067982851502976
As 9.359700833152695 5.878642387419343 3.2681025525404555
As 4.729271950932288 2.661545260243731 3.728156247577456
As 12.372378993502235 8.219386316592075 4.526477557096065
As 10.17050461585903 3.918847937138614 4.500609715533633
As 8.70266060696251 9.540550553767783 4.117110266930304
As 5.84732757862852 1.200113935848581 7.0797511644482904
As 3.100356122067059 10.550109698126855 4.349400152408763
As 1.205734086486388 6.977256894937712 5.876336117834414
As 3.195341449167827 5.484811382111382 5.504637524505529
As 5.036768118835675 11.25585586304407 5.741934999218687
As 8.55731613304473 7.276758855632103 5.1278408948187035
As 3.0303685862880543 8.675979794438607 6.094528562823618
As 10.848131525390201 7.188710852145228 6.168479811311803
As 7.926022435301777 2.3523186422727007 5.865363847371804
As 2.5366152502277894 3.631452254857076 7.095151772547642
As 11.688502445762992 4.867901723667269 6.194411217202759
As 2.023715227775193 10.196518778872969 7.769001483600902
As 4.345473298934065 11.10556344591884 7.948807969456231
As 0.880138874462826 6.643655548034948 8.375096644932613
As 6.873479145225539 6.907408042165817 8.131283204108321
As 2.755756412492026 5.176334697696627 9.0120591037133
As 5.565473871301029 2.0347448477879593 9.39048201386364
As 8.221516950611166 4.219695934219587 7.528384878722069
As 5.001780406594513 3.457229516435417 7.453777788532218
As 1.7489116364252024 8.631301315304318 9.714890033386252
As 4.340398265758432 6.94922883390644 7.950543502100812
As 11.280606944419482 8.19709697647349 8.42386227189437
As 10.561005015800148 4.111395374023111 8.353995384210496
As 9.511127578053303 9.82502298632571 8.634909214337794
As 4.76787235901896 6.409991521664158 11.502829788426084
As 10.7845743445484 6.181054340224553 9.799943671297525
As 7.695080442698951 3.310454691365431 9.801792390381536
As 6.77961205394778 5.689389697800222 10.274314898729314
As 4.246419592316606 8.326848594122527 9.990618246176497
As 7.677921253414175 8.790319619019591 9.790974357240055
As 8.774964669076622 6.9980614019979805 11.094257666888126
