42
Energy = -188.84811625 eV
As 3.7560534646306727 5.8013825187250285 3.1736312888092835
As 9.103147916864758 6.098910288158567 2.725392812408104
As 5.8507656625590245 4.803233932066255 2.3377239575985
As 5.5705993548445685 2.4668705928433834 3.21827154600586
As 6.3375245302244565 9.260595662448758 4.143774722778573
As 8.692179090442798 8.470969168847665 3.426129762366443
As 4.218826893712157 8.261213915807335 3.1883291368614795
As 3.381484610814268 4.926343854390965 5.445764556260079
As 3.6109044846820137 2.5742622256734746 4.756611728296628
As 11.131569189982141 6.115726864713533 4.125119431018015
As 7.305809191280382 5.367314290888796 4.287427064995484
As 3.533497258719618 10.857540822313476 5.76857071212875
As 9.0069251457649 8.145668869901206 5.879010721795224
As 7.654415619976627 2.908499152205355 4.542566703584259
As 6.479957573858871 8.278299120748343 6.428128714535456
As 5.138689575641696 4.696564631897128 7.2784228213719535
As 1.3646718364644776 9.685522798767627 5.822614360487463
As 9.95359187870361 5.801604122053675 6.200572290552593
As 12.747175341651667 8.268172958423055 6.280139333643234
As 10.902163556581572 9.809619076342683 5.630368324061854
As 3.5002881479058203 8.374247093786572 5.577832135707229
As 12.055683326940125 6.194849156429177 7.455876305292936
As 4.231236302377679 11.078931207580753 8.132750968457321
As 6.644437415183954 10.325334509893278 7.845041912892801
As 6.032049953449625 5.484095279943374 10.683900338855686
As 4.5726249430348345 2.214767708813451 7.071888394626912
As 9.950134277444159 9.306151969192937 9.01436750806819
As 6.879270057825481 3.0070298459000817 6.898829825985559
As 7.626728801805335 6.784986680177781 9.245309357925276
As 1.2562663487977026 8.6844415277034 8.069390593037898
As 13.2649198353945 9.857858862304543 8.210550905582696
As 11.125994864286257 11.141969763186603 7.775156403854659
As 9.466309782985087 6.2399619449853105 10.839832120518352
As 3.099111217044857 9.24131555126171 9.28937084296589
As 6.601927464293165 8.966497917275921 9.992932817820318
As 11.84474786650619 6.525028670971463 9.933092033409304
As 8.577427850028416 10.137965248192382 10.911065039354572
As 6.8043990822118525 5.252312868424043 13.070870346943567
As 12.065869957664534 8.967549050462239 10.222977423611765
As 5.198171708165224 7.02732907968662 12.46030579293499
As 9.396768241656243 8.236985406615661 12.313177194729509
As 7.341824224365845 7.628219636765318 13.603055594633561
