43
Energy = -191.63971155 eV
As 5.424426279793185 6.332137607372896 13.8855421243972
As 4.349067201174827 5.781070687012099 1.4052119381792756
As 4.142917459522197 8.257409620613041 1.7582447985670548
As 6.8647123934885785 8.035246637851627 14.367224584400338
As 6.6178918171726515 8.388162075394572 2.17485804845389
As 6.221607138879946 2.902051422414529 1.4428844698762318
As 0.0075691267086460765 3.6600533660294348 2.5308403782108084
As 1.7127619623672148 3.2724911830220966 4.059245076192253
As 10.736967560671378 5.473043232876063 3.17884229958715
As 7.2112817638216065 1.049212300725869 2.6422900969674377
As 6.260716506670838 6.0936943278675475 3.047513812760305
As 5.212834558970658 2.2040144893796145 3.6022513457316916
As 3.0331143328586947 8.543960104595508 4.029406006830862
As 13.386846424818822 5.575299779279371 3.080657415505948
As 8.430304689380396 7.343369061445269 4.821326626120401
As 8.110736250168905 4.688574375161143 2.0664681717840634
As 10.871142692636013 3.67571525674423 4.7616673539429115
As 10.835625802175306 7.569156578311476 4.492590456556079
As 6.512785271564851 3.6264522914247035 5.3320320824708585
As 8.487287633483804 2.9692968509947595 3.8771880572069866
As 3.5780254972948367 6.560467249594137 5.42058274833002
As 8.266639836854273 5.734217027301753 6.808794306424245
As 1.4102995144417334 5.221865812375329 5.4728418176075895
As 10.509901347886109 4.738617514100031 6.9938772673291965
As 14.13211363373074 6.602652318556136 5.023457631511869
As 11.52992584037811 7.000560654483858 6.815635852356597
As 6.731995268073731 1.532110383510884 6.673828639558739
As 4.098524443457323 3.7813260692647956 7.124369835665193
As 8.219671018940138 9.165595463253144 6.542945937320308
As 5.0085839647958705 5.375246749217417 8.84237834409359
As 4.9337289455389035 9.753405491465811 5.197349649436069
As 1.7326814379111857 4.307245581677147 7.834299269033887
As 9.415533967145594 7.5929204748450445 8.113751894588551
As 2.451525584777304 7.924428948695622 7.211257485392064
As 4.541257128683366 4.186926395873546 10.983691672858772
As 5.956589920275324 8.026184647834086 6.709536373221752
As 4.892487828204491 1.6495427396236302 8.061478316357315
As 4.281965403493252 9.604507456029433 7.61307579684103
As 2.67595386338003 6.291078439696146 9.087146636847729
As 4.405338510947683 6.422220199429644 12.141302990142291
As 6.873619929012054 6.820705706902894 11.929768325671043
As 6.881988296627986 4.320008364197301 11.944249767976494
As 6.028499778525942 5.6207624358632176 13.8855421243972
