51
Energy = -228.30914117 eV
As 2.6682261403251686 8.466071718502365 8.201799657907001
As 4.120503404879595 6.853924791656204 9.45315437824462
As 6.3302801451034165 7.790739900636544 8.657629358090862
As 7.52033410348442 5.79297999424637 9.5852909658453
As 5.483533581435619 9.53470285923808 5.745447810289471
As 3.557416935222192 7.919347562195358 5.9074176951407456
As 1.3754543296595987 4.832566948841792 8.718376925455557
As 9.096796381957851 7.884501580326568 5.707565718355758
As 0.5295963971306821 7.1565962438181385 8.330469044847119
As 5.079001712453815 2.901829288398622 8.753217950224254
As 3.758804860259861 4.933026573715065 7.810382249030483
As 2.3141761133310466 9.33182915471918 4.232921070200199
As 8.908037995882545 3.099932606847256 7.37817889562105
As 9.025213069324852 5.717100356695901 7.517709360740681
As 6.560843254039986 5.720933971322538 7.29220858984242
As 0.8851861278200738 5.5627470634512335 6.398804747116928
As 4.541160285625077 10.342585941770116 3.5376208670096445
As 7.81682005110021 8.197857979577485 2.731028180633757
As 6.787908664841645 7.593005502840124 4.911635241051474
As 6.909705834940794 0.2870172188657174 6.583971113751146
As 10.106986641313917 4.135964446129009 5.861239730146624
As 11.123092244148543 6.792007940175558 3.624663258162459
As 1.9024735618782886 2.5106407248942197 6.880423912512739
As 6.514073104421869 2.808263829078877 6.656434389408942
As 9.627320196559744 6.655801403623782 3.6234136503648986
As 0.888690857510567 7.040607012139674 1.3850423609073834
As 8.204094151380666 4.532470502595247 3.7495376708102603
As 2.877954013145613 7.24469106209995 2.922984662494062
As 3.809579691457308 2.197251824276825 5.336956920879292
As 6.291570333309733 7.253235972612695 0.9551320410954416
As 4.353112924383931 8.764840319907698 1.5779154469463108
As 9.691894338961118 2.8947750910666987 5.037370388158359
As 2.2036645588758805 3.414034159434215 2.7284421065270372
As 3.813950712496336 1.0502309310947706 7.583132335259482
As 5.089045802895447 5.182835413503786 1.7238081739232807
As 6.274315474288922 2.2036816957468064 2.49761443341895
As 11.104708664194037 1.7548796201746326 5.619790545320917
As 3.3026354901509545 11.116150474323046 4.7899108138409705
As 9.492020996782593 3.9460987372464658 1.7341765346245805
As 8.801468798217856 0.524814943018641 4.887578807041045
As 10.352450563877976 4.616345416009172 3.4528793512668807
As 3.4524854871014656 5.447951882679954 11.104373743710719
As 5.379788961272498 3.8598079244887806 10.86982049237875
As 1.2483021209255447 4.630900728950113 0.7430188669844987
As 5.734233305090394 10.342585941770116 4.714484468637919
As 2.5834576239711486 1.6388591843309965 0.9910693416284844
As 2.0145767616529957 11.109711630710601 2.6511135596803026
As 8.08627254463124 2.3889725216990145 0.7927769289047593
As 0.3549416962347026 1.738930155937303 3.15101253523414
As 4.988872910478529 1.526928806466377 0.47219215650906704
As 7.26116251492709 11.237872406328666 2.939514060366702
