55
Energy = -248.14970688 eV
As 4.455611698923639 3.2025317922463894 13.182237313295952
As 2.5579218777319292 2.4400051495648034 11.795218256908717
As 6.044922651483106 3.4008174853797235 1.7701251704281238
As 4.008156330619888 5.620981649296165 13.321908836584361
As 6.91992604818169 6.949406659573414 1.600486346122111
As 7.758181142497252 1.8802769124389531 2.726896601601784
As 2.6686039077827064 1.9425552510705577 0.09571441679175474
As 6.986129558716351 5.202815568667923 3.403333276643927
As 9.168539592257268 3.9755290826193295 3.115981539898398
As 4.415286864771237 6.81478998757142 1.327152714543715
As 4.029095610103016 3.0387703264168247 3.1462434294894304
As 1.5938142484868274 5.738614055604126 13.747790739585744
As 6.9117965977113025 9.089948122521859 2.972781072944116
As 0.6436512328424929 4.0486473565384475 12.26023253065021
As 5.249168003500548 3.28959492600113 5.34433993209451
As 0.8340951188988568 3.619017718211024 0.561669806369408
As 9.25158465568585 3.1161426767689404 5.4541218337381006
As 10.54217465992909 7.139306065415055 3.277952453269165
As 3.8121446720660517 10.39817092661188 5.326709246738775
As 3.3070990547102697 9.692359945014422 3.0046177044672455
As 7.074739590931192 6.499108070130116 5.779558893335898
As 11.621012369580408 9.257056207770317 2.872133171588256
As 3.9483597873453298 5.583950933214382 3.479059070162376
As 8.551351958635767 8.100495420470864 4.577717468804093
As 1.4795748516770364 5.981541655807702 3.4828491018719867
As 1.1414043475710818 8.418441389940215 3.0125946270478816
As 7.177743614470223 1.688310704429253 5.203826869161011
As 2.282133748235602 8.97745535865034 6.713582054762148
As 4.931559807183963 8.394294777440868 4.369640999859742
As 0.7874167414120395 7.575280727097142 5.303183055400696
As 3.49666933691572 1.941446719122669 6.5962210666095915
As 11.867314186775953 9.590343628117957 5.304130761319852
As 3.8926164727681054 7.240453688277907 7.583382549613202
As 6.909191768068152 2.1501940231710344 8.441211174690883
As 11.996258994137557 7.10036683659209 5.25267148277078
As 1.9508096897439684 5.724133944122097 8.097747426671074
As 8.652429308493344 5.033341699465392 6.960115912711081
As 3.3853117671388784 3.691906171822733 8.358819947629616
As 4.979588994026177 0.6390882257863124 8.129951538527497
As 7.353133597791517 8.171137795143265 8.519733789200243
As 7.416844451325958 9.30944569706558 10.794819333644563
As 9.474969759362699 9.8906354015786 6.02685173531873
As 3.6656513347848394 8.161716335170679 9.934956258713688
As 7.612848883808764 1.2786952854781592 10.559915364226223
As 5.724375224929436 4.3265421532914194 8.97918496807924
As 10.762980149732584 6.335552535360239 7.336165674017974
As 2.049364991556196 6.317293815937073 10.550196808806968
As 3.7333696648973347 0.7171459933478579 10.316623202477622
As 2.160872178154882 2.668623029718858 10.192653265775206
As 9.797615140959852 8.535926946946077 8.072593628835753
As 5.583485953202941 7.779963427490496 11.492751016502998
As 7.7039696204949015 6.866937574242251 10.59513266093942
As 3.0843105012236216 4.3520464630233535 11.783823922235793
As 5.571855920816334 1.5745384145404528 11.795218256908717
As 5.514998188604046 4.020343716360499 11.42000698341618
