50
Energy = -224.46450335 eV
As 8.198689489340927 3.8386019468194887 9.905780832327586
As 8.257883444728842 4.807078165684498 3.3248764372052055
As 8.154931522991575 1.2439656403830717 3.5355812535154008
As 6.069341358538272 4.547756632617336 2.033998429354838
As 7.688208460157353 2.370779181760681 6.717365228536655
As 7.7663992473308054 6.823287110791882 4.723157592774301
As 7.065516072704026 0.760150540077137 1.3205544198725028
As 8.298272796467755 6.2017854384761755 10.61948234678549
As 5.888700340525148 7.93686589719033 3.47075869227498
As 9.69459874986534 5.429885388456726 8.725566228376112
As 7.1537406534860875 3.0690803143284926 0.36019737618088465
As 7.118891333705201 12.050917873189542 4.749993626688495
As 6.23760229529911 3.558460430147241 8.404150667811548
As 6.7527728981582 3.1142552128356167 4.494192581701471
As 7.687758364811231 11.19028298922574 0.8274137299044134
As 8.30947575253674 8.451873121275128 2.9102891043426946
As 5.491527086972011 5.687641659189903 12.549788944515063
As 7.904304175960825 7.075413582756059 8.30507629418233
As 4.938917003106953 0.9622588650812142 2.5267972603242748
As 5.045290301965697 11.475569816285763 3.433969901419058
As 6.137703048237551 0.4011511352472635 6.75284363677039
As 7.004971191530653 9.908703064122971 4.4297476960263324
As 4.818506024708363 6.334205408339559 9.811535700529557
As 5.83829742595374 9.837640487270733 0.7644506761441464
As 5.860057473803599 5.862398030792101 7.574760697783813
As 6.055751511726624 11.475569816285763 2.625502062737322
As 4.946371461381968 3.333894206551264 11.943402297335192
As 2.6620303336235684 4.506075469108286 7.374727441133177
As 3.1578502945617593 6.606393800653155 12.640821378264016
As 3.1319166332950465 12.099129989344387 4.927227566305154
As 3.3647654156748312 3.1637004738232486 1.139991033124906
As 1.603736134026037 0.09458873653525836 3.0274096269398663
As 3.07342380219996 4.5804158906906896 9.873044129970609
As 2.3276564107512416 5.928897536093355 2.1184706478576216
As 3.613089212627324 7.038691767257704 5.008817338862533
As 2.980488066133874 1.161237887622478 8.01933396424963
As 2.39417684284582 6.998316673467756 9.884858404812473
As 0.6076507798287855 5.302863439717282 4.604657666664421
As 4.0713531691080425 1.4992317438118252 5.809997095358722
As 1.6269866529211219 4.6477238739671565 0.09403173832003077
As 1.0304846588774466 2.684472740723727 7.899493412765106
As 3.0303640860252323 0.6323894176762078 0.9761205609539236
As 1.1828012787395386 6.5116474958284085 7.756958501498213
As 12.775741939217895 1.9809194743438765 5.759296511606102
As 12.476599836898359 3.6966153372726755 2.9321684973553612
As 1.6418451338661888 2.434055654936227 3.9022723315755377
As 1.9893618398254935 8.697593977540578 4.170618786232705
As 2.397151676548811 8.390140469534119 6.626902916960632
As 0.3132080054177656 7.225673898554489 3.031357702441084
As 11.352061689745808 3.9512164594348627 5.1562705928642245
