55
Energy = -245.6399441 eV
As 7.101900195180545 6.129088111663149 1.3436798320369947
As 3.611005053655625 4.247978499816036 1.8726493049581507
As 5.383753781213753 5.365500911727982 3.0059141520196624
As 9.215448166233795 9.959990346434255 1.9168368157322275
As 7.391168641673569 8.448482064066793 2.395540583777296
As 3.694827048115649 8.609230654178555 3.158801246134591
As 9.014811337548343 5.064705481920755 2.5786093279142155
As 5.471808370074689 10.242928558774285 2.580392190259621
As 6.267784931420064 4.177656163512614 5.0839116473413135
As 11.200089915790992 4.895955852073035 1.1485305924498093
As 2.5689015749720516 3.7320418000627193 3.938403074896345
As 11.550646598305503 7.205684231437691 2.019576744046958
As 4.960782404477244 7.141097849660713 4.686627471318488
As 6.4333397335130265 11.249682729510495 4.601543203085531
As 8.283005085457484 3.0854574460369073 3.989903510620703
As 4.309260568478212 2.5523945997501363 5.2882041557723385
As 8.878350682405502 10.287840228309317 4.292355428879283
As 2.174469692794212 9.78320080496564 4.731233184812705
As 10.162277206307188 6.672831652399474 4.077367375267487
As 0.962354615060629 7.696720655868385 5.2907903516864545
As 8.003167281775935 7.942368204330217 4.731490416627107
As 2.676898142094655 5.8511388963703 5.5477490916761205
As 9.152334279013655 4.320678057354157 6.017261437481896
As 12.656481626713298 5.239638690098496 2.988000717143809
As 12.31532397975614 11.189716307955488 8.326330394512128
As 10.393401562758497 11.810076224330743 6.906419153939131
As 3.0890300880757944 2.953111701109791 7.547070391855616
As 1.0979507806097837 4.391935444744847 7.0227237491756735
As 3.6752475470474213 6.717834878120629 7.793311982993893
As 8.173433973131877 2.6294243183764614 7.564448573486697
As 10.585750580027392 12.628831351902923 9.26865689961677
As 11.360421449708591 4.075593625303927 7.263283683363542
As 5.674441307401915 9.581545431124606 6.330287922144919
As 3.411541865396548 10.629068654249751 6.764385395708824
As 9.194475913110793 9.652810916719263 7.55346591068899
As 10.46947046905204 2.12675897167125 8.579906691684993
As 6.989049229321699 10.522806591621515 8.293925411771944
As 4.756390807863893 4.52076700550324 8.596699614670662
As 1.4960090287260133 6.0614539857200525 8.798398019774364
As 7.727102419008762 4.712622928706389 8.80745021929332
As 0.5856887088111745 8.179300160018109 7.71192213273688
As 10.14713916318314 5.5994324809079545 8.903009173482491
As 2.6972147820493872 9.133831910114777 8.56634652501991
As 10.368960509139146 10.166420543505241 9.692701295567316
As 6.495833840334937 8.464976909892899 9.747581145825455
As 10.96644929799377 3.801323656232383 10.382553930865468
As 3.9636854275436804 4.7190751822106165 10.970197281817828
As 4.404136778473136 7.171623102228458 11.333279299397141
As 6.740638589134974 9.504964404154952 12.014815670654528
As 7.541812988953799 2.809245096813407 10.631750381579362
As 8.62404232354889 8.337182965515995 11.014354168664532
As 9.154786084791231 3.8122509800373265 12.171532752366252
As 7.489193810002881 5.725999475548147 11.550689461651594
As 5.921319009058916 3.8727600792349777 12.217384791512593
As 6.05936421513537 7.289135687528483 13.08391957966528
