53
Energy = -237.53120656 eV
As 8.5842188276414 7.530261350183777 2.3980841499554524
As 8.818703407192674 6.019556876235101 4.334063438890932
As 7.667266412846177 3.994098572216222 3.329769520383837
As 7.76560042367389 9.654123432244926 3.3648181962716177
As 6.715612693237331 9.148305114282783 5.554587363069974
As 6.535676350612352 7.214481021848458 0.9251714190695989
As 7.379019334737222 2.8142823328313193 6.6879643524085886
As 7.235868476002249 6.763919113806563 6.088184838026492
As 9.136362166094086 2.6465005993575783 4.8933709255005
As 5.1988239441419735 5.921152398334063 5.016935473185184
As 6.017047923106582 9.666169191910946 1.5093927588166658
As 4.338476780143477 9.519277649718374 4.80917523935307
As 5.725389431302214 1.5142950801998958 1.859909562775612
As 5.197123112158081 9.324717283560405 8.816054194889551
As 4.9728800260112545 2.6515081143131773 12.356014469126501
As 7.798562936751766 0.6531431558239426 5.537252714913388
As 5.021511502087965 0.44519421065437903 10.257266665448137
As 4.9913116808941735 6.857230085103334 8.850115578503825
As 5.746862881141122 3.5049830401651305 4.894292674083214
As 3.5864090356162106 6.108620821491539 6.946378571222499
As 4.900072876822289 13.023604657191875 0.5421528448207099
As 6.479999266851412 13.326635901293498 3.550392084215422
As 4.433829660439486 6.463459452943526 2.1085483819571946
As 3.8596765707911187 8.901307827506804 2.4684788946416196
As 4.409014860342576 5.789386837622542 13.135891375703954
As 2.627560821082837 8.215873303134495 6.07574347840371
As 4.496019028161257 1.766060627452032 8.24472673756084
As 2.2049150116186125 2.9532430894799995 5.8445087126544975
As 3.308764906904936 8.263190483975656 10.02156159679061
As 3.9740813482267474 3.6976187079346343 10.257266665448137
As 2.762259274548347 0.21046464623324584 9.187434763680661
As 3.5718393721818544 0.5543471779913515 12.069074812836911
As 3.2061960012391775 12.084079821129578 2.0959043229737886
As 4.566470473060643 11.835490525844751 4.177414360479921
As 2.734743037176714 5.654716307702796 11.163595104509453
As 3.1565095089293216 3.5444197136488356 0.3187346166092659
As 2.8657230858090283 9.692768557658487 8.038601138592172
As 5.714518357781164 13.075523667100835 8.005023468284447
As 0.5831134457786249 3.9748429518449897 7.397234065569833
As 3.621708619346255 2.5650280805934593 2.6132114036807446
As 13.38785262684372 6.52545233932461 3.730502338496873
As 3.61896516639496 11.679797183109798 7.927776800644982
As 1.9534229530605323 0.743161932708058 2.07335062262325
As 2.5864003108105695 12.091458344197878 5.698445918232822
As 12.852079230062863 5.748606006216443 6.089454534218798
As 1.2186006319137606 0.6421660067732499 6.1388026585625015
As 1.5614600644007939 3.4775844246913152 10.766636691728648
As 1.507714088540987 1.8413905424235326 12.728507561692638
As 12.031298027277913 3.448143986562571 5.899914260800735
As 13.124684134322095 4.626922317850038 2.1546188058229196
As 0.278695326616633 3.051546399266352 4.147020846000374
As 11.212177025987858 5.646371403040578 3.067464223043713
As 0.19735049163934312 0.5735122456009116 3.864568049992724
