54
Energy = -240.28080086 eV
As 6.323018540753609 6.70367132701387 2.9601538359541513
As 10.647641020690585 6.054877821370465 2.940437855504487
As 9.395048648887137 7.9546693777797195 3.7743238451239085
As 9.351813374802026 10.781534207972523 2.765899153179269
As 3.894775641988967 7.027118403995127 3.3892347093504265
As 6.774400026804137 4.334401057274727 2.406003767223007
As 8.890780565466056 4.504349431921368 3.771359325276659
As 7.272199070991397 11.401357249201185 3.9370099702587877
As 5.127793024164181 12.137322117187438 3.1908264317886923
As 2.702692140396657 5.297941529533451 4.334433693300894
As 5.866897996639865 2.654192909932048 4.064645290514063
As 10.496266745402295 11.43075446001383 4.758208601158416
As 11.997696372848116 6.263420413572052 5.425292982190084
As 8.514020992375128 12.606681008355624 5.739239756776609
As 11.136610320012293 8.693513767603807 5.636734972650237
As 7.807113789040402 6.4641692947231375 5.005477824686536
As 3.956098085577196 3.4850555740311195 5.44343639408393
As 5.160897657953511 4.8238474743759285 7.188809144209862
As 13.465080587152478 7.011799180096792 7.539023642177934
As 3.9341995765072375 11.527717836206243 5.203296324661966
As 9.758088983631444 2.85211954499896 6.049833610943283
As 13.464122391147445 9.301062210230654 6.711414349988175
As 2.663162915990495 7.458370542448829 8.082472513485886
As 10.169948413888534 5.240809281518306 6.835796096283774
As 7.360258771419179 1.9960736994651247 5.998594275760873
As 7.3501102844780615 11.048895672193208 7.361395353551674
As 4.628827978905176 9.109156434909112 5.364158796150744
As 3.1046414234080695 5.039797995227408 8.640234571475961
As 11.72022302879217 7.660165618340839 9.209566652681948
As 4.9457954165776306 8.375251206232381 7.756569812231119
As 12.69991119072727 9.955240717591682 9.000369937631362
As 7.041457860792233 9.434182082590919 5.4612285667281695
As 5.195614944053379 12.326404454676348 7.218991958514845
As 2.1131876769468207 10.778260554775583 9.224797479741989
As 9.796241762703943 8.38892924800195 7.732051745411313
As 8.094910151144681 5.8046226255989115 8.972350020691715
As 2.017753774621096 8.548692737726963 10.236406028620088
As 6.139923342988201 6.627379376679234 10.30069879035101
As 4.488775161196732 10.629832643233845 8.87499427144515
As 9.90362933655349 2.216015397605803 8.483451639921984
As 5.89043419337845 2.5608433296186535 7.967550397952074
As 10.341386495460357 10.754526587423037 8.48821130347468
As 4.506566748506728 4.820352917346536 10.706264912404718
As 7.885011676946293 9.038500309192798 10.686918332448183
As 11.298489072918414 4.2126103155306645 8.867391054940299
As 3.7521543541772977 8.802795780989037 12.012220538734347
As 7.852724334252815 3.3688969592736715 9.335148721065012
As 9.781143356289428 5.282769910775511 10.781689821626662
As 4.036341512539198 6.406770009619048 12.648360972830254
As 5.8711533577739345 10.152662134636751 11.75463558067942
As 6.554625303503759 6.359561684059064 12.728472962411319
As 7.369170833964991 8.734121550617559 13.131335882287212
As 9.636224239433243 10.739482240128403 10.845428056513667
As 8.46428018002658 3.427784432173395 11.668482118540943
