55
Energy = -245.42363024 eV
As 8.911165011706498 7.219594517843918 1.6002161684358884
As 5.9884506158078405 3.675912864830273 0.7222891499327629
As 7.408239109353613 8.344752444094047 3.299023717206191
As 8.944305363508382 2.4562527936919905 2.6934620990103375
As 3.067560555450837 5.463483644733643 2.6058513069532956
As 5.541127523198722 5.397328186074364 2.4178046617206093
As 7.203263233424095 12.158666064960887 3.5260363446541683
As 10.892656665673734 7.982294193508636 2.9302381088988585
As 6.050569318887963 10.278950660492807 2.3843264555672126
As 8.747798487583484 0.27029110154937724 3.866163718625543
As 4.967969257797895 1.5103367385522974 1.5491429406713386
As 3.0288949459238146 6.78863949891305 4.728217872065605
As 4.154730141499409 10.30446398922367 4.08484477120705
As 9.41919513305782 9.611892271195982 4.12932462670086
As 8.210500578940827 6.305605456481351 5.343903271321889
As 6.46981903840686 3.034598876776857 3.081894252093241
As 2.915258947438456 1.3849637958853755 2.639354049881574
As 2.3191604213613366 3.444746705090473 3.836214777832187
As 7.908345579190161 1.6391565175071012 5.813217073958413
As 9.826069680584483 5.83177086798091 3.4853105977634895
As 10.153647444269861 2.048060903872392 4.836251662657408
As 6.818879367447136 11.786210727264965 5.948388382224965
As 4.94194133654809 12.662645465781019 4.549120677457485
As 2.5676112209638142 5.780408027736734 6.990274577456747
As 4.275678336857055 3.210797328362604 5.375482488631993
As 5.868085037753985 9.465721815669363 5.775692287368388
As 4.859779253301525 5.668123104836833 5.957179655576099
As 8.749058334394316 8.574002800853156 6.270700132381679
As 2.7858567349416004 11.768464232010068 6.916403912824315
As 8.727158187234538 13.151626964137991 7.530771075387264
As 2.4439289765190706 3.2405266950566403 7.0892541684245565
As 7.009359400518935 0.09633494596726508 9.408526391879802
As 4.562895846580441 11.660535557251261 8.628222534903545
As 11.503879632084066 6.266635874117368 7.666474016288914
As 5.420302968413961 1.3369997002572547 7.944500546420686
As 1.0029272157616052 13.151626964137991 7.871383553389224
As 0.76019855760198 10.658967885244346 7.753217431530344
As 10.487772111941032 8.548251706404994 8.034225459562759
As 4.738166177103322 9.222705971201961 8.024048036263935
As 6.415282964428584 7.9192793083846125 9.44343532223779
As 9.615690440928413 4.814670247693466 6.929617952775409
As 11.442791204999173 2.9930151523682924 8.156655770774826
As 8.357107526655918 1.7233624072441485 10.762486370087423
As 10.23774468637594 1.1490363861814041 9.209008837633158
As 11.144702001098953 4.897982210525152 9.751817755956408
As 3.8953601148018255 2.907119024330203 9.16592745002502
As 8.838088706164141 8.427396504501797 9.93386685031913
As 6.022161712133259 3.7159386362302205 8.181533966360936
As 3.2648858476458 11.503485775745178 10.718632585967196
As 1.3387654565191396 12.996571082096082 10.386018184753164
As 1.070225264618599 10.509159461566908 10.259280590982279
As 8.75734489999585 5.474802848215629 9.203146683125864
As 7.2176632922096955 3.8694512275561155 10.348445732158067
As 6.146179161756357 9.794997969984621 11.127468194206886
As 8.218975509274596 10.705892013015593 10.750879336146003
