52
Energy = -233.0009981 eV
As 4.1309758973767705 3.1118571793682888 3.263291642819102
As 5.629386935275182 7.480376325965489 9.744998051835486
As 3.7682943097605013 6.166919334009866 10.825596210958292
As 9.917287425446252 3.168663510328414 4.638845911648799
As 5.780508495844982 12.449767995687532 7.392531854116423
As 7.536005990314577 3.387874350578059 3.822914608916953
As 8.637461867761091 7.290799281084934 8.22574158154662
As 6.009185364813409 7.03157637653977 3.4253425840195497
As 6.995361672716491 4.558193799736237 11.054281930042645
As 11.13268014026449 1.092657456143114 5.531652836614562
As 10.001570070399028 6.619075755560885 3.3693519322445833
As 6.846293978220277 7.214552062006566 1.072920630784483
As 1.8955512982023834 7.731844878491691 10.29589637179384
As 10.523658096798107 5.898178388462441 7.4507911795452335
As 12.32462825520443 4.582876677996283 7.685087480034336
As 5.956714999780916 1.4469581043822213 3.818639255126963
As 9.207161362808385 3.838983606033781 6.9151789455223085
As 5.21670886235087 4.93845173177062 4.6516463325746304
As 1.490003348957562 3.986065032111894 6.345281933744101
As 3.047790443631922 4.794141203776149 8.700490390955787
As 6.394617801091808 1.9977304289805353 7.805304194898431
As 7.276780676878586 5.693280758509045 9.182200032106655
As 12.682609525907528 2.3948467419216612 8.950436502151787
As 4.597326906152953 7.442709052992232 12.680592324610805
As 9.380169282622699 8.664783731445553 4.602939786110111
As 7.472046044002655 3.1505519176535235 1.3598731779000974
As 1.0715399439737887 7.088779851738782 6.065801894952824
As 2.9607209232093656 6.241797295833191 4.540879828590717
As 10.980523044032523 2.236697646074022 7.753246585528182
As 6.072448123052154 9.48609872932998 6.815751689369473
As 4.841969777142346 3.504609118933405 11.835534846200503
As 8.23941024420322 5.2899699277639884 0.31751212994467515
As 1.2092178375854563 4.619618397637868 3.876907206245628
As 4.784902396427912 11.642419787542273 6.505874280835742
As 5.196963952403725 4.330382721988264 1.3617977673653456
As 2.8747260129907124 10.76135592728754 5.175604462559242
As 1.3254468025716233 1.5736681035931448 7.092362411677591
As 4.549041678233572 7.628640164615107 7.506574221666681
As 5.214276973026028 10.128915978752882 4.5783372397633
As 11.244465372346491 7.236569187557903 5.437644935959855
As 2.3592497171269176 7.71084473765046 2.6051024468523565
As 2.8792246473977183 6.029706746198526 0.9197164119186944
As 2.989174181323737 9.210438557496769 8.579754121242319
As 2.356654980450777 2.3489308993607025 9.232808903284802
As 4.714040269688692 1.4578092261483735 6.063753620733408
As 0.9156391851205097 5.465342084122204 9.609667067208948
As 9.885023742445648 0.04776292507565105 7.402061445985297
As 7.7507687463056785 0.6446927941916479 6.235532368034261
As 0.14007048552295015 6.934502288269728 3.7553096909347734
As 4.862481451277766 5.799907840801604 10.825596210958292
As 1.3764395665627223 9.456572937922502 6.718755736775375
As 8.023427497251742 6.598656988708735 4.866293492656842
