5
Energy = -18.69006332 eV
As 5.588951053090007 4.60914173363701 6.910329182802895
As 6.708755047148633 3.274741915579571 8.151958831119506
As 5.385678050907408 5.364796064901754 3.4440326887888126
As 4.520261112874619 6.176815046249609 5.564853940368649
As 4.2178972430417785 6.910261601599524 2.3013638560383822
