5
Energy = -21.37449223 eV
As 4.723570307790014 6.014538234561069 4.822819899820116
As 7.140860972745064 6.525791230941009 4.891995362783779
As 6.880452010293778 7.548932031871874 7.170215505776696
As 7.3970903453675065 5.175392871837227 6.989668129117482
As 5.005706905003667 5.883026171988734 7.272981643701841
