55
Energy = -246.38304272 eV
As 2.7017890785426357 3.066285157030114 2.082805028893601
As 9.301765065342957 9.737288962660772 2.325246537527192
As 2.897554019552446 5.508319303117207 2.1059739157265613
As 4.611447200361223 3.4940257015815948 3.8480489702841196
As 8.150170134547794 6.6348601393328135 1.5841128872020316
As 1.0749670502573836 2.6380991391725703 3.880820279752308
As 10.388010746316638 5.922790986411066 2.316439109229537
As 8.28864907993227 11.9057514161155 1.7632634752020522
As 11.597288862515244 10.432319392073204 2.845721655113825
As 4.677126378255638 1.96359137075426 5.752130914595065
As 11.125577405983476 12.38554852879116 4.298340911917364
As 12.30973763871526 8.738081732315209 4.575834776740669
As 2.682489188611809 3.5258044999428377 5.642778428499729
As 9.41976504297293 13.508824322206966 2.9234495763147197
As 3.453528653291396 5.806151280818818 4.6412371768554035
As 10.811296895677392 6.744421326453983 4.629588944196716
As 0.5686842228885889 6.297684078660403 2.404828817208116
As 8.415250698802978 4.514573937594311 2.85994311434356
As 7.129544581936751 6.4122708154702925 3.8423878518603893
As 12.55748932429094 4.627933643038389 3.931246360824876
As 11.657074830344298 10.118005582444368 6.5862266784184476
As 8.6468836710611 7.562692084701131 5.432284620825426
As 5.884585768325815 3.848369890870826 6.724988442109278
As 4.664854446780003 13.223432682904827 8.245303042938067
As 1.001507621536505 6.453716521364957 4.900735274872644
As 4.787049093982059 9.915389417185729 6.8759124814278625
As 9.584826174359764 11.31057723660189 5.936930521873993
As 8.135116846094473 9.83731342121821 4.5169511566593314
As 11.811138853721026 5.68534114659891 7.768358147210887
As 7.004474720216804 4.2523200260132175 10.000573037771874
As 2.9429985227919553 12.030760424296751 9.560306406500645
As 3.04689216685787 6.731968775212663 7.866765113673336
As 5.403428912383832 7.56603456655454 7.471614919517636
As 2.4947257668040295 10.29766167249502 7.837229253636808
As 2.163272083808683 8.461581645559086 9.446910183016398
As 12.55748932429094 3.659963552563013 9.068021722906025
As 10.33310343727976 2.790529584254126 8.244261219483176
As 6.1753950646692335 11.258275403484303 8.439351870144316
As 9.321807258574262 5.088336552026333 8.310632575096916
As 4.867279844138101 3.4328649488474885 8.940778667909033
As 10.80759927387051 9.317369167335452 8.78802648299657
As 12.037352187371894 7.327243820022782 9.547286660284009
As 8.318062503547871 8.873595571965193 8.423967513794388
As 4.9712430436113895 11.034616331422248 10.622233412494952
As 3.576501046721067 5.337620529928689 9.811542593746248
As 10.2574701472204 2.034895465368091 10.593305826549754
As 7.822043963389731 2.0941464211649197 11.00375244579919
As 4.065125630340803 8.752355638478331 11.076397653556803
As 5.640335564166277 7.223249784046166 9.939454111538932
As 11.484546912308955 4.076214136368121 11.338719185601242
As 9.959606374207258 5.903140459961339 10.61371227170704
As 6.246114547804087 4.930424633210876 12.293951041039978
As 8.585219333160389 5.465481547088043 12.819001387811623
As 7.900297040646365 8.23021273246169 10.592943626575813
As 7.774532746951256 3.158715784437145 13.256414610222528
