52
Energy = -233.25318291 eV
As 9.120039376113079 1.1260946528136906 4.503476417273038
As 0.05750106799196304 6.622290189480565 4.344780391552841
As 0.25983961812762846 4.639705188962812 4.917819959227146
As 6.524335767291373 8.97079386484179 5.186418086920954
As 8.519941283886046 4.845790217435117 5.180551689903651
As 1.8394273969781831 10.043839527516203 4.701555194524982
As 5.205052724636861 10.379451764245344 4.7486357151554115
As 2.3446922652888817 7.5925887143156805 4.501164796035489
As 6.840824150107703 0.8072304109934645 5.122783282584278
As 9.336173564976379 1.2040364560778352 6.488752157901491
As 10.170524058360268 9.845823603440575 5.18243086368601
As 3.9118575683881125 9.335821372099794 7.577598739546022
As 9.743137899855435 6.243096053683142 6.114415161868694
As 9.687628827174398 3.9020725317887197 7.849392714986231
As 3.315774038591774 9.899210133561017 6.258086235907314
As 5.882158646261971 8.434170157586847 7.565682437597897
As 0.9472103919551302 5.159891426987162 6.835041330169882
As 0.22019108408485585 3.0360942221511227 7.202325002273411
As 1.7083890558676476 8.643061027305 7.657406719038793
As 4.280200563576929 0.8008510494902269 6.3048189639740295
As 5.204403366666647 6.346664332433191 6.773054449121073
As 3.3509946016952 7.3631315803341835 6.297481577107086
As 6.947010816910347 3.1570261272565037 8.788361056995475
As 5.803235968380996 0.995163551866848 7.911105146940792
As 9.41800965846715 3.443096836581704 9.231827093632758
As 8.672552158720528 7.48304529060111 7.964527065404466
As 3.4816427005619004 10.435393326086329 9.823129099542774
As 8.080921285238267 5.191075229877226 8.628457262454694
As 3.2776824333320804 6.604039112605675 10.472254503616432
As 5.9176468017036425 4.809300806211401 7.675305096256306
As 4.663209196535005 1.9952267306626252 9.507441096346362
As 5.357526497338803 6.729722633917445 10.193278746090819
As 3.799847710240093 6.361092694001318 8.846103641545403
As 0.9573408500350079 6.091698636391275 9.601401373751704
As 3.481642700561898 8.891573357632108 9.461639763565854
As 8.502360114551049 5.1910752298772245 0.4378975695582104
As 4.886336559417534 7.5379528364422645 1.6702913032463416
As 1.209255814637559 1.0878879547414957 8.504160167618412
As 1.8563395576585249 1.9280464662071923 0.10081476489114599
As 6.82743394792127 10.211739264870602 0.01428543376413734
As 0.29262401812010197 9.047023132299106 0.36049633074988335
As 0.09472892724130495 4.349137486676999 10.290715306589385
As 5.057033267959589 9.944756191558275 1.0371415291789317
As 8.22318919067664 7.247297411824605 0.808566902506974
As 5.08819805084957 4.888882089036472 9.799813499543392
As 1.2591873692017908 6.922506947480252 1.2618710549355339
As 6.66823823041715 7.5940813798272035 2.770571527913236
As 6.245888645258852 2.0672673009179032 0.3171010786950835
As 10.124140988759562 1.278565832165111 10.310269944956946
As 2.4595942000368405 10.17190757485382 0.7939950819691214
As 7.504083497095668 9.957717276676853 2.4627104262986603
As 9.620185939223216 8.5791012868346 2.4528217211554777
