53
Energy = -237.70339081 eV
As 6.7106812219226954 3.8971743492465984 3.2694226693407824
As 1.7835458422139205 1.712531426352874 1.3727719114298047
As 7.081786417245914 2.3126712903708473 8.25809564295745
As 0.721420491962606 3.988442905931639 11.565283525891221
As 2.806725512321725 5.190929364899351 11.089647205016227
As 5.378696687363592 5.306554678591807 6.626396606657247
As 4.347026061244073 4.8758268364338475 8.846478717947589
As 3.9742645629008733 7.852735378116887 1.324892454329018
As 8.729260072677471 11.612688136328169 5.508540208226812
As 6.811579746264236 4.7593846263013235 8.63119766277885
As 3.2195828758990066 8.806059959888845 6.859895191768537
As 10.047278428216584 6.820045175428228 3.483439898435414
As 11.419459297307442 8.693794300454153 2.6806560497529492
As 0.8760707504680396 12.337756604314944 2.723391616627906
As 3.2215764668243603 9.00190151685273 4.367365315530133
As 3.3749782550007015 11.127580820410415 5.25244687120144
As 2.5105708137648244 3.5137947484537397 2.941465257405241
As 1.5822351851773568 3.144398782619934 7.013166405614676
As 4.181969744696526 12.074672168443305 12.473080671762713
As 2.2820858713597176 5.276501731214166 5.982164442802993
As 8.9285244715352 2.742863505287009 6.627134078275266
As 4.324503982924031 4.254268506016375 0.3648935316307139
As 8.224781278708193 4.1199229587013235 0.0454816079461961
As 1.5542670202155253 7.091796972097605 7.530424228703713
As 1.9213227327527318 6.971262854675999 0.05900763946938969
As 3.633039822859212 2.5234887169603164 8.395094908720491
As 5.655736794915664 8.242667491101026 4.3494092123802925
As 8.281552906970724 2.4511488711948806 1.9303511286507993
As 5.058471928434297 12.26403314124343 3.7889178505227266
As 10.87641766879309 4.901897527916789 1.9714188876160488
As 5.661978231051316 1.2010599179785757 1.0656908226275024
As 3.829118268836524 6.731778396581 3.5625305670509677
As 0.4269258661406637 5.408744932048123 4.316298866806351
As 0.8073669740600514 5.020953812116357 1.1763019990035934
As 10.04727842821658 2.748595513552966 3.7227161188074325
As 8.649699594322435 4.521153688491337 4.8413654398162445
As 5.625783390838836 6.337523896137739 0.20457219640088625
As 4.920409608001146 12.015598582638814 7.061152954653423
As 7.478420289336298 5.789093657066317 1.7512678900953798
As 11.451357077521752 3.4033678826167066 3.8724162509194127
As 12.087622202270483 8.203582455023058 6.443989326048284
As 1.3278923952877886 0.07540318559884353 5.130783866366183
As 8.191943665452033 1.3081047961299674 4.746722615294184
As 2.675884880654177 2.116295109909425 5.006652716715763
As 6.574916810638512 11.596156347740743 0.23687912109664808
As 0.19515082319627883 9.412535833700888 4.401604096072511
As 11.93221650094361 1.676984192467203 2.0735533253431013
As 5.253702475393753 1.9724192134995597 6.5413860219480755
As 5.533649662125894 7.791326935991077 6.830376562703628
As 10.997347631116044 6.1359118100259895 5.665584677094717
As 6.102544835692894 2.914594582332434 11.772117382888064
As 6.400434825500371 10.807634901828905 5.375063971358324
As 4.916999038205916 10.645928471411617 1.8338675897479106
