54
Energy = -241.79119927 eV
As 6.09103253062259 10.588291702937129 2.6830389782199235
As 10.661794431002496 5.641498998454258 0.8635300231482178
As 9.71962294098212 8.693388522319824 3.1132343121104507
As 7.442299118370073 8.50842113264423 2.0594582803914583
As 5.00269036724526 5.326056069119732 2.7739820515086495
As 8.259120179731937 5.577857640590654 0.9151443074221818
As 4.423825392196625 8.754127627659058 2.383591236408493
As 7.696612353585559 2.999128141632061 0.8833199551035188
As 9.422113466076263 6.897698521420974 4.783226657123839
As 6.123663760181255 10.341305352310709 5.1965416902641595
As 2.5454965438829076 9.532915377806665 3.804359687758448
As 9.727556535760733 10.505291027011928 4.869925706586852
As 5.279126326637649 5.918307142001967 6.686262683927705
As 8.527532822787448 2.7420759867198785 3.163104532540735
As 9.582439460651312 5.1231062127551095 2.9296942309236504
As 4.161921599091522 4.540559326190423 5.012963659547901
As 3.7273120418491943 10.542536835311099 5.753198858369642
As 6.105592453197121 3.0323736612790353 2.7517651986932576
As 6.707324804824005 12.404165905105703 6.38827265920037
As 9.026658824293762 9.164516301680427 6.84642935383948
As 11.861755360151502 7.1088279417486815 5.252616242717612
As 5.988142985707971 7.38718466656964 3.781698305738569
As 12.030321426621722 9.650432863405792 5.5193809500199
As 1.8512898947863234 7.786988425207494 5.470035094379423
As 1.7764671625729653 5.359632864316675 5.321504672069953
As 3.8976300429663264 8.207368167814428 6.90231033703628
As 9.37816044663174 3.5991340532068685 6.764686715442814
As 9.44114686459932 5.889319321995303 8.01972422166506
As 11.149799017559014 10.076146315471313 7.794422095877023
As 5.99117144214303 8.700621814792981 8.665742319024414
As 4.908658099139266 5.9778612110355 10.167790793984356
As 7.35472638638483 10.746951494173972 7.9845960833887535
As 11.861466222658915 6.175206878778439 7.584394227041262
As 1.7054276057189262 5.485684939704339 7.88039937494114
As 2.0508867618362077 7.904167994400066 8.508650285266993
As 10.62262102588892 2.217088217314482 8.381816920033595
As 4.000787023576903 4.57472126062472 8.319920895130428
As 8.258852581948819 2.000847809795197 8.308928919052924
As 7.4960812590892685 4.052395707477796 9.889489374802256
As 8.789026474146997 11.50155543567906 9.933220553901101
As 12.345667585550181 8.231076552426964 8.930320300864462
As 9.994761657864947 4.465996698008474 9.963622116032088
As 4.409153904023685 9.718117864609075 10.27802570638471
As 8.835050971426408 9.021243852097417 10.311931083961287
As 4.7365369430125135 4.521567914023763 12.22676753601071
As 11.100127032506217 8.341402570299392 11.12359140564473
As 3.129146324812728 7.62538470967217 10.840527915827744
As 8.022939281233231 10.551046339139265 12.092554496425958
As 7.233453893382174 4.173179454670558 12.398744814476206
As 4.287346849985096 6.723498067576337 13.32987579561509
As 7.79576303533887 6.375450459494834 11.36313525794124
As 5.611116022396385 9.965876740554165 12.470967943583668
As 10.218390950134834 6.092057507055226 11.900014349025525
As 6.421573443984207 7.747524334659893 13.246730766354956
