50
Energy = -223.28912867 eV
As 4.374421166240002 7.872682899273626 12.105332902980814
As 3.244604431932509 3.230646332280185 1.3979839632697826
As 8.359261221896231 10.181357301767518 6.700464575861873
As 4.603982856572525 5.360005409448525 1.683877580580412
As 3.5468444941052732 5.539879569736196 12.35849190206414
As 4.175557465905394 9.070096344181634 8.232535492172834
As 7.495950861565238 10.000354046513786 3.4634251504033458
As 6.164935066555777 3.0930115950368133 6.325057717169286
As 7.66549604440657 6.477191511962251 2.298638847732231
As 2.8020966714701494 7.073344048999173 1.628088542147923
As 4.752283489988366 4.623814391934424 4.094823630173632
As 8.966501245985151 6.948072749654309 5.584649279902957
As 6.273333013556133 10.152215123012459 1.2143419183843605
As 2.629903550636671 3.2687477772763116 3.8424603677202556
As 5.718649173266061 3.4847117105833116 8.786080935378607
As 9.437199620330073 7.268276876527802 9.172595671183819
As 3.6284179729844275 0.9909560670349633 3.8608648446279576
As 6.941115166884367 8.24124006714288 6.230913372078797
As 7.111817657174461 8.149294542589198 9.609331534219264
As 4.10577679922945 11.052106186050054 2.083081116298398
As 10.170715717011085 8.710520446994659 7.256068986051437
As 8.161100914794472 0.7974321063726317 3.9804508529287372
As 4.193692538372342 10.390429878955825 4.528391829961868
As 2.3842797216701666 5.131988475223521 6.9301122195683
As 2.8816766984890627 8.13738094277139 10.116156276668791
As 8.54981434033153 1.5038239780053928 9.209064864120355
As 9.4847509011944 5.242885668477861 7.806341714983247
As 6.2485534797287965 1.1936723859404728 9.579848237402103
As 6.732007772508384 11.295899596798439 5.667713628634342
As 7.979437538467629 4.966609848795721 4.308571610213717
As 4.135812676869588 8.996272494071766 0.682745375897877
As 6.613642578766471 6.850394223635576 11.654095526385083
As 1.9435836099593793 7.062115434164739 3.959013526360983
As 9.000864814787285 2.830581369984636 1.456646134130977
As 10.15894434737535 4.101960024549326 3.2346265483230554
As 2.1407113069043304 5.891430034747839 9.303308814022461
As 1.8952281016383274 9.441430869978193 4.664843214536146
As 5.036958724809021 1.4911759946385437 1.8159692601440112
As 6.949809529280111 2.7080416658518667 2.943676813550815
As 5.518506760827155 4.636908024023214 11.480850413896771
As 4.730862799144248 1.0195947366369071 6.121333521320524
As 3.860000912706833 6.516232876129306 5.449797951372826
As 9.215127003821596 8.193927279004182 3.2618775964247724
As 8.14387943070087 1.5412363806577078 6.405178220084475
As 1.890451765585908 9.113463365804533 7.171399711258692
As 9.508717318064736 5.231744981429697 1.1024410264263527
As 5.627580077988479 7.010218701731982 7.9502778874102615
As 0.7243698455736026 6.8970847597919045 7.493649587389444
As 8.141564168325884 3.9327630479445825 9.393708613179626
As 5.676319690520915 8.440528910052642 4.084841435456138
