55
Energy = -246.73960782 eV
As 2.9782627619075934 6.962805119872504 2.539714086653955
As 8.659068280518996 5.7693292191873065 2.22325460080242
As 4.700099834625793 5.443296868798174 1.5078951334685513
As 8.660228236908436 8.30239632962992 2.107278145244585
As 3.8221620654302524 3.1366849085769175 1.8656005989317155
As 2.0807847329736626 3.277656721162909 3.661090971058445
As 4.124461576617684 10.454507307143816 3.763819744486244
As 6.554153238342565 11.30250411579511 4.012085763940651
As 6.07752928514389 2.6336801375631533 2.820331238255862
As 1.8874538652583632 5.713257853533759 4.414020811753024
As 11.777445724046554 4.993864091358515 4.95239663773855
As 7.659767368357945 9.066408262051828 4.312743920994674
As 4.894615371585291 8.105102688395046 3.6928670945534647
As 9.585134209299747 6.176242312747849 4.5490264010494155
As 10.737113798515896 8.147474900841573 3.524790161893451
As 10.97319959439011 2.6699471189830706 4.9900852083128715
As 0.7429013314215921 8.748874909986736 5.182972052541525
As 3.092771131577751 2.128974977438744 5.6808451898559245
As 5.536125358443893 2.407632352183334 5.255761242289996
As 11.868287843411723 5.747642739664481 7.324934288144225
As 2.6650422991197504 10.12088841840361 5.806816363430123
As 4.077744818446804 5.261172479605556 5.415390878596401
As 7.237873094678857 12.019624014950578 6.340239927051161
As 6.43093616128839 5.1388843210374455 3.3322450351892545
As 12.144365120278893 1.8021068932150037 6.999029614335665
As 9.119987820098892 8.445953188723495 6.9755031983886955
As 9.875082824834843 9.953293130589316 5.136916850112603
As 3.3065784493227435 8.391720438503198 7.573773581687368
As 5.163361360653144 7.384094808680916 6.121111898772911
As 8.509748101938301 0.3845079789765821 5.9196182539818425
As 8.699371791606854 2.867677825704376 6.084900566996368
As 6.097857565967381 0.202112098720418 6.362115400979959
As 4.842042180251207 11.733173172735563 7.047635512928575
As 3.316518423595432 4.0269688484893855 7.406105856298795
As 1.46456112210354 11.931209969450297 7.077651345416974
As 9.504414919279483 5.306158993597796 8.102785833383608
As 12.726138925689272 3.6640016892166076 8.367308183558277
As 0.6703362303081969 8.23869467985981 7.541906411764638
As 9.597653762759165 1.6388765388846671 8.053383801002939
As 7.6843649158857525 10.308720852246747 9.722743927349505
As 9.848129176961189 9.00992480784286 9.31412911100047
As 5.843962854301043 3.8267008044477335 7.849870901101421
As 6.986390616074737 9.717553805633793 7.38761035745678
As 3.2706184471085074 13.304907935740012 8.208360187907063
As 1.0307465318392868 10.320835330573479 8.854669624084831
As 5.567611770763279 1.446729418581147 8.543844633497844
As 7.906327417379863 3.3327525620749685 10.942454020074896
As 9.050702253946383 6.793709478599477 10.10705210781132
As 10.288974291232673 3.5997310270538305 9.686732773021927
As 4.693566457428559 11.748511614490116 9.516819735163491
As 6.07876148905052 8.715171223081041 10.785947974207824
As 5.8815689320136375 4.658148706494611 10.217878778331247
As 7.6821510892924065 1.1947114368122544 9.786948388311979
As 6.699261200837769 6.8791275116621 9.247205735549253
As 3.660140201012291 9.477819286534476 9.816238165410375
