51
Energy = -228.07691113 eV
As 8.772439059517701 10.17096854416143 5.818146730934293
As 9.671541197188612 1.4121115862298892 5.996207889600129
As 4.911042598719578 8.90117996102067 5.089196841151585
As 4.956522626839608 6.891710551722579 6.6192612624056775
As 7.041038063533876 1.8517551753352155 10.35235245595049
As 4.1813679007127575 8.234138488204266 8.557070101362157
As 4.755816467291641 3.9684293674858124 8.202058688250794
As 3.9722148848001866 3.6105199528795455 4.491509701151724
As 1.8530362733037946 3.1171546070195637 5.805244569164946
As 7.44849400348921 6.736052661883286 6.848634842031621
As 9.2378194164245 4.481673052259293 9.277016059017875
As 1.4269869340477814 5.741037935496203 2.206687255771155
As 4.392901770133088 1.2071024647724542 3.931925588300971
As 6.447648684749207 1.4772984384512895 2.563367447349691
As 6.78075560302846 0.976986980353833 8.007904004691715
As 7.197352467448555 5.875034964782726 9.17319957582551
As 2.6310040419778815 6.4163539613547265 4.328369377048898
As 7.363116877135693 7.336502996357697 1.3904803985702188
As 6.620611369375253 0.669506128223709 4.9165544904481004
As 11.595361279318363 2.9901981231401504 5.702408478679908
As 4.610564641598458 1.2153971184908352 10.513493512153511
As 10.757097017568931 5.5922644696139665 7.650977930169531
As 7.070992547233495 12.04038058093217 5.78073201714664
As 8.115839353953806 8.881370272550042 7.8533308785134155
As 2.2227795240911425 8.818807532359642 4.9951009470531025
As 10.347284269526334 7.9311860496471 8.476088030892605
As 3.4881979308653484 11.81724103491529 4.6180188833992375
As 9.207719979553511 6.760170366458682 10.375689294972116
As 1.0286378904851292 6.449302735768905 8.329955788232029
As 5.343537127569673 3.6202733818089423 10.613854972361644
As 2.4683555988615415 4.5329528520869715 9.036325008730392
As 6.308127157025054 5.8216972960915765 3.1396247825931667
As 5.915930443088502 6.4083064210375325 11.638792697226375
As 4.9345967971029525 10.989536913343585 6.463758843072145
As 4.430032837598715 6.005252468046363 1.4696975673925954
As 0.7488521329223922 5.386747802960313 5.589343777871873
As 9.563449143540451 4.16850950443734 3.133282084515949
As 4.341453137699661 1.4781469587339024 7.999694173373875
As 2.8529573629428167 6.716495660183571 10.121988442083799
As 5.14019016154314 8.329310504900652 0.8596165159306545
As 2.6325414866477423 3.529114522342443 2.3164126979616646
As 10.453376453009307 1.9455665370622481 3.7098608804972124
As 7.109570001924332 11.440221805670491 3.368710436560329
As 7.389003673811133 9.060193527816551 4.068694450129626
As 4.757110801196881 11.686325385326912 2.6908299158732554
As 7.3348388037567265 3.782573455023577 2.1231332312783397
As 11.595361279318363 4.697292156782386 3.4916751001787034
As 0.6817122997612013 2.51000035382802 3.6077257452407974
As 7.500747365005496 2.625052920904052 6.2257601817921255
As 10.665001541961683 5.222486936356958 5.212187220135316
As 1.9680798267333834 8.627260699422617 7.460567064683069
