54
Energy = -242.92265238 eV
As 7.71400477719569 7.689465560007803 1.2047095991730654
As 3.7864240979570565 5.666638328596909 1.5672035831842457
As 5.6591806986167414 7.013501066950192 2.6202064594311456
As 9.887517320196347 3.7636339388489746 4.200700004125122
As 9.202048463408097 6.028841026163392 2.2268472370769308
As 4.45340026862405 3.2396730023639564 1.9037513809450337
As 6.667942986028075 3.347092988126476 3.0908769216446377
As 8.410070111249807 9.9504039911306 2.0030356505126568
As 1.9041734767012501 6.155958812767906 3.2705949259436506
As 6.240194277343132 5.370929378407621 4.393979646310555
As 11.330093362870143 7.251429210228788 2.679295209799304
As 7.33360924036633 11.351994613785223 3.8696202381695413
As 10.667058697947947 9.65609095513877 3.001007289528455
As 2.582034881182628 2.9829954886208645 3.515969367766663
As 4.458261705523962 8.4879049654375 4.4556259439570995
As 8.95484130120991 1.8684782226731376 5.554642543044824
As 6.466298065224224 1.9172639062003756 5.195198888233045
As 8.64688239517242 5.923615987489835 4.641330972680875
As 4.878947049835974 10.941976733715304 4.292704058723198
As 3.1066804369657506 4.827455489189993 5.037234263722218
As 2.229595769930303 8.53893210212131 3.663111490823642
As 5.214255948285574 7.339574123514804 7.125359552542694
As 10.497171447227592 10.135515429409793 5.482093198715821
As 12.176084322358031 6.749121844263082 5.02599761186938
As 8.032054188637016 9.99085118082628 5.7918243740793605
As 11.590219508172813 4.43867231981078 5.911927805432755
As 1.6564440319179954 3.4149958307934893 6.62922906146427
As 4.37131379734333 11.267762958751641 6.762516833457759
As 2.709445559021202 7.470143184208254 7.243535961551408
As 10.458679078034871 7.847363131642737 6.485027596846322
As 8.368105737893721 11.927069199056854 7.294199938704912
As 9.336412983606197 2.5930273065569773 7.9198859883574855
As 2.5376586367443315 1.371068247985046 5.466387830528519
As 5.698792042229857 3.6507347966859163 6.859530103259944
As 3.66441512176213 2.26091630322785 7.489164222800616
As 2.0269646776150005 6.251371681344569 9.378588231017916
As 2.0397590799573972 8.41695572907505 10.559490268652914
As 12.009273597762414 7.959717864879052 8.458799952100044
As 9.695605456131759 5.063350040428704 7.441588684514107
As 6.989961650276279 2.6224785190758597 8.776085100922575
As 4.192207801503328 9.261228589066185 8.251932828816816
As 6.120253746983629 12.0396291453926 8.344332120118361
As 4.070814533332885 4.912995489698807 9.765053129718993
As 8.130501157866803 8.23566034919364 8.479652155961627
As 3.312558051975932 8.648111729609258 12.445512172170924
As 7.906767438841523 10.556144794901476 9.35211401295953
As 5.994970598679858 6.563071926261329 9.589644480442798
As 11.13061352075272 5.817708928498152 9.39174861949003
As 7.643806713888802 4.71204232541012 9.995007580771988
As 4.432717025836262 6.636567408504528 13.28681125255097
As 10.061459113435554 7.95531989051666 10.06600687096222
As 4.120886125089904 4.426166861009279 12.14151352778228
As 6.559428073842552 6.993839198777036 12.10410204969842
As 6.66909991360423 4.494507967822439 12.295651271102512
