50
Energy = -224.14168675 eV
As 10.477937666259953 7.432285635027543 4.042824502504647
As 7.845703677016326 10.142954457546299 4.048311849920171
As 0.16356235135085423 5.166138720798882 5.4581516187272054
As 11.880069720380503 7.016589055351585 6.0604327288437245
As 9.130129158115556 5.304676039227646 3.8380615495470485
As 2.463621781713367 7.80560864373532 5.1774401300210755
As 4.447733632648305 6.6719748573107704 4.146994904499333
As 8.911958080792873 12.355423377531528 6.283516844340596
As 11.957936173351648 3.2599390016902463 6.623048172325386
As 7.533942893661726 5.579859166343335 5.753924617283137
As 4.807993618817462 8.455593139416713 5.795540280114944
As 10.067068999500318 10.82503713389501 4.992064336389564
As 9.011433249683034 8.683189851205633 5.656287575016248
As 1.9027896602577534 7.455679323017947 7.995846628235405
As 9.913929649106786 4.3963891312700545 5.8483186637394935
As 1.484798085109527 5.085148835452658 7.249144928597136
As 6.665991709799206 11.498745788697088 5.840212882780406
As 9.557963735250745 5.943899370358735 7.127778864050509
As 1.9027896602577534 7.071236960648957 8.726522615936961
As 2.3297716986069466 5.959572619161757 6.509115659595181
As 4.831450527964512 6.078526141964359 6.20767945199766
As 7.68561032931202 3.474634704806547 6.207679451997661
As 12.726457951507687 8.070187231296934 8.84366084484248
As 6.79943487834885 11.786940705845455 9.112931273056287
As 6.684272241235199 9.924168317196262 7.455020939704666
As 8.575429430358525 4.418687977008823 8.483977494355909
As 10.192213856836489 2.550590668898006 8.39262571048038
As 8.899740848832135 10.792837246257907 8.252703408396531
As 2.905089726266339 8.842134334406378 11.072044921132848
As 12.245616410712623 4.80048013447899 8.148245078469374
As 1.0532292081468835 9.48647765312988 10.333821141632864
As 3.053881877358648 9.271909009303059 8.621029416183157
As 8.508180416695653 4.2597772130793095 12.11989584324371
As 1.2611894830296193 7.020181507029207 10.374857621270346
As 10.52562960017468 8.534713048742502 11.335891175423507
As 9.96806520190668 5.178643423818281 10.599913396905945
As 6.338284604926259 4.971704063106421 11.686936478327162
As 6.497487904722752 9.960764577837912 10.810918455893702
As 11.610932091234746 3.720060504527763 10.133624455766663
As 4.23043851359142 7.357725572012524 9.592325109261424
As 4.617179681046001 10.575678313420635 11.727074005574806
As 11.997072306773187 7.627372143202486 13.058792541814645
As 6.257235154025317 7.116481106736822 13.029434595696493
As 12.436928619552964 9.910314938024767 12.179997046884466
As 8.592963582154765 4.858016113456065 1.3675742381519178
As 9.935146345068567 8.959284708328239 0.62769313487155
As 6.066464373627803 4.87337422622622 1.0914168945198506
As 7.297570300584809 10.726354237641146 13.017526172576375
As 5.621679633573672 9.829961354108663 0.7517793891667983
As 8.209522366296593 7.305770663594416 1.4276676899976513
