52
Energy = -233.12661222 eV
As 8.713869414538406 1.078370844649188 7.3326010806945225
As 7.2580236873209865 0.6903120247336633 3.427778989412945
As 10.616480234385618 2.106483136430305 4.812065336863745
As 8.480387300176531 1.957475445251455 1.6573397523998838
As 10.72239556309969 2.28500227763908 7.255435159187391
As 4.934235801255532 1.076209061050034 6.613892166464117
As 5.075369597311522 1.8917246783098454 3.353969858191747
As 3.868105654721673 0.5230710181518443 8.86185667027274
As 6.28703253951138 3.0346104481289107 8.630904705675484
As 8.175792672340256 2.1862974069483068 5.194683880754026
As 4.5545653706023845 2.4833039668836037 10.339299391610169
As 9.415223890558558 4.305163150207119 2.0477885497488497
As 11.22511493822368 4.289333838171061 3.7355712704257376
As 4.788266449022824 1.2402973410594287 0.9537392412208449
As 2.6813748095585836 0.46980917637174857 5.707987594196054
As 5.766101676915674 4.1898620201335195 2.5887220679979244
As 6.522682123031201 3.0498190568372103 0.48886996783004155
As 2.627431847154515 4.04025105790271 10.108529854452872
As 9.395710553970742 5.068624849223277 7.580282796082191
As 4.785348060673926 3.581823175238972 6.7047038138232375
As 2.299203074343335 2.6507853253754403 4.523346036655422
As 7.761874682555725 4.858598256891159 9.509591609998878
As 1.3406547136714888 2.003191697976675 2.3259422862494086
As 1.6764410298668018 1.2029186890200818 7.8815680053939285
As 7.7286635111548225 5.244792347687173 5.775692227872135
As 9.331491756867207 5.899268176809872 3.977898420286635
As 2.399042201709163 3.5925568852973924 7.699945611813489
As 6.951520919492967 7.167162624974617 8.964691680931569
As 6.617100741014207 8.719798047629842 0.4083903765239612
As 3.8200272168361615 4.863909545020093 1.0518051836588493
As 8.439931932042773 7.3495249122317645 6.952399510645991
As 4.67293536302062 5.553447941780148 10.526629540374678
As 4.739224679816761 6.509502269957 8.034841238995206
As 4.2251205698913115 5.94820453746956 10.383912627823848
As 2.8231049565770783 2.683001505455754 0.3956235322082812
As 0.44376542132721797 4.925095640691842 6.765801509616503
As 11.529685896140691 2.87813558340205 5.160877890673019
As 5.172808733344713 8.412551544228172 2.3770062490875485
As 3.4866696016522325 8.693917401417767 5.275544213367745
As 5.977519090107105 10.494942254608661 3.516337911774021
As 4.553912556024381 7.934294096435815 10.77344700613922
As 1.1314515782128367 7.171204431042046 8.452408629733865
As 11.225114938223678 3.776697337042338 2.829096984340288
As 3.683150970625634 11.074042310729633 4.477380175867969
As 3.223013935840166 7.992572966296236 9.380742028022482
As 1.8662087560894443 6.123532958576157 5.133182977202133
As 1.7525964995523158 6.33540286621335 1.1219186041102902
As 0.3394275827950753 6.166801121565305 3.1542217519895854
As 5.20462283768124 10.61773464717622 1.166353830480125
As 1.1718864832383715 8.284605263698651 6.226226704410862
As 2.084244222335729 9.522121004230394 3.412428345844342
As 2.744238106223505 8.61201743516285 1.0493299357007826
