5
Energy = -20.38214564 eV
As 7.689811520180687 7.842878518389683 6.270229741636406
As 7.181603238595809 6.291883080522221 4.6102758698122095
As 5.3299490045834395 7.143740378849627 6.3563912821944175
As 5.56777993314688 4.564026543517224 5.603898255324903
As 5.139215394500682 5.159770916724557 7.80828704062973
