50
Energy = -222.74686498 eV
As 10.180010615906651 6.59072865083666 8.102972462273694
As 10.0104336329506 6.176231681977317 10.669686435692054
As 7.6259610879943915 6.120542537118194 8.346095776521874
As 7.233717577857865 9.556725363502721 5.648615206033233
As 8.667949832466187 10.627324783497752 7.398204730081402
As 10.070259307489426 9.03952706452906 8.663589878609542
As 11.73175864489897 9.359347845319993 6.351683706629345
As 8.411166432568557 9.91455559286073 3.5126503739047767
As 4.1823595723477975 9.280268148322431 4.819970765575701
As 3.0095764136829914 10.311528668766213 1.7137758301062693
As 4.9302023399054375 10.986966379141887 3.1066872476811067
As 3.91343119495725 11.650568217876636 5.3127935403409206
As 6.276662149185802 11.838026672874376 6.12342992108768
As 6.375696542174578 10.869922796282786 8.454385311955154
As 5.243497324293452 8.62088929399263 8.044470044047229
As 3.110194273316674 9.65253602461695 8.809981087955085
As 1.9699020823474462 9.256590194312157 3.6508760379992915
As 4.542817409486022 8.467891651407163 10.403763676017972
As 3.5109165267693117 5.853922951955002 9.160502212337278
As 8.273158308752087 4.471364350891091 10.12759236912576
As 8.203413192991677 7.78581622137959 10.112519936427084
As 1.454462622926871 4.610314038733791 8.789807823449108
As 1.6332781928680475 7.624089716357652 8.974227369023582
As 0.8566630575296812 6.338729738215021 6.939973236842422
As 2.8776082515497903 6.131115996816867 5.460402915095814
As 7.29206394466562 2.7912996979398503 6.078555644606661
As 6.372248611785078 6.250145123016061 3.9357139799197576
As 8.814342428256515 2.7622573820607945 4.14874226095447
As 5.223546367378611 2.554600339631352 3.4239421323151724
As 2.0226923883326844 3.960745377557704 4.592248686880848
As 3.296858231160313 3.869993548620212 2.3879585094502254
As 10.60366529561227 8.91839921560144 4.188619402090819
As 7.751947086671456 4.532956716613802 2.658968495143685
As 9.834945290857778 6.661898493217774 4.969863948638033
As 4.42315688510556 6.111132238750008 2.233215272241632
As 7.681997718283903 7.7594796710727 2.3394978196979013
As 4.052832763859336 0.8162497292172043 4.803022239421421
As 2.874783881059646 2.4747935169246134 9.008612965124872
As 6.241026876436166 0.5034427225530074 6.023830220635988
As 2.169472422762795 6.82013363157737 3.1699468590950914
As 11.208084192745273 3.9285797718054845 7.45636290715815
As 10.703940834462047 4.017192497840525 5.140251778189854
As 9.648182304693917 6.185031906039853 2.508775987700389
As 12.060711762931968 6.973850489785603 6.187577142223713
As 5.1372521781506935 3.370003898894039 8.560652233401933
As 4.045034690833955 3.742511094020188 10.76786654662292
As 4.143481299082858 3.1159620166732758 5.614662707301428
As 6.112037153819926 0.9794630361346129 8.531060438211936
As 8.476230089722534 1.2992222591461562 7.7158566778521696
As 9.82032008340283 2.7710820310346134 9.161488364947543
