53
Energy = -239.37665417 eV
As 5.308441036037071 0.7817065960801576 10.314150398607595
As 2.6309599460457536 3.7782120934217995 9.455021960571605
As 5.326021600828669 7.687635985304189 10.023593136201988
As 0.8675307616418766 2.0516140002253573 9.990578147039722
As 6.4310318602002265 3.9528187802545127 9.514040728748437
As 7.405252770577944 0.7866596768551479 0.9966923180019694
As 2.8707125473885564 7.527944389953934 10.200610281259786
As 4.175072902416348 8.828925039653077 1.2004707116501938
As 10.60767085052522 5.560827232496115 0.10969908083472545
As 6.9240127679592085 5.990629968842145 0.21166924139314947
As 4.555545248423729 3.074713799281566 0.22802525413013758
As 9.827736406404492 3.262840549707066 0.6215388341792696
As 8.565902471550357 5.006435511544833 3.405030738695956
As 0.2921008765859586 10.233263217957619 2.389751834558576
As 7.973153762622954 3.187431931411224 0.6559143531448579
As 3.5401734788817985 10.108591184363265 0.7251539645113628
As 4.243039880641867 9.617915111997585 3.056875928967037
As 2.3668582072170143 5.328906308964691 0.7339275608401508
As 4.361903033863245 7.364805497245828 3.2700496176926106
As 6.463119004349176 4.504428691293293 2.217581950285852
As 1.9010516984373875 1.1590272862860267 1.3539007640816356
As 4.873207555561069 1.0676062785499036 4.194956972421923
As 0.9651221313882347 6.765286616131251 3.2077720493645514
As 6.547568980167085 8.378283121697056 4.153696058415222
As 9.496442787069126 6.372465812318483 2.1576150677090147
As 2.3571216981607273 3.0515243666252294 2.800794375769199
As 10.652330543185826 3.3644319334952875 3.0211736668245144
As 10.090493050214574 1.1029867072457715 4.091421711081748
As 1.6873807121215618 1.1757270275924563 5.179495820295146
As 3.3346366347373744 9.437308262327258 4.2972679067237545
As 7.308958004469946 0.7471932135566162 3.5255496514915565
As 1.9435079880206256 9.55954586364524 4.149701738383607
As 0.3606301646710611 7.179385315275888 5.586545581095374
As 2.7257426400523053 6.480388743593715 6.111023762724905
As 5.884250681326675 8.456335582096846 6.60001768185691
As 6.861113049413204 2.831851639855898 6.1097168734978196
As 8.716094751196422 2.67365975694825 4.439328434734082
As 5.7601449086778995 5.98207468922429 6.383029229955186
As 0.8528220195024793 9.091866397350245 4.071573857928763
As 7.940731954079148 6.580370578042794 5.2524716744562
As 5.203681899710243 10.095596237834807 6.09001683198286
As 4.2008554174650605 2.5205182822537036 7.795309893146183
As 0.9811210099871605 3.665556936562187 7.2714162667826585
As 1.2695021426876025 0.0429323401175155 7.430035195106926
As 3.3885194608340843 8.814176941849025 6.674261037159919
As 2.100942953081187 5.578734108760488 8.389993190152524
As 7.177910541906379 0.5779657507607875 7.136284925411386
As 7.716384630418008 3.593774626522696 8.375980689479784
As 3.685351178052073 10.689099113188892 8.004870164936042
As 6.2131058688420495 5.557008170382181 8.800104758076818
As 4.047971893416694 4.4061388900020315 9.455021960571605
As 1.5800061340646803 2.0698102508575418 8.871712247909405
As 6.194958741514261 1.7471177322008111 9.149618059164075
