54
Energy = -241.1450076 eV
As 4.8754078647541155 5.605981550176343 0.5140676942002511
As 7.038740851796202 4.601566295836231 1.1450929210517087
As 6.543383678805439 6.919843811625704 1.893526415486209
As 4.351524325244495 9.953649294115362 4.139692392292761
As 2.6593205982182218 6.180367125660869 3.9913448774036486
As 10.019146640872036 7.751713201033651 2.1628638158761513
As 8.326422235827279 8.081522968857247 0.6178900802369863
As 9.12958293997391 3.3255124807518324 3.294442199477731
As 5.187145273003592 4.485836883164004 2.781487183952641
As 3.7088614898549004 4.725659431933079 5.7762470845185705
As 4.605942129170782 2.0560186453359846 2.9725183655540217
As 6.756724267589083 9.617383697889416 3.585673281639646
As 4.105845515504494 11.361245326744141 6.2047150127525414
As 8.987026789720975 0.8642703194856816 3.524341521489873
As 0.6169409431397943 6.518074972664388 5.463165941157442
As 6.60894716123552 1.3966197461646181 4.385008372919887
As 11.439917532166767 3.638270084841348 4.071807173944204
As 7.767680801972433 11.763536237815284 4.365681015250454
As 6.277033436664979 12.654212656288884 6.172168292796331
As 9.512150829088627 10.217001671229198 5.2815650350759835
As 11.208746126716106 5.956528703426858 5.081853905307173
As 1.6195395780569688 5.000525224597918 7.187594643977317
As 1.6545502443566662 8.711346327806671 6.038973703219119
As 8.977122939298537 6.443451106565753 3.974382053000738
As 9.666300813002925 5.2008112045056665 8.994066042872808
As 7.807865362045068 2.270573855803946 6.933261484883591
As 7.8818102530687675 8.28750688664197 5.411734132741963
As 3.9743884040441437 7.848884386061696 5.41792582208243
As 7.3643952949828995 3.7623593725090343 4.992056910915832
As 9.816804435330184 11.067421439983258 7.624697415169624
As 9.519137125141967 0.6937986911974278 5.947211699530031
As 5.2300202423693545 1.8810114640112774 7.329748595644773
As 7.570854745079741 12.000599606379165 8.238649056201966
As 11.333588369272125 4.69264679205503 7.259666442178242
As 6.896559058108245 9.636368237695072 7.9092230116984945
As 9.078173000707206 2.9241113211425445 9.119727778249302
As 11.418693706890945 2.384918481703026 6.251925499100514
As 3.6204077468680875 2.2792445132213097 5.309504426948052
As 5.619252086119829 4.146592017188051 8.441044897008187
As 3.261467993631603 6.586441924707143 8.223812806458477
As 9.106858236690764 8.978128621761533 8.849489102015442
As 3.467708206629415 10.436086371913063 8.577843229084714
As 5.114145218101913 8.772864160061111 9.39574780868922
As 1.719913090407176 8.580361411038837 8.507502925280532
As 6.790828122714586 2.779496551789346 10.217272243060298
As 3.6231258220836517 4.6549565614889605 9.902458587721785
As 7.780932945033124 12.044820971790662 11.117239239909358
As 7.063541144524256 6.513830983825242 10.499234682617034
As 9.020368408593942 9.89088992667292 11.18709166641096
As 5.62423939185645 11.738673180455812 11.873764598154846
As 4.942218631262806 5.834613949381722 11.658167817093702
As 5.167862497120227 9.337132693410943 11.822543797583158
As 7.036224921562998 4.515487856534761 11.982782500322537
As 7.389312117629923 8.31393038496659 12.263204381697816
