55
Energy = -245.55602794 eV
As 3.3040232333596817 2.954106068669282 1.3178830720152594
As 8.728362796617397 4.548147374575639 1.1959044429287828
As 3.523353729685635 5.351783264089956 1.3392129267606043
As 10.404845847062612 7.770746226770953 1.423127645447398
As 8.128835712993016 6.826994850459349 1.9108610804327855
As 5.723687877002679 1.7245205445680731 1.354329121693848
As 3.433255832284764 2.9641371095005296 3.7967438091999464
As 4.890208771969113 4.898603773665736 3.2574031871192393
As 6.947385021281908 3.4525569927071573 2.5497210719208434
As 4.1205018672106215 13.682082295659615 5.352044343953319
As 10.677985914373346 3.950536673841649 2.6342077816584686
As 6.647449886763716 8.253154492041894 4.481960896701963
As 11.822746621554506 6.236047578367608 2.721160251513082
As 4.787625835603251 0.8435049432616996 3.4642094599646964
As 5.3133137501001855 11.774810039484167 4.329527554299525
As 3.4220172385642345 7.102781365417414 6.349911769826851
As 2.903374858757147 8.933287255212383 4.834671040773587
As 10.657591632948213 8.04916640204259 3.9273693330586266
As 8.602936701098638 6.661686669412443 4.371340578126008
As 7.451468868452146 12.794136886169023 5.184426029297075
As 6.1327685488507875 14.874356622583322 5.464822753224885
As 7.651937743153545 3.156614840777654 4.943170903648643
As 11.389918522371783 5.458605131430121 6.422961025223256
As 10.040977429594397 2.798979652421716 4.707592310697536
As 12.791939526194435 6.466717180986372 8.307795863268048
As 5.613202070293651 6.128559704347104 5.334041059721538
As 0.9503878181686037 6.256032651982415 6.214383672233662
As 0.8863831671250071 8.767911328871772 6.356108012351846
As 5.441515598098503 3.343048442554571 7.276517310521314
As 7.266599396364762 12.517021035955292 7.658936409893773
As 4.507899734833719 10.49165519572415 6.269814052330406
As 4.7987153636986575 0.9773553369376604 6.744231001851715
As 6.68122812464398 0.7381018851297713 5.066037914630345
As 10.401470352693 3.853096290201704 8.020517768773773
As 3.9576268239001218 3.6074321645567267 9.241040820651165
As 6.212604276585504 8.729316506455078 6.949353538446902
As 4.8338867016536735 12.392924387085754 8.145267377259428
As 10.733440233412072 7.633067072938408 7.501740553612843
As 11.426321887051108 5.172993415182193 9.97107041217357
As 8.057453307148755 10.133743750435462 7.8493765247625005
As 8.254898516353007 5.108269371430736 8.382134576153797
As 1.9968416041321446 8.39666057147831 8.558311827433702
As 9.598794362348672 6.841883185534656 9.600443223556992
As 0.816814783240449 6.338006750963321 8.65459235849173
As 4.760502226075718 7.8916458024599745 12.051154222162944
As 7.384045126959154 2.0679604256170903 8.200514906811014
As 5.911144617242355 0.24807153007282193 8.928258408176356
As 4.409270117264214 1.509166283626084 10.477820771038044
As 4.939354452410275 10.1752964901664 9.457351430274167
As 7.178260189700411 8.506061963259246 11.706564962284425
As 3.8808479597436025 10.208355039228337 11.69952515796122
As 5.578973560928381 3.6261089240998645 11.107147543093149
As 7.889283168807537 3.3746515726445434 10.204402643167095
As 7.226289342950487 10.510777332239764 10.214054957331173
As 5.724235352077369 9.743565358458396 13.333732333847609
