51
Energy = -225.39660538 eV
As 0.06377536851594344 9.969202510674545 3.1954809454911186
As 0.5647050516456786 7.326260418061142 8.513249803261555
As 5.064786208461289 0.19238810564551015 8.558037393585693
As 2.8565389711760782 1.2254190386817836 5.244051188610944
As 2.5044997073960773 9.527784818903394 3.564069201467577
As 8.851397981613214 7.4759806958378086 4.324078973397091
As 8.817770900362545 3.654000385595001 4.960012155774137
As 2.6316303197693514 3.5175839962643956 2.986093118594661
As 7.265900380485081 7.255176342486516 1.0229848306154723
As 6.737902128897992 4.228063962024089 3.770236099469138
As 5.715340814705224 4.445771444036616 9.447445681389114
As 4.013591681893431 7.7549317343903255 11.157734078977397
As 0.84128987144763 1.4631310313647117 8.317174050849934
As 6.390184968968988 4.476591369628724 11.2381252833807
As 7.0038070688353455 0.6627209237003676 4.895163586869056
As 5.5417413707523675 10.249905552831175 1.9422171081347794
As 8.86730498853868 5.309081869423636 3.073776321272142
As 3.1241922688861092 5.303809352227708 7.795799377090008
As 2.099211440373962 7.035351083913191 3.8499255774594467
As 0.8393064498066141 6.431414181400372 1.7889453973890341
As 4.251945770207991 3.439318852456848 10.578573225231304
As 1.3465321262569345 2.495633863379837 1.154533976854345
As 6.8379583858212944 1.4546844153137302 7.766569556448041
As 5.173633044096946 1.1674644479863514 1.7616668006127332
As 2.723033195883031 6.777225499291349 9.822137845014426
As 8.092134654780228 10.021108289206373 5.010073986337433
As 7.915411588667997 10.614251104455063 1.289215233718688
As 5.685581973148647 10.164859849036564 4.413285133577951
As 4.902662626451764 7.455949468538129 1.9039639260925119
As 6.856137244740776 0.9095730012829575 11.522836269299058
As 0.64956387333118 3.7971875476325003 9.229796288300584
As 0.9719938286344901 10.021108289206373 5.472406979697542
As 2.550270874149161 4.631437202711464 0.7238761468081455
As 8.026767277389595 8.891159597632008 2.720566282759311
As 4.359159740228818 7.351682009321452 6.8920278433280915
As 8.091848286494441 3.0072417635016264 0.2023309391262838
As 4.586733911514816 9.733234198824878 0.9109653657669307
As 0.6843889604158024 5.24890205176456 7.160898512812747
As 3.2984978750676404 1.8105334433703788 7.918403726846983
As 8.848394412383993 0.08727499116259559 3.3096498091628703
As 2.634881051529883 8.687976596048129 8.175802525072365
As 3.513403451310319 1.3408351137489702 11.50901896345394
As 0.2589493385313418 4.3126755516825614 2.8388832453129584
As 3.1475832076195034 3.380746722634607 9.841243137518784
As 0.4609088240771377 1.6662654138119726 5.80968623817837
As 11.446320841255737 7.925853926044214 4.638381622360249
As 5.475384761666677 6.8609816986261265 9.123004483670906
As 7.1941477806541005 5.197259992382149 6.026369717198843
As 6.259833362827197 8.801696520355074 10.85600430468862
As 1.393889004392011 11.016743496069601 5.5443028682723225
As 5.608316673710917 3.576084489126383 7.158036180574269
