51
Energy = -228.01553756 eV
As 7.178759985468645 9.67801687992529 3.5729610263140317
As 10.455039830441368 9.269122505148696 4.626538848216915
As 9.024488712855442 5.950112128348888 4.021872814547235
As 5.096388579431262 10.031377124268836 4.922261895878706
As 2.460274442337158 7.95471954259996 6.163589860210602
As 1.7120943407566942 5.730143695628455 5.297964141071443
As 8.813753152259194 0.4319088282709562 4.743006531185698
As 9.110061646646194 3.8649645928294594 6.102299381105683
As 4.887498881109567 7.4781348045058 4.9854642306547
As 1.19859294095638 0.771162353650791 6.42050735541198
As 5.285479779381387 9.466634635662398 8.88586203992992
As 8.322624643565861 8.069034107709262 5.134472758442393
As 7.226996361628878 4.696336266340213 4.925376543764454
As 5.9996876555788035 1.0633706782710013 6.13588673412915
As 0.33194582179509563 9.164761308929918 6.770106168883224
As 10.089402343453813 5.888689649898741 6.043105708044166
As 4.764510064304024 0.9411878121663606 8.159285941216595
As 4.118118791853704 5.852094601495672 6.278528598534811
As 2.4367329605482313 1.4128841433177246 8.478553027971136
As 8.153294925546277 0.048686561130906254 6.946575059239979
As 4.887498881109567 6.333812715577869 8.632856075549977
As 6.3268812249040005 6.13234772518381 6.207444311947652
As 3.513369470259501 9.609251234009443 7.552474628500978
As 8.487613043257815 3.504116982662054 8.517458406597685
As 9.784374640002149 2.0076562369431112 6.948199881492494
As 2.7470976283138495 5.897626209333514 7.569474618524867
As 7.7020777729929195 5.179549539761756 9.92167514450398
As 4.541042811008926 4.172606060855535 9.068257451897637
As 0.7403856403935432 5.2280409583070995 8.863020121177192
As 6.149841456747068 2.6075998821932713 8.49845287614267
As 9.761500934208732 2.6075998821932758 9.438931683546956
As 10.726239795529176 0.6747945667338235 10.645016698570197
As 2.036395155903822 10.12945646115143 9.537286997579088
As 5.137172601535762 7.105446698151688 0.736209388244041
As 3.1485418219806283 6.983032886648197 10.400780760167367
As 6.033064886254083 3.7429056103881786 10.737211630409753
As 7.644783048523081 1.3031243410320836 9.57832680673756
As 7.969073969990512 8.387676185403508 0.5530268036651113
As 3.356828227352902 9.478156306672792 10.044799081557928
As 10.487533826319932 8.294007411081848 0.6942552052457621
As 1.5685757158043547 6.348672133787411 10.715752388077112
As 2.1223877240073388 0.5031278732234343 1.070598485414801
As 8.994532928172033 4.760084267269824 1.205184610549892
As 5.160037299259409 5.362119257508105 2.5016355496711653
As 9.57758265729318 0.8673448037525279 2.095220170116693
As 0.516911891745097 9.821319592245713 2.539219279614123
As 5.094698126572611 7.82677642567374 3.101672954469843
As 7.606477023471036 5.4371309351641415 3.068927664358332
As 7.487840589783193 0.05920583500362975 1.0300575295931849
As 7.636209702445338 7.9551528586314175 2.9976894249486374
As 0.03773835503212518 6.061980418908477 1.880247972330621
