54
Energy = -239.18560749 eV
As 5.108281095686464 9.156979272423602 0.34802684900010833
As 2.0800919941091234 6.506220182894911 1.2523888921431654
As 9.07052450010484 8.482388713166921 0.962124705936192
As 4.636266271286834 6.934936819988538 1.4090455745714523
As 9.942182341933986 6.261823482167074 1.7931404084103533
As 7.117126870669275 9.785145799338888 1.7467240601725715
As 8.02370081795022 4.639906460422001 1.6345453743722056
As 10.581776994463912 9.355473639002328 2.7891136853134273
As 4.103297818431919 9.064373005787301 2.605410133142257
As 6.810841724236779 5.962408079302843 3.3719894667202217
As 1.635284540204404 8.763434492513758 2.2853587941211955
As 2.314577789621381 5.675516418981938 3.645905170426909
As 10.884308934857911 7.119093732478241 3.928221756826977
As 7.862269880443138 2.967151069827411 3.4828722008850863
As 4.658289498291703 4.732236419578719 3.973256792102747
As 9.010407953458023 10.169605352812646 4.799049784406801
As 9.44766816526999 1.1125158073754415 4.162857174240868
As 8.34718676403436 4.768542596945705 5.1212203037846376
As 6.848424891625131 9.024146479976231 4.17726244622018
As 4.8709064953222105 10.257166235117568 5.313196152773974
As 1.3261003465596306 4.009092753484033 5.038024809710873
As 9.020288961020157 7.722242772414629 5.506830795430955
As 1.5877750845932868 7.808094873280563 4.6311355600445685
As 10.39853930898138 2.512116963901885 6.0073910190321405
As 5.624869074776674 11.477101739852529 7.431416651699014
As 7.959807605858345 11.943084927583435 7.166647120403482
As 4.73129519763648 5.926062208663876 6.125447734455991
As 8.284930083464603 1.2814090198811994 6.340138193582102
As 6.967670993136801 3.4083338346425918 6.725419419112695
As 3.5740550554977353 8.27982711816205 6.091593433005159
As 7.716998007311926 8.44011116207506 8.585246229791995
As 9.68198995605036 7.081287538783318 7.831652103178883
As 2.7443511816587303 4.6642878508145325 6.960301707447438
As 4.544198093369014 7.286949025660433 8.83604393239874
As 9.015637535841426 10.573426171724343 8.874692138223374
As 11.466486160463397 8.163431335865665 9.142691324111887
As 1.9380255261548496 6.56560651230006 8.477347269019976
As 12.246129579046478 3.0439404673789694 9.104005331182268
As 7.577898567561826 10.802115209464338 10.898367217672416
As 11.200975979585156 1.1431243922561731 7.955002460595338
As 5.287124963080956 11.113761875012042 9.893701121618188
As 10.279541714492986 4.647227023476116 9.278655402691781
As 9.176869082964066 1.3424907214513067 9.50089700077999
As 8.043570645291569 3.496979901210203 9.069852008172555
As 1.3749505492080707 3.1934740392912815 10.313891529593779
As 2.5660122615743908 5.38098313377502 10.632965394559207
As 5.21018147522304 5.7465643149599135 10.621681748585083
As 12.246129579046478 4.816130395355697 9.239575244357843
As 10.8862986612747 6.622489025497481 10.778441965565733
As 4.025111369499033 9.05407487520513 10.51698126309715
As 7.88440930639163 8.31187464207877 11.071099262023395
As 10.666087832110172 2.7554058243513158 10.998561202634917
As 5.619931049207324 7.805293985676115 11.99787208244038
As 0.19811195995496111 4.910411819067356 11.622592112909349
