52
Energy = -233.74120841 eV
As 7.033343431316986 9.629806613635326 1.7194759796163657
As 5.354603537713311 11.085191107052799 2.9042996101541707
As 5.709646389019382 8.69210429234652 12.221058375411484
As 8.652716741568556 4.985542848605999 2.1347551736893293
As 6.54938491748169 7.909973390580872 3.4401187383089953
As 4.25991141808621 9.336940888209048 5.767126093401962
As 7.479664980950586 7.0249929796164565 11.821952935861455
As 6.5123436935342705 9.985084673375058 4.88333491363579
As 2.4793573678345133 8.523158261046444 1.6156255610772785
As 3.186570185925601 9.94724330333307 3.5552628172467045
As 8.783084465901212 6.093929105430057 6.04664624349143
As 4.905036802114544 6.924106037693087 5.953240891324086
As 2.1978019183758133 4.463220967753138 0.30864319093531634
As 0.9792753934874 6.731536367370121 2.5812947320788955
As 3.2888144965911157 7.220094140067536 7.946279335633327
As 6.8301712291945105 2.016264626133836 3.3837964717848346
As 6.164860244157428 4.966990894605027 11.540121850214373
As 7.030961269957528 2.05995620342128 0.9098181084856437
As 7.360946919115934 4.145614752894456 5.553916304225412
As 0.6378319822868556 7.690067306286305 4.814686015043463
As 0.528175138102837 3.169601580856676 2.6720290006496907
As 1.1695089866025599 0.7150302665019223 7.687475913258692
As 3.8251337789665416 5.925755239893509 11.493929475968972
As 2.1777281050922253 5.279785460618977 9.030107609145052
As 3.284125575537018 3.3199804436546705 10.121719461945002
As 2.7848814313779604 2.119786614773765 12.166958844341451
As 5.0171387869445905 6.80122557698831 9.921620085001953
As 0.2975140604970046 4.661095486286548 7.347015868611536
As 6.999204759418044 7.347617862927235 7.29566907985043
As 0.12237236626088775 2.026359443157457 4.87420948961034
As 4.432133836261215 7.0667673998858564 1.2072134353102373
As 3.4967396300706786 5.470273803227157 11.30801481543033
As 1.7178193671436603 1.1313133731407325 1.8499652126425599
As 5.919031555776388 5.220237933159736 8.216921721929818
As 2.551754842636007 4.70571806324719 2.8119148008573087
As 1.810382719219417 5.838837551997676 5.83381815346315
As 1.7863555093549461 2.8549906363835182 6.474030384857967
As 3.8444065915948804 1.6714734486993785 3.139183555819342
As 7.468595446020004 3.6284118782148327 9.361567324031437
As 0.8584482785547286 12.037405602605437 5.392344773896818
As 6.241166245307682 4.359034770933304 1.5993032271035224
As 4.822078109583697 1.9128379311662387 7.119844205227684
As 4.595249841600267 11.74424698842236 3.8126423480103604
As 8.84768333432528 6.995666331007552 3.6701245829928384
As 4.7507027686767955 1.0387370932888806 0.9115418997117443
As 5.429027855601233 2.1733227951631706 9.524082898658168
As 8.411614089069134 2.6028672053850137 7.233288867276843
As 3.573710066509293 12.290217874562117 7.88181187177701
As 7.003366798910046 12.194297888466952 4.576932494488524
As 8.957907833431644 3.1961783765698404 3.9074458747596554
As 3.173979579589559 11.085191107052802 5.716804223683044
As 6.912630068393307 0.5666394028933694 6.976165494493239
