54
Energy = -240.01959018 eV
As 8.913364590783125 3.7679107445876174 1.659858538875893
As 8.070817646755229 9.588656404237463 1.32119536330547
As 6.653156858156963 3.6749803611213157 1.3320865552836199
As 5.522639997472738 2.77884580507865 3.304094100574102
As 3.340944284757084 6.17432410670702 2.3749262415949888
As 4.378447829234563 10.197693160003096 1.8448232148190102
As 5.8536517066390745 8.547642897954205 1.2565540860994315
As 7.943615522286053 11.209487444746664 3.2013449202807167
As 9.381492663930903 7.5895358313927614 2.1233952234231177
As 5.184483917478527 5.08937918546416 4.220909022590835
As 5.609849492852795 12.079999518919587 2.8856605478393966
As 1.2591306315187207 5.364612638474179 3.2689076690625276
As 9.49760450694319 2.860092414175288 3.8459288393471196
As 7.358657121247635 1.970202195400002 4.743838693540819
As 8.431355135762367 6.698763665516406 4.218137205576933
As 2.0181313120210573 7.652102979267055 3.831636341371106
As 4.653795781621526 10.76303920572364 4.8275758188219315
As 11.357429718827428 8.946992408370773 2.8936224192515816
As 2.9141679521040396 4.66635233703278 5.224934640065321
As 5.753531411566935 5.079935059710075 6.916783340820761
As 6.946387364599547 9.702354197256525 4.963373812579223
As 5.10584479028689 12.06908065886528 6.9753793058271825
As 10.371877120791918 5.089898306457468 4.550878339995347
As 3.3720823102223045 7.021574172261242 5.961288605270995
As 6.720717830935846 2.7486211997289822 7.043156258958543
As 12.00982707446334 8.275891133025736 5.170780759230514
As 10.6131596454268 10.373252049391983 4.7481898073687425
As 9.596940928191819 8.276422099983503 5.743368711187448
As 5.926842839556599 8.608661817409764 7.615959334944299
As 7.548276431552373 11.455117283574678 6.670829974070721
As 3.5102349797411456 4.336675568610591 7.765673784013631
As 3.9374864436694166 10.016123569655326 7.941193737378236
As 10.950694665086138 5.379882549686798 10.132556907532694
As 10.455447672477634 4.950406822073806 6.989087487798598
As 7.728577044288717 9.987188876687075 8.664531518172842
As 3.134569373291334 2.3122124729172038 8.96241317803133
As 2.0341355363233733 6.382249332135846 7.993210006667298
As 11.121419117803478 7.750919516787239 9.222372232626247
As 9.089458591542623 3.0668327249824623 7.878402255963826
As 8.548776106100531 4.857025369957718 9.556085066082066
As 5.676860822703605 6.941953638034226 9.486420579835025
As 8.903753277971795 7.639803650559855 8.08487409301218
As 3.2596914618116655 7.121894623482404 10.052615237214102
As 4.987224795969022 3.294123222617703 10.244051381557789
As 3.467302499599283 9.59073707726301 10.412184825690643
As 5.867512311431789 8.974062722080726 11.021036073091784
As 10.505463901217263 8.727057976813818 11.47363054561003
As 6.601974226659333 1.9855519085651419 11.624743781403854
As 4.707235032373631 3.1738384718603254 12.730921430364605
As 7.897783234958993 4.108082222477684 11.93205618614252
As 5.763859304115785 5.438416227787329 12.040720722896689
As 8.383250072776521 7.414037667351853 11.383674820652454
As 10.380661854708682 6.373493894605278 12.394238402487408
As 6.61880803592577 7.696413391703908 13.114292834331357
