5
Energy = -20.05038473 eV
As 8.036804279557263 7.76033599710951 6.738432033660158
As 6.04894342614189 4.839384834626938 5.234806404872998
As 5.884398779277787 6.557143019403074 7.071930435929215
As 6.214207026652198 8.640938324459182 5.740145176991717
As 4.801105553523906 3.240428330581116 6.153161291744966
