50
Energy = -222.65665538 eV
As 3.272893979749217 8.961916982333962 11.010972135649528
As 4.070561914193592 3.9057258136831585 9.525748576649468
As 5.194255343091089 1.3859360606156024 7.375975725021992
As 3.431972135914239 11.131834567463029 6.821191220841511
As 2.6438936841989356 9.71430613130812 8.710904790426298
As 5.631369084087799 9.480373433138364 10.341957683847527
As 5.092946605463558 9.828815168915023 5.458125874333601
As 7.85681490513621 5.2302150527150735 9.705178831444881
As 4.815856272071544 7.1760711528288885 10.19063403182252
As 2.130721939286633 0.7834541402431743 5.115855075933693
As 6.8674200105493 11.54945884948235 6.026326575386482
As 4.826977857015305 8.585008967026482 8.130369026190154
As 1.8343058108274766 4.9881731012200206 9.363517594092016
As 9.885627770944302 5.954049710452589 8.478179330240641
As 2.1262322500331203 2.59223704709795 8.737727554819719
As 7.458362080062973 3.451638770477138 6.489894174054012
As 3.7740468047933784 3.4849658648798454 7.09079803930529
As 5.422664346465882 1.061982693581105 3.070030508277802
As 9.128040777803186 3.6104063525443078 8.321870604049193
As 0.7007628969270534 8.387500413441977 7.850389853091775
As 2.2446429329788584 11.023526594326928 3.0086915320479637
As 7.744335083618042 0.6299596145971869 3.821099880694708
As 8.615591241839754 9.359358558154048 5.687639948774548
As 4.599908208025782 10.312936040376728 3.0585108104840497
As 7.687064819528711 6.943598960511169 7.819085999972834
As 9.012109374196555 2.6295323821258787 4.667208238763115
As 10.3871272395606 8.117430353480891 4.680311037867396
As 1.146298957058015 6.022720842658648 7.184493258859895
As 7.099199311379351 5.785336298867508 5.7131578833823395
As 2.4854396423364125 1.8925967514835014 2.052558739963367
As 7.519591110801964 4.315163673447567 0.9978849373895363
As 9.42605622884196 5.721815497013979 4.8401783437708685
As 1.778555162456347 9.15251767749453 5.671133118870289
As 4.728360423618241 1.9831813186550262 0.8707847585671988
As 3.689692420500739 2.483122766177107 4.21142445725087
As 0.8065712955370055 7.368661471973045 4.243529805689427
As 2.9168123839919784 6.931217749412613 5.57832049383902
As 5.1639455735648205 4.285450113322167 1.829950140719185
As 8.932841794843352 9.512063287108619 3.253321842501899
As 9.298236696997066 4.264259737280238 2.8378709575451846
As 7.3016117863623595 7.686364370194577 2.905226115996566
As 0.6517669755415952 5.866582324573599 1.3252188344060774
As 4.0281466066485585 9.828815168915025 3.4702906303713497
As 2.052064396272891 4.539688528625138 0.12552578747876544
As 4.455122964113388 5.182091098093265 11.179267219257977
As 3.9836076269161924 7.498466522074486 2.859701064963738
As 7.668688708413828 6.781967259400921 0.5304769889271174
As 5.649095336156234 9.192025913014286 1.7693418279769364
As 1.7118096769360387 8.029936843785624 1.9835068718760844
As 5.423452067346908 7.445390168060433 11.229268865660883
