54
Energy = -241.27862847 eV
As 5.162601053042451 7.125745950879921 0.5713679087173497
As 8.328164377088918 2.3421907349221924 2.591262473257515
As 5.0214343898794604 10.463272874261666 2.5614381909692936
As 6.218101715961741 8.205399057136365 2.599913002295783
As 8.845730084671832 8.10152955403167 2.3164277671902624
As 8.324545247987203 4.652145816323604 1.4832205108082193
As 5.837833538067371 4.924813791255282 1.5789999226060756
As 5.848713982243518 1.9982768914569515 2.8675974829780095
As 3.33924126992125 6.43972576892531 2.2273529907623004
As 8.625845360960986 5.986130574998358 3.581348662663675
As 1.772321584488295 8.076344213354364 3.0810537942686405
As 2.7022710143685975 10.327755198011127 3.3492865413050055
As 11.001410388059544 5.524441024776883 4.177509886910007
As 5.369555815562267 6.124425252276676 3.7669246423893625
As 10.380274938371437 9.363484198666482 3.8835570826892107
As 7.158279211424186 3.0972197311370393 4.652466284070314
As 6.083097779932409 11.59260862404995 4.530241382670313
As 7.057290690637798 9.347156231122728 5.2278605686869275
As 9.93798034202028 4.463285090857033 6.214959158581423
As 1.588576169666122 4.3681953394596915 5.553420598820139
As 2.779843487807023 10.351684512661652 5.839571488379215
As 4.131474988053508 1.8328559835513483 5.65364483718067
As 0.7235807109602316 6.61645429822814 6.0691207633699005
As 9.053086447001851 10.734684446319646 5.570119025663855
As 11.32017090239389 7.669002407416397 5.47035616252287
As 4.453811787716254 12.02396067221389 6.252430150875427
As 4.862625941225273 3.8544257494681853 6.929505635150523
As 3.8690278191710137 8.077001779907166 5.992045673300154
As 9.40222198037832 7.129822893726302 6.995706802856482
As 2.1604619225018693 7.718481071503398 7.797810902690572
As 9.743262176101624 9.619724785203958 7.7179177941288515
As 11.939326691744448 9.413081465760762 8.567028457985334
As 11.939326691744446 4.6319359920194785 7.0881524380541885
As 6.024842777011302 8.404845515856515 7.273059680888324
As 11.671233957973305 4.244831972437962 7.833132797567567
As 8.378532890738478 1.9253732934475327 8.618479096750669
As 6.357277850463455 0.7811625792146133 5.015735656968041
As 11.299241875018732 6.988579304102334 8.706154690723666
As 1.885308074625736 3.877197556535239 7.94435642347262
As 6.505480106809933 2.679794884009508 10.096407416483872
As 8.136274260099514 10.28670637065062 9.588411541929398
As 3.843491724860337 1.9941906276801542 8.121142010583144
As 5.688850803702508 10.26910538239825 8.880859068103122
As 5.048593548592479 6.235371432700404 9.447873644718788
As 7.152815841913508 4.034547136854172 8.080943250183447
As 10.380468700313688 3.1216369416794825 9.663759581648304
As 2.5478421872463484 5.8508043669323655 9.382455147497982
As 4.656715844353809 8.509804711420623 10.5242381911354
As 8.885306138686277 5.045384449254604 10.194178903602323
As 8.00534463630221 7.824543694633164 9.992013258254847
As 10.207065529877939 7.024308139746531 10.946817933254176
As 7.5114862066413535 4.064741966429133 11.964303101305992
As 5.531294342823335 5.651902406157666 11.86907120810526
As 6.574023073733527 7.932333914518627 12.041417034567992
