50
Energy = -223.40500523 eV
As 12.744148015276828 4.299123506588855 8.073444152935846
As 0.8528737364962212 1.1148058291648422 5.736783962941209
As 2.3338595709622454 12.199541796073774 4.646278763207603
As 0.8556956926625272 4.864784848800045 5.8020357319913956
As 2.8256745455169745 4.612021708746129 12.008664974066383
As 0.5018344568165146 5.506169941020436 2.303005951651233
As 1.8197332624996354 2.625938723552562 8.5587454241795
As 4.3444941715165175 12.668820048814617 2.754272275852506
As 4.143538312043919 11.78776353140985 6.228362389585975
As 2.921445362493784 0.962512369253502 11.9436820418972
As 1.6830780001421117 6.1487075044328625 8.552309077023061
As 4.2801085330802575 6.365424330108986 0.2780785765572337
As 3.732921294429362 5.934097453593408 7.041930542968376
As 3.649929962254321 10.034049536508334 7.106837175414458
As 6.295643629107804 12.654140826566532 1.016040433030776
As 5.4065323136172765 0.9942839772502403 11.73641951397988
As 5.053498119025486 2.03119493438874 3.866733248301121
As 4.187164004142938 2.7755262921729975 0.2796827832046219
As 2.752266526770112 8.03400780604141 1.3938996816189693
As 2.0560739755031916 2.2296155646460583 2.5084567171537397
As 8.400313828350445 8.445568482335675 3.2942085025801773
As 9.88164437561503 6.500874789657797 3.8253532001077115
As 8.633715081402306 1.0150196024630678 3.7001201614799846
As 2.222636656319645 0.004756074484057783 1.3577226077380404
As 6.985489315211331 2.0108614082320897 2.15081466192151
As 0.9920006193937942 3.6782062478336663 0.7371697249350817
As 6.2796007802722125 7.407057925638292 2.3241854350751225
As 5.5774499858073705 11.063812293402293 4.351899386843613
As 6.4748522840641245 5.023334508077997 5.086276380019086
As 9.769047701910187 6.86751153713777 6.299333374171708
As 12.601788958542405 1.7517119491400612 3.53852666444254
As 4.673101343123267 5.391487044969867 2.5816450354532003
As 4.691804019152132 9.293051926064296 2.3924021882120523
As 6.119676575011782 0.4307130678325954 5.527202148208002
As 8.323429861928183 4.6511558012539735 3.4029392714986084
As 9.538499309296865 2.9268609416098776 4.674801554699409
As 5.412375343947872 11.063812293402293 5.670363940679696
As 6.277808055407475 8.665769382886976 5.871944284708532
As 2.4875220023653264 2.971239570186465 6.1058986168204195
As 2.575487280453965 6.532304606547387 3.399301331221941
As 3.510788848553973 10.00057441662948 4.527900253732629
As 8.739811765127016 9.110923651453549 5.696414577591621
As 7.284270648890028 3.671151894426215 7.038657619091819
As 4.88972813626508 3.758613604737363 7.923469047280323
As 4.308319264264773 7.132127783834231 9.186583005620424
As 12.020683552025961 4.121963563698724 4.031956042448234
As 5.048965679349335 4.902525070292212 10.11809138170149
As 7.536223425216953 6.13426207566411 7.04260043235404
As 5.6335486471025975 9.061429991393753 8.256254764067796
As 2.5238488712989247 4.451091896133325 10.180099171453342
