51
Energy = -229.97768704 eV
As 3.369395408483779 2.9537950233522445 9.911712213248745
As 6.831574002241999 2.3748958349417038 9.864030485380134
As 6.2370218938159825 4.800640965336767 10.041330199514707
As 1.1072157736888346 2.4826398612477516 10.887553779607417
As 8.02373151813565 3.827352774950429 0.3766026130608774
As 10.985445080566246 5.323406798606021 0.9631150671981543
As 10.921791138825593 7.654544885711116 1.6706826543298967
As 4.82427313567373 1.1300905317585266 10.716007197427691
As 4.241792353585002 4.627475671779493 0.444309196187977
As 3.0236406436507104 6.628255318107364 10.612573640260377
As 6.562315676888569 10.934740225020274 2.5003651323255274
As 4.785434136022607 8.42350649777077 10.309516161119646
As 8.34209295441047 1.6249401682602758 2.957107039584031
As 1.4493393425159051 2.5907371371018213 2.238908053775997
As 1.2614865375531168 6.005368249216349 2.9023128064374935
As 6.967619874769395 7.857792798447059 0.23547472032797973
As 8.636182337602037 5.146900063053993 3.505810364891007
As 4.582973669861149 1.2952613516978488 2.1157784157073536
As 10.080549953516329 2.806685979387922 2.5681436232675003
As 9.034659962484538 4.119175270596704 4.4919685916302345
As 5.648183571263911 7.036286424941115 2.178210356879921
As 0.986528091878516 0.40102543303869087 1.1544577575129287
As 6.867661979763095 3.612021209146075 2.590407090991063
As 2.3223278375692167 7.830456722262612 1.5841832681197732
As 3.16340440747274 10.36922666781497 1.6631563651146424
As 5.4471797176578445 9.393596318157018 1.416045908041647
As 2.0519075023429396 9.646428445326483 3.787244692342906
As 3.7555484979975513 7.436579500731699 5.063545081917047
As 1.3044002114647089 0.7494875523753453 4.746749585817687
As 4.446706858867555 5.016068890018365 5.184489123968383
As 0.9762946060593679 3.5972446365747186 6.208968984501583
As 10.040950433328943 0.6030643029473425 3.93562618659715
As 8.695432548642957 1.7371461830453598 5.444988497492412
As 0.34024242019749507 7.194754033906404 5.27007849330968
As 8.798621226559264 1.9031180790382287 5.696065093487811
As 3.8783243515399604 9.519204875342638 5.482068447846152
As 6.621469728019737 3.0353583752622613 5.8609590236844875
As 8.798621226559264 4.214415732635006 5.817460787564224
As 7.388294056239383 7.294220794188506 3.9679832446189995
As 2.1155798933176033 7.066135091351119 6.86089429806514
As 6.179572719601528 10.313510503158085 4.894042754285853
As 5.98309977470265 6.799083677994024 6.007499003269645
As 10.271425688453155 5.261477837402356 6.349153070588158
As 0.8796544697862649 0.1012896232182942 7.1579191000437
As 4.426402360325629 0.8381357394644088 5.505657595634306
As 10.547409279947223 2.116190295719329 7.474083085414571
As 5.943253369997218 3.010392621794597 8.251261965810947
As 4.807537511114802 0.7936925305060646 7.946567577193776
As 2.086545060097845 3.793506747066445 8.404118068803653
As 4.236983240685094 4.839049821813574 7.7254136901923625
As 2.4896022023510898 1.3042633857343087 8.714079157112282
