55
Energy = -246.63667712 eV
As 4.258223652753597 6.404193593441017 0.08666028255331447
As 6.358378343200777 7.2183169472566115 11.922756374428635
As 6.932650437208518 7.900225834784742 1.6355776102105806
As 5.1801277391589196 9.556154525537016 2.243170896898688
As 9.1013399775231 8.943093220893829 2.1688101806022595
As 3.270774462057541 8.030173424040576 1.8156104325550741
As 4.828520806201016 5.0042208405594195 2.2200364784603788
As 8.818331490712216 4.880397734935184 1.5788802264591872
As 10.424277085500977 6.76853808961752 2.018458535408486
As 9.57894525031088 3.1506766716127985 3.2580985694101834
As 4.476794484489205 2.7223099163823887 2.8104856052002107
As 5.103264315095964 9.713914164179823 4.7423996640450685
As 1.438667505216675 5.375303207087269 3.7133765288519696
As 6.738867480872448 7.836013011338861 5.413618556032716
As 11.047064447098498 6.419650754983916 4.3678195837778215
As 8.68341363309464 9.247503955312665 4.649159728396914
As 3.6252759733244946 6.555364347093788 3.8108628477646316
As 7.053488376037584 5.843941600916652 3.057626634133388
As 11.666326067033166 4.051344068519948 4.270203503841007
As 7.952637306553551 3.7678686046865177 5.044231352327302
As 1.9124266366155835 3.308506883672135 5.12090453636178
As 0.5467692158350818 7.041357192576311 5.338240222876092
As 7.10427743450435 11.237058867581789 4.81220858433413
As 4.384432299564065 3.5806156151375883 5.12166929557613
As 9.061430261769313 5.930194576765982 5.792198616908389
As 2.4309184097283634 7.732983562621903 6.805179375406468
As 9.841162289269784 8.77265653754248 7.421853051913029
As 2.946178584459446 5.749569104795799 8.192993220601823
As 9.36587637444509 2.501965329930419 6.691604554906777
As 3.083587847892437 0.014391646088519939 6.16302663015648
As 10.851111205682903 4.495981679980672 6.834031400604119
As 1.3612970746825725 3.988416677017496 7.4610399207613005
As 12.064372607747128 5.621386555039156 7.103142680033224
As 5.072393611068473 1.4501189362175022 6.218730027135933
As 0.8867601313732224 7.090907849143077 8.687981138366036
As 6.642790669733777 10.981874876791496 7.292858412584684
As 7.34182126486562 8.65738378387382 7.759312579046952
As 4.019159339718259 10.748335037546543 8.768684487517902
As 6.301618107596459 1.7337515880534096 10.048093295700408
As 7.950347693327752 3.114695356053605 8.695494469881242
As 3.2585182156662316 12.285162176769392 8.461741198839198
As 6.397653272991675 5.001259640664206 8.565346076085884
As 10.399507223716327 11.035936146068021 8.277078501284576
As 7.954285725639049 6.614509676867192 10.179593531397062
As 10.19868635801047 5.818973969274491 9.508017630586052
As 8.218340170395424 12.054181848982477 8.869058017392538
As 5.26361618198444 9.527751531146341 10.521767698463844
As 4.309840486228239 1.9726430219418438 8.528747593516105
As 3.910270883418723 11.546740079533341 10.931159369858584
As 10.78874583834212 9.086675541050074 9.77074317113559
As 7.445867931582469 10.75950368365992 10.86813120436885
As 9.639251752481663 3.6463317816683607 10.487570885689196
As 5.793794741977771 4.05905729474631 10.819659474981792
As 7.9694888296601905 4.784623253198049 11.922756374428635
As 8.925294469250002 8.84455615948802 11.31080115461002
