52
Energy = -234.57889827 eV
As 8.909468239907895 9.091126701968914 4.29075089937914
As 7.5170551070447615 7.4499827039857 5.168267927515392
As 7.177563619877864 10.598153706509532 4.956372491444313
As 1.3254894995083253 10.145132107993774 4.81038469927941
As 8.612411418880352 1.4148426729367742 5.517934864877906
As 0.2150763361687612 6.714802434670634 4.81038469927941
As 9.22728352863571 5.59257726481799 5.282766757802528
As 7.3591684502381 3.670108100750902 5.7359118645213645
As 1.2180220998591875 1.14489578041651 5.61165458678932
As 10.707186923212868 8.954065628203969 5.678955701075088
As 7.611435829987178 9.184973268497314 7.024637993075369
As 5.591858297450161 2.4540159605022898 7.109735707898098
As 11.000958145667047 0.3580402634034126 7.535234208570764
As 2.9688753711869706 10.64657968982091 6.244577317697091
As 11.145710399092737 5.329094772675323 6.876319790602739
As 8.8301108471456 3.596575240502338 7.790961147509182
As 8.033358765894073 6.015502839041169 8.772246381046472
As 6.764450528874843 4.484420920182905 9.687295667195958
As 5.639809828163578 5.7937701122050855 8.214801885774957
As 7.755815025535209 1.330634537212209 7.852218380556052
As 5.2988448135369595 9.551927344905168 8.033296610502381
As 10.629087181064918 5.181886149847547 10.20049677890245
As 5.219749281255901 4.363709315233655 8.727254380612793
As 2.5322305874350115 0.532339599322631 9.8682403636647
As 1.6552480429239582 9.947064960896094 8.276044589212288
As 3.312009879736981 7.923053820260735 10.597973076351051
As 7.380451787034472 2.2296212521877212 10.786342886979591
As 2.4966427382100904 6.14991763134672 9.096839039451899
As 0.6322919731995048 2.072170834354634 9.189692223932168
As 7.482723500955132 4.476107137910925 9.71365288024147
As 6.16748684688214 9.150445486073158 10.345424575410263
As 4.809710066708541 7.634213206103279 9.394828524974354
As 4.435615803786695 3.201399429554796 10.713272214825228
As 0.07585173649729154 6.858626725458771 8.860282134525832
As 10.272161640797785 0.7426396635670776 10.684642576563286
As 5.212956295587475 1.2285747923095882 9.74165972768287
As 9.66226400776806 8.176203371009848 0.7672551487953727
As 9.550754161215949 5.679110028544758 1.0966704555564482
As 5.808911401148843 3.042072363734713 1.368229217200423
As 4.435615803786695 6.617759732238868 1.2259422538286548
As 1.8915510193114862 4.708634639498036 10.662673948823484
As 2.234357336255436 7.696484589496597 1.6341419365099303
As 7.299493718584916 6.0509872820005794 11.154472639150798
As 4.850315913692573 10.740202761313604 0.2154201258624083
As 0.1556191817981286 1.4180013016547452 1.619085550752547
As 1.0545768866713963 10.61359503550811 0.41902237203896614
As 5.599944017086472 0.6265563448591769 2.2061776133372235
As 2.441785924920173 5.22552662591697 1.6906458395458128
As 7.805032067793987 10.884271553156507 1.3602093886747635
As 7.7630818614344 8.54890871103334 2.3413977658173772
As 10.113774104356079 8.900145128592817 3.1231529738111887
As 9.62293701689077 0.19163308633111042 3.031147556730201
