53
Energy = -236.85889365 eV
As 1.285809588550567 2.949962973490999 9.16673872742474
As 1.7222282955786274 0.7905378970987815 6.908263385426549
As 11.509757231711362 3.76306721239341 6.091136486330841
As 3.2648631849855296 1.432092920198054 8.772041912638576
As 11.057052937522881 5.803545676705051 7.504911121618008
As 2.154120294758989 5.12815310443848 9.944441939374881
As 0.9111218151207802 1.4583757012075218 3.5862892837329747
As 4.747958284108487 11.464899329608063 4.498678838700941
As 1.4895372471090358 3.3011193345439387 6.718102456190588
As 3.051810838855788 0.9485833767993361 4.842748016555751
As 11.788280281261507 5.017904520007857 3.930279331130968
As 0.032394282979465894 6.379714266434335 9.582746695434551
As 5.611928190026917 11.743694232772343 6.7362850621484185
As 12.19518975668653 7.785999402723273 6.434071400075928
As 5.175792385061297 2.5364672746287407 7.542958644074025
As 8.385784549272534 0.2844554617898308 3.717303257273565
As 1.1677141827642055 6.5298089047815795 4.818151507659772
As 5.946586554315976 0.19662545100199433 1.078852009028439
As 1.5287039373719369 0.7563959696299383 1.2747284245342112
As 1.496956197206522 3.8829775644754703 3.042701499366268
As 3.0414851657128743 5.993406160270207 7.753467480268059
As 6.3770354502493225 0.9799594229989271 5.12446670975685
As 4.599118198584509 2.931046182231797 5.189008962415935
As 5.096407187031784 6.698977334669013 8.989698224672617
As 8.094041389011883 2.362671708569721 6.717744077437972
As 6.277908258009633 4.463311677492538 8.842196818053187
As 1.5393600486131132 7.973023092558113 8.263440955922976
As 6.741969678449542 6.223149423759416 5.489050087269138
As 3.5597674571383644 2.1644061705010222 1.4135998060411075
As 4.730581206205997 7.840115735515161 3.644376481423852
As 5.348322302956397 9.765911156814107 6.525679560899591
As 1.4075404352464764 3.199478895685224 0.6192018124856651
As 6.63596209006313 7.841310658680845 7.406337386886916
As 8.088787583637599 4.822186518965259 7.156009321312678
As 5.052032504919885 1.8482815017034426 11.824020617702605
As 9.816917027117086 1.981112621602861 4.905490031456862
As 7.8105592765223495 1.474291275388725 1.6411970366378934
As 1.915000287320001 6.516455979743573 1.3212446029821239
As 1.0364726297822993 8.196235820546173 2.943338169608821
As 3.4375361708331726 8.46401448248892 5.743959723219782
As 9.073531037669294 3.8855065366528327 3.5040061164360163
As 6.522733187147179 9.58041646561988 4.044992970753698
As 7.622776652883907 6.1193248106577585 1.7997152403611454
As 4.715696257004983 5.587444559855737 11.756787147594373
As 8.38105901975348 8.04193400598466 4.729666214089969
As 2.9994243517299717 9.645433906304024 3.581022216174011
As 11.057052937522881 5.397195981233925 3.5300925652540007
As 5.937862469236858 3.8586300808552383 0.6802679779443842
As 10.781572809784983 3.752847554534923 1.7155379024250885
As 4.0422916302506655 7.382790445011029 0.9490740659886411
As 10.125203578956022 6.133979151006872 1.3453158155998963
As 8.18342456087403 8.480304801251245 2.2862243562965894
As 7.20393286925524 5.579131948229475 11.761629821056069
