54
Energy = -241.73358579 eV
As 1.31305161568437 5.1563441454941525 2.497312115206885
As 7.0224662938930456 11.092231922992479 0.39645750291702564
As 8.301602233554043 8.997517064162023 0.6656440129700768
As 5.776112409636028 9.038170522354179 1.1753504321412085
As 3.2241984534561565 8.352053718946323 0.8531203597607849
As 3.4321709850620925 6.578433490131691 2.5837634514235757
As 2.590866680843894 3.079865638822653 2.3068419365038464
As 6.230147569155937 3.935604235389015 3.9092160258416184
As 9.100746281022298 5.73951228436295 3.393592527360113
As 6.138295346532612 6.227125565531033 2.890412118053861
As 10.921008836868447 3.8708919453623367 3.5038881120154657
As 1.0020648113334445 4.656440353540629 4.964513662212685
As 10.510723958263622 7.504077763652385 4.527695944110219
As 8.135862672054486 10.548183955141846 2.4985928058627818
As 2.2086998507780162 2.496036258082767 4.573090882341923
As 5.751662615411793 9.693666583773519 3.604327299712697
As 12.338047115269102 5.735328869682077 4.364229226294755
As 11.56321141803648 2.9508651429231247 6.89864426128651
As 2.9803360989367467 5.865784779575851 5.992786216240549
As 3.1118045472235014 8.949336976558033 3.1817240326375877
As 8.015588471631192 4.886101289286556 5.457184681674914
As 6.284604147449827 7.593835525913438 4.827446346813609
As 9.59469238482047 2.892469944515112 5.375774022119438
As 8.856903593422931 11.483640785686168 7.618596378755881
As 12.851620790812039 5.044118043890289 6.67534205428807
As 3.6341806653702045 9.84451428827957 6.581209890392851
As 4.352097735513495 3.8167716698767102 5.621971903699371
As 1.8523397741763377 8.711210779664986 7.873859981540082
As 1.8126678218251902 11.191939878742515 7.594863915555099
As 5.822120353958686 4.260871748859941 7.63190249001971
As 9.98152047240703 11.817835245875768 9.82348137376982
As 10.626676943562527 9.685889205910579 7.299302968794481
As 8.558565789567574 2.9735878668147286 8.672491916021869
As 5.148607005019183 8.053928125333139 9.488279696658857
As 5.108708153391421 2.10234601974365 8.719649837412305
As 9.58607066670553 7.388007483525983 6.8454957783505055
As 1.888583934602774 4.763254254458649 7.921985864590551
As 10.988053850963503 3.0315455030221234 9.344483943919162
As 7.827066823258803 5.190959811341402 9.59967538502882
As 7.650718228529157 10.94503622394397 9.729273771077782
As 3.9070397317183283 4.290217540761756 9.18164214016157
As 6.977024640132995 1.7966746771701336 10.317109140469759
As 2.758052419711231 8.327348798188014 10.157038560074243
As 11.763749239594505 6.81807813572844 7.984673379919686
As 4.145208140007829 11.49399284819509 8.366506963874361
As 10.787562341921667 9.39172085337612 9.759234156065105
As 4.3176767384264805 10.188538087258598 10.472417060625743
As 8.40566515640744 8.55613525323877 9.681927484783035
As 6.847786819332467 4.002273594275115 11.553014989049652
As 11.622472282297226 5.398134310679341 10.012061265964485
As 9.522852008980252 5.479380822665175 11.38591864828095
As 5.668936212132009 7.214629251017808 11.773464107211657
As 4.5916379177497415 4.932565313908405 11.554223637248407
As 8.248133277113888 7.623239927902939 11.975557666425209
