54
Energy = -239.880362 eV
As 2.785925406723503 4.452038364178215 1.7716678720477683
As 6.488828954981675 4.320667759584483 2.0268745426451225
As 4.744135303878157 6.034974064329763 1.6563738591113835
As 9.447707753074416 7.64322143853222 1.950383325855188
As 7.106593736481681 8.304329466511906 1.5534711509669001
As 8.888073205344629 5.202534174281126 2.3827442941000614
As 3.4929546110978125 2.7941153833546335 3.5196971166292332
As 1.682524984667703 5.954299846280889 3.519000311783305
As 6.088367854789444 10.359883548679898 3.4930617489121576
As 5.801100439759124 3.539560021202544 4.2879242522434255
As 8.445939498505549 10.93049051532411 4.122629829262797
As 4.793584613493607 5.39880347520167 5.6198806638601635
As 4.357428227686686 11.210918088145943 5.187022175497237
As 9.962566784246697 8.807755983006247 4.141017388372553
As 4.3831706304788325 7.127174351194704 3.8471562519339497
As 6.686777829639599 8.021708716723433 3.9639581910807498
As 3.3061189550282992 8.848640339702253 6.0325646688080585
As 13.968323172530965 4.635624753714204 4.490676540446331
As 2.1825814279020674 4.188300880349082 5.2591079756809185
As 10.80474302850919 3.6532879720962086 5.180546316235356
As 0.7230392858570832 8.630091968276194 5.4784651891432565
As 12.029158315036543 5.848507276096601 5.4593217480621785
As 9.809696001399727 6.969410677325115 5.883521548921356
As 8.554993824272195 9.486365911765516 7.4438373136162195
As 6.673842037339817 6.22932756885092 7.137344684702971
As 13.939232780420333 6.401200676510151 6.270309193794859
As 8.252464951455709 11.734219979749712 6.49164191052213
As 8.670687896373023 4.9801704874266655 4.842523267241913
As 5.821470065877287 12.209360193927157 6.879608123594523
As 4.924970766325063 1.6757356052528125 8.333111324864445
As 3.0915136629713813 3.060981457040475 8.229196516128685
As 7.924795837604661 2.8395707016969216 7.214113319910647
As 12.754518238854166 5.684937980044557 7.8789003807140325
As 6.177739530768937 8.665916872454542 7.017172746991613
As 2.2219235478352046 6.501249814359825 7.144879421177324
As 10.389103800027303 2.64389856722158 7.459930387247291
As 1.5330075317825747 8.882961524195384 7.8104104682704305
As 11.579394631396683 7.662268940846987 8.840201912837308
As 7.193802945131204 1.9344141547658897 9.37520408132274
As 9.542689028970191 4.768046788634679 8.44441914277509
As 7.207426413441413 11.45975889244117 10.679194520515976
As 13.939232780420333 7.7750074477068045 8.281313214155503
As 5.250423586075549 11.428319811876108 9.29730718261004
As 8.895869693516023 9.96370834564706 9.838769480611887
As 3.063739900100571 5.2753717360244305 9.282015922921607
As 5.548651273635434 5.6065310102063535 9.326454649788243
As 7.800695328985767 4.25426128204864 10.244817893940885
As 4.81871751058762 8.951701149711191 9.047904072269384
As 11.057133673279145 4.463665576982426 10.691696670063164
As 11.67766368592692 6.792944350605753 11.244297752026785
As 8.293409897341949 7.4651546390512715 10.0303370290487
As 9.25180981025865 4.629743855653946 12.374676659961837
As 5.943738209057392 7.570245398809505 10.795085892305911
As 9.370331356342703 7.15259092179859 12.252228609867622
