55
Energy = -244.71053113 eV
As 3.804198604024292 6.462382209474142 1.520815723438904
As 8.369810256967996 6.250706409069827 0.9615678902057249
As 6.155431241545537 6.0025610422050155 2.352241698742155
As 5.465145644889637 9.825351066272692 2.18091688257609
As 9.378596814594225 8.058740396180877 2.169342461256007
As 3.2789297764950094 8.746359394633933 1.5841535226694923
As 9.360994701073738 4.203457175042815 1.9358464140264628
As 10.537096919124338 7.095668388312921 4.044080686643533
As 6.011670494593422 3.5519540007215524 2.8165969364414205
As 2.722063031985687 5.310870796485491 4.039388917990557
As 7.623268258912336 2.5742371610873116 1.098485925758765
As 6.512345087330647 6.432858328709849 4.750578475616577
As 12.249145343606125 5.129113244271454 4.194587584900172
As 4.5166103223361205 11.501076976072941 3.759302857722439
As 1.7862247233570694 3.396389969001049 5.579824251340102
As 2.8183025648641413 9.376897773566457 4.430660615284062
As 5.354398310479492 8.684231622649914 4.367923568700623
As 8.134662705078455 3.6756675277734887 4.12930245199838
As 1.3040822318869945 7.258137458006466 4.52501450951666
As 4.237512600617614 5.490015336770278 6.052009194173157
As 4.242621176373568 2.9351225982086824 5.9132468721790525
As 11.45017103472724 9.273632262553646 4.905553246690619
As 8.350289783137935 1.3757161122221444 3.1383750775109203
As 13.09067332487292 5.5223963060354775 6.4679135539118136
As 11.658984417848156 7.730108353106742 6.873765111337598
As 6.236274225284045 10.753783073311798 5.40695057396384
As 9.130679025860049 9.354563313162194 5.714339132485658
As 9.41804218808586 6.703396119592617 6.333110560876056
As 6.598993785334274 1.452886250684218 7.506959429570756
As 0.5509805876594163 6.831414493875109 6.832467779451163
As 9.986250330115283 10.790520267019684 7.599665006453208
As 5.056072660600845 9.85121546720698 7.415386944905421
As 2.6545686745769346 10.324870954142924 6.829074253448022
As 2.007868319376721 4.928224811417241 7.475730728266631
As 8.40175283768241 3.1379912675721457 7.924716913585431
As 4.336763177314538 2.1939566521132963 8.333386646901786
As 11.037018065328287 4.28627663054617 6.140260091916516
As 1.7053751199756058 8.538152939845551 8.299280568299414
As 8.417308062103453 0.9910052086420926 9.148839398666928
As 11.217183678107865 9.092283029513217 8.992456862169707
As 7.382961097372228 8.602307281874259 9.224442954171394
As 3.203763119119751 5.415583039808497 10.31524964637929
As 5.18706596237653 4.346458949347647 9.173281534192862
As 3.870272815808303 7.425132104575109 8.91084974449048
As 8.29710682138074 10.866553831200253 9.427368032591016
As 5.814717319334806 11.463471392469286 9.234206472777824
As 9.534185468428175 7.368585423171961 9.741981656406082
As 8.454523633576919 3.1232858510904618 10.43679364644582
As 3.872281457938436 8.623696206388738 11.093882738446492
As 6.091847545069549 9.753127601651999 11.08038419915368
As 9.92906222072043 7.672517779509671 12.16661666232839
As 4.549785704283011 6.489084438891797 12.239211383621155
As 6.204468522638033 3.6323385473218464 11.333962561941592
As 6.798848356583467 6.066821364294756 11.21990820942149
As 8.184716838433276 6.600810792514396 13.201708227231016
