53
Energy = -238.0881197 eV
As 3.8751510794096253 4.233492585887564 0.26285416738734263
As 7.2509476424721315 2.744732447056229 0.13085025859500812
As 3.7982299629823277 1.129260215026477 1.3861809358179977
As 2.6048223227786638 6.374714479810766 0.7409424993598458
As 1.4043771377080168 3.2860131420020173 2.431042395259982
As 6.2421670956291315 0.602407523410343 1.0896900903863018
As 6.193486653831598 4.862046252041038 0.8245194057260601
As 9.348038359234979 0.94469483750178 2.7938013137051643
As 5.298023847679397 9.558213585148605 1.4733466638792743
As 9.318471089883735 3.1389991686777017 1.5617250689244375
As 2.0376428457671754 9.322919296450221 2.3050096521036236
As 3.8195029017160045 11.028917619408306 2.845703061022965
As 8.930818060713474 6.6277139674268915 2.952390594467922
As 3.8899423342026087 3.304684775559853 2.5810137929402894
As 0.9480106787867599 5.783361282226947 2.5943032272789863
As 3.863892029656911 11.693468924133517 3.3842915833040186
As 6.96710255345776 1.1091986127707367 3.413746304897002
As 2.0933628315463566 0.1567952972701514 5.018415020998494
As 7.229551632162451 9.688740007271758 3.1301417422889095
As 0.7165115217945522 2.2516638175256176 4.616219133515547
As 3.926337357958668 7.62885828883153 2.4609945574064023
As 7.110321087106575 11.028917619408306 4.683791621658524
As 8.146754633014488 4.321739120321911 3.400334401442003
As 9.745407250257035 1.6587855133489169 5.1486306534974915
As 10.241787415470293 5.219356293110686 4.5166117457010495
As 2.2136792171509607 10.761274342911554 5.719968589124554
As 0.818338558121343 9.01650317031428 4.511995501234209
As 2.218834523327348 3.8304990572494284 5.767332802810393
As 6.9212162483201265 7.457691836956622 4.198516733774549
As 4.236449161439378 9.64006837390518 4.840841582055515
As 6.43199113861308 10.691469707517403 5.319978938002419
As 2.017682328348137 6.8096824677406165 4.753621341188109
As 7.675316959181382 1.5260060808088833 6.886660163537066
As 4.277182643852744 1.336924510534499 5.150527563693021
As 2.886456979245833 10.599869982717207 8.112812938393596
As 7.671106303485157 8.635542614086617 6.273126872793212
As 5.8345329679177125 5.124714047593143 7.522178638568134
As 0.2387676564757682 5.367030357529853 5.805827072381198
As 8.73894028781502 5.649458086613163 6.402274162685282
As 2.377094128588074 7.136940892055463 7.912114319795432
As 9.093453420200742 11.623913428834278 6.186883692144004
As 9.501644193879487 4.173676030298238 7.991734329196367
As 5.728411426249941 11.99411386479809 6.580701871683235
As 1.302573670207173 8.997987243365381 9.116089912031564
As 4.858116181320172 9.24352922543871 9.028855400530478
As 1.9324776330234932 3.418026534129276 8.2257437516851
As 6.4764387644795285 7.517771371916693 8.233962045102649
As 7.461629865311492 4.559951975469797 9.362589851654015
As 0.5593982289239771 5.5253581128034694 8.33645379648537
As 4.865085860798922 1.8496984756246524 9.064537749493715
As 7.189543273883527 2.084749894952533 9.43155727505121
As 4.104729470826132 4.18703918256337 9.208821746400382
As 3.2246284742967055 7.738534968256506 10.164121357444657
