51
Energy = -230.26748699 eV
As 6.2351663251783425 8.86383174627619 6.078680647061787
As 8.35999156303113 9.261337095520203 5.133129676216918
As 9.848063328440432 7.229489270226101 5.167172364001884
As 5.914432740869893 11.31632439418258 5.826165447354577
As 7.060574940123299 10.308568613731685 7.923399255911494
As 9.170543865929393 5.547168624861941 6.4537404737983595
As 9.220550183149316 1.2502239614560002 5.693979861975278
As 9.572159841225451 10.482172738501419 6.497676573199502
As 5.248587152116229 11.397813774833857 8.052068576892342
As 0.12797488468888277 10.400073422862285 5.6939798619752775
As 5.79320684199661 2.1182093839646186 8.458123193971932
As 11.267750287728061 5.347437155009055 7.788524963732945
As 7.751815335146746 6.219893312188781 8.43013445290962
As 9.565255054213548 5.250719868762085 9.582129154037194
As 8.347662841822043 8.373866771251915 9.527268072227715
As 0.4626766528941891 7.971634310420881 5.74447236120759
As 6.040419402652888 1.9388186238924747 10.941045919636561
As 6.499127359376794 7.818298880328151 11.100976304225567
As 9.687012979273218 1.098319070645277 8.902505497935731
As 8.13130008158489 2.522746272179458 7.611436222085759
As 11.496554894505472 7.810183583071967 8.190698886866542
As 11.205252468001214 2.005681035481591 7.1225175356111645
As 5.5033750531038566 9.975478591592317 0.4911151840745182
As 1.3649578671464153 0.1554990569039731 7.002474307152131
As 7.40776288741435 11.532794087405462 0.06344908332954101
As 2.402195236145108 7.551708768145107 8.481257533938273
As 7.969128508890178 3.495510026095602 11.444007177875658
As 0.7713320586983394 10.881512239234258 9.30404929984525
As 6.789279060670932 1.026538839367582 2.2243766730058168
As 10.507702038251749 2.6773907502539553 10.609418931024823
As 1.3885933595866182 1.5454310462915053 10.307350190154652
As 6.321080401643482 9.042289611763769 2.716727067680648
As 10.378016887544485 6.646435496660285 11.073180863833025
As 8.201324825800533 8.274750609586286 1.2525468631224579
As 9.860015166822546 10.361769238717265 2.733716955201334
As 3.008226635651464 9.821307332683432 9.455926141180347
As 9.020166603104498 5.93021184947528 1.5138240092470896
As 8.532996468287456 2.8001405022452386 2.1263264145460243
As 2.905648563870581 6.6581046047284875 10.775812510361618
As 10.584672143623822 1.3995694350613541 1.1328430750194274
As 1.4282396820315 1.0904817896294539 1.096073191418924
As 7.657657766280162 10.896991833562582 3.8094807774615305
As 10.033983799377554 8.395016691805443 4.351779908322337
As 0.7126025103767404 9.140702303694788 1.1459821640686023
As 0.9566067635039438 5.496732026710106 0.22494574041760193
As 11.467262887589062 11.494721517166877 4.289206841754951
As 10.727322108820555 6.230709501334588 3.3263414185618965
As 3.051693020451174 8.958751726018447 0.2595453061460415
As 1.755326962679539 10.32139266326288 3.109009656606409
As 0.6348142288432419 9.249884426966167 5.133129676216918
As 1.2532814142072384 6.926983183275234 2.210025245391335
