5
Energy = -19.75685513 eV
As 10.287561591826027 7.181770485660877 7.5871317460329895
As 8.505554129821006 8.951637010392446 9.250139685883052
As 6.4138901800461445 10.162233080521444 8.729133974697543
As 8.415873210460715 11.416247203125735 9.397251078170184
As 7.200559460853127 10.070657451429444 11.05606470088725
