51
Energy = -228.26280161 eV
As 9.269370007608277 5.144495432491747 2.1257277611876955
As 7.864217392460616 8.295091071715737 2.8962071977534958
As 5.618789266914073 9.297271972655421 3.36203634288824
As 7.195368540412925 6.016243190452742 3.1245789417967793
As 3.790490920046359 8.191534809086932 0.5358341959088408
As 3.896667071167522 5.567092131830387 0.7438800726442213
As 9.1336665168711 8.20831372729606 5.289484888392118
As 4.062674596022406 2.854834931794728 0.34050842251210517
As 10.355165911090694 4.969772842818706 4.166324605799589
As 7.5562129154471185 1.8685846758912175 2.3510723658845496
As 10.770955226219982 7.935037579662853 7.381933635917761
As 5.187333238433184 1.2699085614931735 1.8490083578560383
As 7.585189515310056 11.754112700330555 2.867587509966097
As 1.9447496852058845 7.905338234992097 11.131404412022375
As 5.394898435047063 10.002533233697326 5.751524057267859
As 9.663898494207132 1.8085978766701667 5.332272780433799
As 7.374417037204086 2.771544031226671 4.776676592671744
As 8.997975263454428 11.712896732024053 4.817480465314196
As 4.299746178255916 7.211277767752067 3.8128517205008876
As 2.5785657736373615 5.486428089344274 10.825662805785644
As 2.3613829189068056 8.122269045272917 2.5031661893511354
As 8.482447760977049 5.8109746762785655 5.5854026870955025
As 1.733464899684727 5.636986159412415 2.0003846551894116
As 7.58391122131081 9.41555503431673 6.825158396422723
As 10.197904736700336 5.60310555461465 7.569594537760079
As 0.5216423935006473 6.121415879561781 12.092972288950923
As 7.6628504197478176 0.9250451511538311 6.432216951293617
As 1.8371455318054188 2.8695540715834245 1.1962548061588727
As 1.9237483844413479 12.047951249062693 3.879044879153758
As 9.268261365881127 7.1987809332303225 9.225257570250228
As 1.962148049503324 5.415595005843557 5.61518756368159
As 5.901133059168886 5.750867000393108 7.467399835242311
As 6.93228718569394 7.815027738702766 8.567549324283036
As 3.986604613923239 7.950768836234139 6.212358349655519
As 1.6567895233128658 8.901236408363248 6.2007717937808
As 4.654466945113 2.1787719185587213 4.3310774586287755
As 7.154943053745163 3.8818049735719855 8.625354479607399
As 0.29298001607498175 7.187986477024044 4.946809090297829
As 4.230329384084639 11.98733688157121 4.89114013397807
As 0.6610417588403541 3.2792180885484035 5.206790522513902
As 2.2220387289652774 2.26199311654543 3.5602699506800706
As 5.193409867201682 2.2951483062877713 8.581973035819525
As 2.2014710349261373 12.036315275584943 6.330635074488312
As 4.422386109684156 5.987757722818223 9.54360525882049
As 6.136961453925695 4.709512866522275 10.825662805785642
As 0.9709799937002812 7.885417351912082 8.385613992095998
As 3.9932373039821667 3.296579040591425 6.665620910109504
As 11.32789738999288 6.803557921316129 7.147229357153822
As 1.0303050073187385 5.445503296291105 7.965251313524952
As 1.8462880768590486 2.167828095759395 7.116424656638005
As 3.9359006314429705 3.6728521333951822 10.26564957950977
