53
Energy = -236.53319988 eV
As 4.318749622298548 4.244847016790217 10.276934623910929
As 5.680922649171249 1.3532603243109949 7.677594008445246
As 2.3271474228712696 0.5718453174435755 9.350282321744242
As 3.6972384295512595 2.543884144109521 8.592208559338275
As 0.9173505219007565 4.733865202938209 8.320326048291506
As 6.636036904268988 4.2829827132430225 9.705092610599023
As 6.480078112804271 3.6277275315919923 6.938690058681399
As 6.482033023532202 6.730689678242899 10.259202980357939
As 8.996362521735758 3.1474500980809808 6.671437967074667
As 2.44694951083649 10.871127137638139 7.161218139108669
As 2.0382846749448214 7.860494787382138 7.679685237647619
As 8.454629724753335 7.940045564052806 9.339303752650299
As 5.014288961753983 10.782421901502653 4.362932782550281
As 3.9483285182785512 1.1005601348032537 5.814238847287533
As 6.67820867281147 1.201098879531769 4.095781666518226
As 3.244420997788094 5.625826756392892 8.090278329213039
As 1.4622841641120345 3.0461969727589384 6.550860001464455
As 0.5458475240428847 0.8765639617857471 7.646279561714347
As 0.11722480092654268 6.568064688050544 6.8101310159732575
As 9.353656927157179 7.099713556043766 5.435787631695145
As 9.095497611826893 1.673357115884845 4.6558815798234345
As 10.038686537500515 4.704403711732998 4.9725609301815785
As 6.348228056478073 7.8894382099321865 8.051547951057556
As 8.166511734480961 6.290005058219683 7.492583846934764
As 5.1941767002617905 3.527916215349614 4.651701368970018
As 1.527990990288587 0.4282861459120286 2.311439589314381
As 8.227883424190992 3.695296729400896 3.4654598961737264
As 3.211513143547901 7.938637785221246 5.410460920806777
As 1.950710347986332 2.5041966605502446 3.5973306709566213
As 7.315155174663749 6.995370116746661 4.013974766856791
As 4.752725440249123 9.971158221820572 5.662742868230261
As 11.277355389933657 3.4212145627942925 4.631989624979862
As 4.606047244680364 2.296044274191442 1.7244547017894511
As 8.735790894812196 2.6450177002235127 1.20185880056975
As 7.058628502964004 0.9233826190186972 1.7003812023287581
As 3.328418451900969 4.923911408135939 5.494683741977889
As 3.999715078910969 11.337372846946328 2.089796928546775
As 5.1093435973085715 2.719866051613417 10.743037179446771
As 4.517233561909393 8.621409561199263 2.9815875185153438
As 1.5180112725208246 9.363421265086773 4.157185878645455
As 6.156233952992622 5.518281190661694 0.9474678745135323
As 1.9344458112197338 2.5856205807043193 1.1546572047450945
As 1.00643031991904 5.6095974820743795 4.4618266921161815
As 8.452652127911074 8.122194746746471 2.078371955758389
As 0.7385713078875006 6.125987959793206 1.7847145370857014
As 6.684250838736543 9.434216111047771 3.9412753146931565
As 3.511221214747826 10.782421901502653 3.6096545861324207
As 7.346949771853091 3.877221568823276 10.921275566969008
As 3.213998098295167 5.6769901867646295 1.6021171157593994
As 1.2894538084005795 8.555948642673577 1.7731543890925183
As 4.262008606030873 5.101801428797245 10.79052805391039
As 7.164361092188771 7.620322703574882 0.20166011592259403
As 3.5507246841693108 8.034216919300894 0.7282380165748323
