55
Energy = -246.71935765 eV
As 6.617833246731144 11.116866068853705 12.976884758646097
As 6.8190325422912235 13.290655718099083 0.3467349600026386
As 1.4992780528680882 6.536031774350059 1.828980231314306
As 2.701818747150529 8.671607847965337 1.7121426512218942
As 8.796209996077781 12.362283835951025 1.6614399747994386
As 8.580706479887956 10.197119665903303 0.4177900128030605
As 6.564109536693999 5.0291204034004515 2.5497429540582144
As 4.363607700727182 2.1688964914111963 3.986213184264103
As 1.6188551545824976 9.621427798907613 3.6638410157980696
As 2.2085711677044535 4.987654423348062 3.5545344861472494
As 6.622170424242018 2.093289447863922 4.975818204031033
As 7.608283260822276 2.7190416163268876 2.804202807430391
As 7.736420080225668 6.129409539988437 4.447753057193765
As 4.957273432678842 11.7688012877086 0.7935049160414313
As 10.085278830011307 5.444710469289289 3.787935008054163
As 5.0970704751605895 8.331131840834692 2.278662391335955
As 5.12839304470212 7.585273424652429 4.631084974634712
As 1.285349636213826 6.307855592101863 5.4475650281697074
As 7.926976124702462 10.366720691028556 2.772974613360133
As 9.811922432316843 2.9904664624979707 3.963523705236975
As 6.75416097311202 4.446194387938377 6.071702696339771
As 2.8108966048140456 8.265632780051263 5.268868862144304
As 4.665508091398242 4.822288881491295 4.248128111398781
As 11.225198822827169 5.025306182577827 5.985190223876819
As 2.827728513754796 2.042072120550675 5.970665454559938
As 9.16018545315154 8.190012619751172 7.213799541095709
As 5.4973847973799765 10.709198644287351 2.9422177070530617
As 11.327010865009617 6.9945430988479504 7.513674973755225
As 9.19809597384808 3.6533442946308803 6.3699099829035735
As 7.777964359531535 11.18144701022823 7.156489020416211
As 4.629185578099633 2.593290838852896 7.630819330029737
As 9.695404038921819 10.223583510935292 5.879344597413264
As 7.967659339724983 5.861929659704395 9.312190394920655
As 3.0371381808920845 13.52794977305254 6.685862851666548
As 2.0882417369023756 5.189368332252334 7.578448038039281
As 6.24642247417702 9.174365665903261 7.400073821866168
As 9.767263003323503 2.1106505704444336 8.232052325301895
As 2.2987355346118643 9.207692589712146 7.542938683549468
As 5.488187243550072 0.25299922540507436 7.454448390052403
As 10.453556496324518 6.207520973548327 9.751349208489875
As 7.694928625075193 1.232229669333371 9.042366509005602
As 4.314341042678779 10.477743689599718 8.274761085340433
As 4.426499664903315 6.073229171329215 7.770337036846245
As 9.788849874736 10.313822791167903 8.347768832999765
As 2.5463921809709227 7.182240609696191 8.999626849999583
As 6.46909060763881 3.0402971709323867 10.106290105883247
As 10.447790350925569 3.716002516523027 10.14229683199711
As 4.7270521438929265 1.520479439388187 11.125953157155978
As 5.979509475875291 9.420407992120255 9.849151297063486
As 2.4407982333842098 13.83164814406875 9.103656203705935
As 8.318635016702785 4.364455857498288 11.255314780079742
As 4.840935257629876 13.290655718099083 9.729185669675552
As 4.766072768628017 5.294049497195899 10.082713008815071
As 3.0190495045008636 2.4011981601566674 9.50861816100001
As 6.3610454879342715 7.108224189085802 10.797989835046122
