54
Energy = -241.62694263 eV
As 4.576860094847671 6.159582960306106 13.016696687992727
As 6.891640918369168 6.978653591092751 12.940666019603574
As 3.574885557734184 2.0598781110251485 0.6736273315693784
As 5.463554378248819 0.9908851467825355 1.8956533659476367
As 4.955073431881566 8.418796224158807 13.546959054480169
As 1.5513595490756389 0.7700546449320057 1.5554398685877548
As 7.038003076941661 2.945370347265233 1.7330144164206558
As 2.638619366910112 7.246406021713621 1.006084227093763
As 7.664710037975001 6.315699663298184 0.28135548117725656
As 5.767329442319603 4.732754408437465 0.35965244529392626
As 5.920358588756173 8.018101647371092 0.9815406838251427
As 0.9353581961346568 6.7307340698564095 2.791564701700364
As 3.0474079309855573 9.441951748621292 2.2613395206849507
As 5.502723449772151 9.74580129943276 2.8281556350144936
As 4.174936329202487 1.6481628167138858 3.963050302844155
As 0.8284687590329188 2.983438489475001 2.54770697108034
As 2.1418262413032387 0.054375943356154206 3.866802140259605
As 9.196268252011665 6.7506963274300915 3.3352153493811736
As 2.6032614751034755 6.430630860573232 4.5908109530070185
As 4.646335584464461 6.216645775621086 2.084210858240554
As 1.6917732650882695 8.723631678564919 4.261129693023443
As 7.7884954715649375 3.333621769122012 4.12419156932027
As 7.199229328755839 5.786461063271117 4.476632295221961
As 3.292184448984579 3.5774122189458293 2.656741938217484
As 3.897855225253158 10.22131301990953 5.845063957997775
As 10.771661971219823 4.972519638717115 3.98381495602473
As 5.3797746614129505 8.406060454531541 4.926908943922269
As 11.36126884341436 5.291582495037949 6.1696578181200765
As 7.738057024383941 6.3538453237935215 6.880022458877606
As 5.073483826759287 4.020607529577214 6.664593808270949
As 6.114298701749996 2.1191092028119356 5.5451303408155805
As 0.8978768795474232 5.311190939237566 6.085798956808771
As 7.472561318040308 8.793951801898416 6.2945504693163725
As 9.619845424649341 8.597364633699428 4.929688667359953
As 3.624932216329058 10.018819797371084 8.119858035134191
As 0.5629551786864424 1.741422563413977 4.685117888409792
As 8.988583701137774 1.1281049275718162 9.827136199368407
As 3.8270996082504904 6.59852638656846 7.606540563376848
As 2.450233727832791 3.3397892091764807 5.850799126196314
As 8.761307720385135 3.3748384133475926 8.805835287976853
As 1.4351073237873269 6.42321702568329 8.263646698173583
As 5.246224925443317 8.2721173087067 8.806550186878223
As 6.7305318141954285 2.119879825130289 9.462438264464987
As 10.103277457029277 7.231707071097348 6.948877821137961
As 8.046468227961746 6.650360725524363 10.527255775448515
As 9.810012075140133 3.1228084711286104 11.040559920403979
As 3.405025851478345 2.8407037187080557 8.083800277447791
As 7.093021589092987 8.570709036093067 11.833376988904089
As 4.768359981233995 8.140277796340772 11.239315598617704
As 6.039560597770553 3.0147607345272363 11.673586656357575
As 3.131655934683104 4.982255977135767 9.360691169378835
As 5.878898857936606 5.707926464574053 11.37483845267578
As 8.069478582358801 3.4671831345364708 12.773454004877705
As 7.74228224685061 6.239664216261945 12.940666019603578
