54
Energy = -242.89184606 eV
As 5.78686346872401 9.949535662299416 1.3120709790381966
As 7.438670424196857 6.849862100953526 13.171812190354029
As 3.517447842611252 10.8704207183173 1.8429526996057337
As 7.4021941738444905 10.764665153094311 3.052176279376103
As 5.482242301852513 2.239631736851187 3.0248107518609766
As 6.834699365040488 4.48536750511193 0.1818110560445053
As 6.298320792676081 4.543150124209935 2.635313052262428
As 4.054740365339662 11.799101467869573 4.121898826566939
As 4.159783791939063 8.530015072601001 2.512142086221256
As 8.130372206318444 7.181539204017865 2.180006670184235
As 9.37349809304165 9.362134002615136 2.2438874833835847
As 1.8582978277033084 12.145373730826158 5.373404102698328
As 10.021267202544594 5.566573692886565 2.168794021483741
As 8.47422897371051 3.6188489901638556 1.8735964192238368
As 7.087637316036634 1.88670291095876 4.937836986350507
As 3.6782184940739038 2.8234910543408045 4.67004227746355
As 6.776165702695326 9.134265387662987 4.853227419316928
As 1.4736240020698186 9.731302488836375 5.838642425232865
As 4.343501053797557 9.430689549562306 4.857173212256984
As 7.9790393625963265 6.108600105233778 5.249929149483447
As 4.921748599900259 1.0414837743149719 5.949211146011054
As 9.641844035856352 8.658931124852272 4.639987228356058
As 3.129955068978735 11.020490121215946 7.18769951673033
As 10.263785147347342 5.185091115957134 4.641838703925027
As 9.375741155413019 2.9186752579106354 8.139750342971679
As 7.593847270628185 10.66164847142846 6.685017173151911
As 13.113403364590113 9.900429117221973 7.764138493102702
As 6.967577631180759 3.9896722731253593 6.2680726677803005
As 10.421105953372992 1.6145109253531047 9.884796736400272
As 1.5256334294833047 11.112721009525787 9.123975501760324
As 4.677956545782872 4.810837401986853 5.7608738029389945
As 9.995727602379484 10.781955726120268 5.851074570900408
As 2.9623608101655337 7.685573824068625 7.935742137441872
As 11.662150449072467 7.2733329593379885 4.930074818644773
As 7.513189812448482 1.2821374426050678 8.08603952308652
As 5.055701129574239 1.833392796945888 8.340696074058156
As 8.818617406735887 6.697665954506438 7.582801346082899
As 9.118280157702642 4.952143946183272 9.924166990695303
As 8.264123792537587 8.99239044682132 8.462069749072931
As 3.6354278699157843 3.8994046830456184 7.819027090824049
As 9.7331301208337 3.4085077589756465 11.927703184056346
As 0.6060545467355546 7.711312186068133 8.790957811513724
As 8.281581850456108 0.4353228882927025 10.351798333857714
As 2.395887771625739 8.913737021385213 10.038877483311463
As 10.70078741395004 9.654588757822442 7.996390458772359
As 11.290487397492123 7.281645500585814 7.388288746715861
As 3.724944518841356 5.817244005435046 9.480435555560625
As 6.750997592696357 4.231005623715478 10.130507294495114
As 6.059430605108323 6.580731480003465 9.036598854895358
As 8.993766227844445 7.1361063333697015 11.371945152229765
As 7.558274290494003 2.291728125325163 11.829874416116407
As 8.584532078635796 5.516768339718399 13.171812190354029
As 6.5268191949557925 7.475606662172892 11.29939544158878
As 6.239106468433071 5.197231531996149 12.381623446168181
