50
Energy = -222.78868432 eV
As 6.855707021157457 2.634194866843037 9.424476230714264
As 0.24334989026734255 3.131496622600609 9.921368747933819
As 3.140195825958167 1.754829940211629 9.640958314891888
As 5.390411881554872 0.6631245705121377 9.733054237107996
As 8.214873868753859 0.5759080695914286 1.4067854635027754
As 5.472425002686446 4.512434014580142 10.36531142525813
As 7.31818696499071 5.746334289756764 0.2466144657608703
As 1.7934886696058072 11.078382011432183 10.795901911229212
As 2.16814278886498 4.967613676155324 9.880785820368475
As 4.668274619832695 6.596379061364352 9.379927777065614
As 6.268104946265959 1.8470356913622779 0.60155633813917
As 0.806847656535681 1.916288692317102 0.9166012711106734
As 5.631149765127043 7.63920964491684 0.3067293811282336
As 6.611166800755954 10.364136176591764 2.8908283028620314
As 9.46201227196135 1.6029513431140168 1.673571784759137
As 3.3942158407637044 3.489970274480626 0.3581110116726659
As 10.109815178941055 4.799154759600836 0.16311951821250822
As 0.7674928233083035 6.5800370060845506 0.12942915621416834
As 3.3203194872441255 9.89404330138722 1.269519211598717
As 8.573994152357054 2.25731347737073 3.2091196454406523
As 4.015039283120392 6.560685369412883 1.8770884473129026
As 8.557914583391021 4.54437260141087 2.2266568351388094
As 1.270044706954085 9.392410912536741 2.5991975290844187
As 3.1212134056000513 8.28189504433713 3.227581888373473
As 0.625038877848613 5.045633562543633 2.0647991910590475
As 9.639196912560802 5.648854784931979 3.32396215256212
As 10.60796788710662 1.8539418041403926 6.715926765605733
As 4.38966637554427 0.44534447187728143 2.809323049528019
As 6.148096340833543 6.9444012511368625 3.693927317635422
As 9.654130709822702 4.5618627471436744E-4 3.6366589084980596
As 1.0104299135496193 0.46577719595928 3.7515881614259015
As 5.617945166074952 4.607651064743745 4.416626813425402
As 2.7425980622027484 6.285288580533375 4.613531771027108
As 9.939588996607105 3.1440675687588704 3.57681326255634
As 4.279077514861926 10.029280474318014 4.78785855922843
As 0.9091238954129076 3.743378090496096 5.642184138333174
As 1.797727031612931 9.679304707826937 5.082403249635525
As 8.573994152357054 1.7709557076996896 5.098792693079852
As 7.974213655163209 5.349338824584824 4.515909188629868
As 0.22014781985873932 10.901269183371802 7.527969646219622
As 3.4038119724928535 2.2252934629327505 6.2696473413743385
As 1.194736556415587 6.94765795024557 6.462444270343166
As 7.319600590572295 0.684662457491873 4.816861434691627
As 4.958567004269616 6.487023046051069 5.852412922317297
As 10.311233098578361 5.576654980144059 5.771608202103894
As 5.282267569358463 0.5408997646030687 6.388590535013556
As 0.4871114322245441 1.7400381049879776 9.027908330197256
As 3.0045382951824045 1.7395352190393054 8.677908158738024
As 3.8638518407132647 3.9754009571761912 7.993279631496122
As 1.4691885995279201 4.812229486035443 7.835007297144922
