55
Energy = -245.68015249 eV
As 8.72072887266801 9.690110493398087 1.4165821439961388
As 4.688961700817476 9.038139082531575 1.2008831686265227
As 6.91305703050328 7.876953318773922 1.4966006945451529
As 10.17596912748366 4.0869128657014615 3.1712935224026966
As 7.492459260740093 10.940759902204977 3.2041736100479867
As 5.792807905950696 9.013699644439761 3.433909686156932
As 8.89268174432494 6.319832467260322 3.3011350198445855
As 5.410439210122896 5.747830478302957 2.7125034995665644
As 3.729696324488494 6.673927646480479 1.1606260216559088
As 7.733424780285011 3.4366336828502315 3.1664264145670473
As 1.6698143704782638 6.6349134379919885 2.5295152770628198
As 10.246784576061172 8.486752298519688 3.0740647510866457
As 8.74216673585138 9.505095774376553 4.831940535077814
As 7.177869161636591 0.9867816566389574 3.77224365865283
As 11.319986616405016 3.7347178749124343 5.370474327435447
As 2.9320407681030525 9.251101517395494 7.717161379277555
As 8.222535428150996 6.423525257108418 5.688840150848666
As 4.252193161894227 3.628226180508991 3.461417525473681
As 4.7953407488886315 6.5274384792916145 4.940090209483163
As 2.291678343961999 6.588574904266221 4.952662972997805
As 10.562641556080358 1.818900342162451 6.832638424313461
As 1.834555076757372 4.476036210201894 3.75691239562925
As 4.7404405079741005 0.9715934784516193 3.3711659503944444
As 7.560134819409964 3.9802827960932334 5.559604725273655
As 11.887395807764104 8.345575803337844 7.377199736599208
As 10.687788600600262 6.079187423401699 6.155942087527357
As 9.678904227868786 11.480651535864512 6.066308755581818
As 2.4912816313772947 5.504118620504149 8.040364412573549
As 10.571287320761126 10.301568800482178 8.100495614920264
As 8.37216204038107 2.36444516537066 7.946457439348511
As 5.550554597668715 1.1554537140128172 5.631875002828564
As 6.058283866756132 2.9397421067674827 10.155916186037478
As 5.30527309494364 8.765971915337197 7.853415386189466
As 8.448178666731554 9.050947214056118 8.131093345110019
As 2.666573834662623 11.24104144053495 9.165854089351786
As 10.473821748722088 3.2242145075819235 8.88642871853236
As 5.071890307960221 3.892666973766573 5.819690617028275
As 7.276689814873553 10.998571354871533 6.9847699503676415
As 11.164363355713803 6.301486205184645 8.616689477578896
As 4.339054862861318 13.103994123740456 8.861841024971103
As 2.3683979990796757 7.406631343767968 9.492561503684056
As 3.573450083015477 10.43514625380119 11.323827377895462
As 5.616597475120521 9.429943755513605 10.285510556164063
As 8.027316303986469 2.751964597115498 11.586653866050284
As 6.817571071533488 12.76548075154185 8.706202739095803
As 9.401822672225341 1.3134282386559015 10.029890700092238
As 5.030256636970386 4.819925889475585 11.119269359891838
As 4.54448340787003 6.30231010555722 8.981555165343321
As 8.741929876474078 6.23486472070766 9.431722348444902
As 9.003873997454367 8.439093937097484 10.569126095705965
As 4.787456726386691 12.668665524713962 11.346031462401893
As 6.871734781213825 5.821883489499897 12.516475634524127
As 9.06108183226484 5.048899261569537 11.618882838257914
As 7.006697298918818 8.271751124411733 12.04149915587776
As 6.975196397165332 11.471412480257346 10.803361455971292
