50
Energy = -224.47909547 eV
As 9.821124454458774 1.5543444190677609 5.4431276631414205
As 6.8737489861990735 11.225582829676222 6.049854188696031
As 9.420182141992592 2.067916206111481 3.0033614832273257
As 7.165234559883084 11.350047128072367 3.533991549992689
As 4.875140126208894 11.156704283636625 2.57948116327987
As 10.07356705991408 3.8811282611344873 4.571468163490816
As 4.439403911768825 11.685640612577288 6.233180220265476
As 5.810026959114582 0.9490942122403987 0.9948248357759673
As 8.811335265077595 4.33848662361205 7.893671264914262
As 7.263527462202504 2.383755571930014 8.512204284540763
As 6.91712247408349 1.8800239546952469 3.1405105140266687
As 7.970117060978094 5.858072736065882 1.6949106573745305
As 7.387359989680108 1.7407257872692052 6.081437629392601
As 4.876522587974344 0.4471340321467519 8.436071811048343
As 7.962766999086529 4.820912600001635 5.549753417349703
As 3.883735185013566 1.1650039212659118 3.8859240884748503
As 1.6003548874690043 0.24050418766783208 3.3859086695561946
As 1.9564414836010908 1.0554990910656066 1.0199696512665775
As 3.9189417277820784 2.4731562655573445 1.6313922867576294
As 8.856413466299307 7.80111431647131 3.0059010977737803
As 9.116134845647096 7.098863337538142 5.44022938183521
As 2.4950247342202045 2.847231556158113 6.51713633475593
As 5.012156940210212 5.365396936912429 0.8918373876934432
As 7.617551010284486 6.249741745391788 8.986376697072897
As 5.222403250502999 3.7721695474122225 7.937502073130839
As 0.41994668571592114 2.2574027139935673 2.5604343503201727
As 3.332777880146345 2.3460945093770946 8.826797103293869
As 6.01189812715818 5.47492043229854 3.219095227874833
As 1.7204652272909349 4.190477396449386 3.516514203788714
As 6.430519596066137 7.342432201422387 0.24734382646239952
As 5.47030120122403 5.315286493302037 9.921440684367036
As 7.2351292108446135 8.666568128493624 5.953934610051002
As 6.028217966354033 6.824186156464643 7.140126947137446
As 0.1988273133495395 2.882804679706585 6.8670732689586975
As 2.8518375026103255 6.553996459916831 0.5294329839647756
As 4.771693439287698 7.642773402945026 9.112401382040156
As 0.8630868602889253 5.730500607747159 1.7275983753387698
As 2.7181421647800366 6.437418304562643 6.055669794497224
As 6.490265662266442 8.011399456749526 3.6047939512077587
As 1.8030496220794097 5.452185479104595 8.140497090159128
As 3.31947380925516 8.208649669376747 2.531465811273878
As 11.580911067994306 4.342975792619418 4.954471082782809
As 5.5080829923276005 9.192010996128019 1.6759435816918833
As 2.491455621837779 7.88391751391388 8.085725395485202
As 3.1114952669508544 10.302567275802774 4.351103834024571
As 0.2888057138268132 6.375415955443372 6.36598863508935
As 0.1504002328972484 7.934312714466811 2.837165010274621
As 1.4792779079871974 9.28103818839703 1.2755889320821705
As 1.2360015660070307 11.156704283636627 3.0704654043448723
As 0.9107583151531318 9.480676513513055 4.869417600167957
