55
Energy = -245.95813997 eV
As 5.022548498047268 6.080802139085123 0.018353644307419224
As 7.973613579492484 7.687963150619025 1.8478684798703437
As 3.458828757989097 7.92782574631399 0.8083727514277865
As 7.093168675992669 5.425347134699981 1.2634763686919954
As 1.6953146959999301 6.159476724019015 0.44647253221961103
As 6.043109629159281 9.230206969910537 2.3508253879954966
As 3.4697703088215524 4.414826958372495 0.9707250424575516
As 6.620814917048351 3.2554417845003125 2.605107510785795
As 9.112814203156468 7.781587154245725 4.069961079516604
As 4.5781992400935145 1.9808174572593353 3.4474775178083443
As 12.086725652031289 5.035958872949096 3.686723734988166
As 8.144526586813342 8.90433894518074 7.36178770338589
As 6.961912632973865 10.412966339368639 4.370816565069443
As 11.493269249630028 7.458217538584051 3.4007611821719936
As 3.7416583966201697 5.349399696895381 3.308571848470006
As 9.746857841393808 4.13958648093417 3.757796615589933
As 2.4648790750844585 3.276660726492362 3.770105860769213
As 2.0780988311999713 7.112264824462227 2.708636881732641
As 5.480793521151232 8.460910633430515 4.632357049346444
As 6.120393697937667 3.140999808225079 5.038428254415138
As 2.026399704267982 3.0351785252521695 6.226372851427423
As 8.298316143047916 5.682726849905995 5.046383444658615
As 5.321270713475614 10.158244715281985 7.424513113011521
As 4.596508371704131 10.749499286105044 5.0287647260683634
As 9.870244426317715 1.880281089598002 4.821591894887657
As 12.450917059171449 8.081926816738797 5.653082204020692
As 7.518147124098808 1.0816549255926735 5.239828129237458
As 14.984135829072564 8.171911332353993 8.283830010555032
As 7.521867421341052 11.306219701849452 7.754827186528423
As 7.341768546094879 8.337465444137413 9.655623473629406
As 2.8298684991544696 6.818426658674044 6.26948115107042
As 13.210589715540637 5.714374445018241 5.845103173150761
As 4.0283855434783575 3.3855273882120867 7.638343555280983
As 0.9357285884620993 5.229940521166936 6.393734806037012
As 9.425609394778709 5.744029812112393 7.253415155652408
As 7.881982228086458 0.7690011767447256 7.71009736708849
As 4.883605372801293 5.673613194787303 7.170497401337393
As 10.548842683136716 7.927249759630198 7.39578169489571
As 10.151156126854849 1.851392156672117 7.309160559520822
As 13.576506985102895 6.152148120320438 8.22315889228551
As 7.007628295402468 10.957622949354713 10.155313992390308
As 13.210589715540635 7.616965633674291 9.915437789273158
As 2.7014982572430815 7.9842896641037955 8.499565441736559
As 11.531270494801808 4.4340559296155755 7.151200833441096
As 0.6829397055799682 7.172547911767681 9.657551136667264
As 2.800861606789983 4.218635228173385 9.67273441730526
As 4.804439773945864 11.566704391789914 9.398096628814328
As 8.253031763189309 3.2040372493981235 8.160132347443142
As 9.31316100055585 7.513084348900058 11.019964616731748
As 4.226500447508931 6.318769471832298 9.55736636840075
As 11.450985346178875 7.368633232643448 9.663063443703397
As 0.5496880626968756 4.874293741530869 8.795673866230649
As 8.017067214195908 5.524106075929784 10.592617354218508
As 11.80639958395113 4.888299751865232 9.570929149716402
As 9.607212682389006 3.6740912421186183 10.28468364096419
