51
Energy = -227.67331489 eV
As 8.892583114413869 0.537643955901986 4.570628754751094
As 8.763876316293858 3.469826521408451 2.9413563129934435
As 8.331824811223232 10.902415453494905 6.845421690532785
As 10.34755705262095 2.2094123878196683 5.799874204792599
As 6.23421086319178 1.3180699456633815 1.997406776377206
As 4.019324206366323 0.26091302595587723 2.4621019491255125
As 4.391541942365639 10.47998035040929 4.695456853816939
As 5.869142432880033 3.4156577257969487 0.6367521498104889
As 9.650942276680711 4.562507945068746 5.011716185634083
As 5.807728736284051 10.855343235587643 7.152860438633612
As 9.350888821291333 1.5948646538946722 8.067238863660185
As 7.064420938249398 2.179567397903365 4.214005708981831
As 6.07314883613447 0.7238203172691505 9.435136732649626
As 6.839852135843843 4.979524537806085 2.411043032081286
As 1.5439372260878488 4.065994688581596 1.4328127559847073
As 5.935222265498604 2.154741777654566 7.35891810242926
As 7.894579729268443 3.64582450870359 7.947292932815948
As 3.77587005331431 2.647960500438354 5.288165910357287
As 2.0728438006500314 11.090209250797686 5.187664960873249
As 2.268081631457329 1.7142817142651936 3.512467828948199
As 2.5835358430934265 5.330948346317345 10.806150039666635
As 8.533284450961904 6.740342418455828 1.7772398692031157
As 5.6253568513316425 7.418431911616846 0.07919081545435176
As 3.9493493379639037 4.8151696327155955 1.5430220234009662
As 4.3971373614486335 2.5395136620746355 9.307285760516178
As 2.5445985605284323 1.5121987274163498 7.158766839492684
As 1.5467878798095394 6.294031081961175 2.7691322917486714
As 6.474814159797012 4.112579119131405 9.914078318109077
As 7.948808566536298 7.129975671200474 7.478020023963288
As 7.117277986437594 8.796415668805237 1.3197355198656275
As 5.65228395086727 8.360792213173555 3.4456523373010923
As 3.6695732788327637 8.845308370982227 0.31018286568924136
As 2.812716425800895 8.263973610572494 4.847960055807157
As 1.5939674182340227 7.403130018639085 0.5060020217185424
As 6.233927752213517 6.533984695504935 9.243051493094045
As 0.4497201653185453 4.095565289963278 5.3209801362428095
As 7.391433747184013 5.636170752470426 5.471467023510452
As 8.192231945984226 7.584575973172324 4.06623889515227
As 2.699927982532413 4.716829472074707 7.927079899025294
As 4.338096484114446 10.247166138184966 2.1937087918555855
As 2.810484817680927 4.926201033130146 5.432994810119141
As 0.7008431407873711 3.1693905911787605 7.6408296750006715
As 10.535817445219216 6.908934305479724 3.3693103685301997
As 6.127353513961889 8.885375306259808 7.347373298170961
As 3.5766953088854185 10.47998035040929 5.768671561728011
As 2.3048780251517758 10.37060295414987 3.6336346730065605
As 6.0088527728967325 10.131867843364084 5.173322030362866
As 4.665824837466503 6.83351722807534 7.283764319327371
As 10.628201278060944 6.321557895693897 5.750798405570339
As 2.352790387643255 7.178667328063513 8.346568852071963
As 0.9497118434169923 8.140002036738657 6.502763601059508
