53
Energy = -237.84147559 eV
As 5.848183592036126 3.4281498299873077 0.24068769837442203
As 5.626680127264494 1.2531719282853382 1.5346466231103024
As 10.503829941640795 4.849374587910323 1.888735524105042
As 3.1160012034319897 1.635231546597803 1.5991551930971977
As 2.9350873747579587 2.5221907111599178 3.9165494137328434
As 11.255636026006975 6.94727316471157 0.8246499003125951
As 6.8136451705065415 11.511214909781923 5.080578439333051
As 3.376720060531601 3.926802745973526 0.5726717154376582
As 9.179668470044522 5.858990104575232 0.02915297810466409
As 8.454494431800807 1.5850272475642293 4.320691753131868
As 6.5025331602683885 4.920160873758863 2.14232160500191
As 0.417895061484826 2.5589680679517395 4.1186427267637065
As 1.4384746634909165 6.599047808629477 2.9762953119017137
As 10.635537789981417 6.9370335133532635 3.247335393642741
As 3.084173002073006 0.2987355475045493 5.087524120245528
As 1.3430187906936495 7.527549000634538 0.5917408449971283
As 6.0851883053486695 0.4310619917323932 7.397002133103997
As 6.016138716324701 1.94787009908813 3.9189298645268678
As 8.718409142598443 3.3124945279541063 6.114541180589912
As 3.801630045180155 7.076913185894873 0.5614344201071048
As 8.23267218898004 7.585579110125244 3.262086656910497
As 0.639886001529758 0.5289593364807333 5.582265457794801
As 6.643776430302092 4.524174311423101 5.469173303819656
As 3.9808095857524353 1.7759786929609391 6.896356667105564
As 7.249018311005287 6.987285797942927 5.565776064623286
As 3.9782084854036643 5.420897448334683 2.540458407079072
As 2.758531979284167 0.7924808517695834 8.873831488465841
As 9.353487506943328 7.658521353159862 6.539975128407098
As 8.102856728502502 1.7842863231039923 7.988321911910165
As 7.22478838916351 7.037010679538906 1.0177395462785797
As 8.018141017572212 10.029443388242425 3.746000881620926
As 2.1712641747793366 8.723153281421489 4.002330225109106
As 2.902231056606011 9.20028540818716 1.4284855138685022
As 2.4741092939966656 5.129461281146 6.392639496229174
As 0.1678416687041891 4.221990604625205 5.9489145835726
As 5.15759595870997 3.2506456721555974 9.288860764711316
As 4.552230995886932 8.22304320161018 4.755582317901018
As 7.882096949525995 5.393982475763728 8.72261285075673
As 11.255636026006973 6.3494536033930755 4.743286091359469
As 0.4071328023680497 0.9069700439504043 8.034582943638053
As 5.620485022944427 5.118156039232053 7.661861463551209
As 8.655825421590436 9.962945997129598 6.205244978417078
As 5.529013961629492 10.183421423515359 3.543647396083177
As 7.533721175537536 3.2211677670111203 10.00739087285575
As 1.2819963517261561 2.6884514201982483 9.558135486056367
As 4.6432491180710755 10.481219606828075 5.840811708473934
As 1.280281908878907 7.363481616446915 6.22570481329514
As 1.909892225801111 4.997415795716699 8.870247792856714
As 7.199472903369675 7.378304881970101 10.114191600387135
As 3.8799713803843487 5.054196105994247 10.44985651324392
As 6.4812558309686175 10.400277261302708 7.496451027253125
As 5.9105445552898646 8.001366688659138 8.068870841806934
As 4.726641624645323 7.414097771570293 10.282202966470038
