50
Energy = -224.24498364 eV
As 8.569995437660396 7.244932086147847 4.119151731988849
As 10.948020588259872 4.954284019490983 4.927541013270676
As 12.041593815765825 7.0441570262215585 4.134492401731639
As 9.578496137832131 10.426022277692502 4.230335571624095
As 0.5431016141346788 10.70186442102097 5.381140011460337
As 4.358484731792039 7.02286591601229 6.256903982178265
As 7.4214512763981295 4.0392452908667 5.055813982742137
As 7.201161229550178 11.065860207185796 4.6161373105616645
As 8.83131447686216 5.692941012973842 5.826142412433147
As 6.960888079303082 8.652473381731376 5.185026059692412
As 1.5645208652761367 5.662682529276573 4.7859282420866025
As 0.2464975479290108 4.3416921103230575 6.277962909778823
As 11.15147916914475 12.161258547986911 4.998675562134151
As 6.681885218772107 11.894186735879344 6.682736963357844
As 3.7440924563062197 5.946235833381736 8.443033125129915
As 12.407620202483605 8.350404352798131 6.01865384090411
As 2.2908784555863986 7.749671666525962 5.707629568122427
As 5.876151594027653 6.41737942117248 7.868499196169626
As 8.682247231717325 2.620526836906894 6.656306936261742
As 8.662410864301465 12.353216713163635 8.163848992067102
As 3.886771865682911 9.345795640959878 7.167263744838431
As 5.798594969181934 4.322386559022787 6.987023827628198
As 10.21875563088067 10.380172819242416 8.262617107728383
As 0.19207257628637878 5.985483571318228 8.172382152488224
As 2.6139995938885807 6.519790978904946 7.834226964885703
As 12.202126066908782 8.048096658828015 10.745355552636186
As 5.436389236984878 4.994693937652073 0.49006189926359034
As 5.946066447974817 9.824721277363333 7.932468908793414
As 2.8897494794701166 8.166942040312394 9.169681309000714
As 11.785678217052748 11.98193207489013 7.118791556120548
As 2.8897494794701166 8.156619813477691 9.672350487501317
As 11.39309720750691 11.243045278970552 10.326302824428696
As 9.399437051183174 8.679916947306625 5.7447614397573075
As 5.416665301589066 11.633866866470433 9.537733652485043
As 7.498744280242008 12.001457050599507 10.373334868045795
As 1.1338076113146547 9.933971035926826 10.452354883156932
As 3.779750428821632 8.483117694062948 11.48769667560822
As 7.386421773878091 9.477836002574836 10.631382395617052
As 7.480429504872949 3.364101042350771 8.492425682203825
As 5.798594969181934 7.014480990874287 11.606450615035493
As 8.612384218460287 6.4519854339126645 11.551333361059967
As 1.73389339014779 6.681424270756302 11.35133873858103
As 1.143332592100927 4.579988344768618 10.061371793072041
As 7.566820611245904 5.436444728043091 1.1030264444923445
As 5.495928149599451 10.316458223825434 11.657584474122132
As 10.982877400343243 9.678201575979351 12.25649676250457
As 11.210638369322854 4.456315572256936 10.292745250667258
As 5.807338463783608 7.12808438709771 1.551504774861618
As 8.69556622451157 8.74255790000836 0.10762170980616143
As 10.925823321509247 5.779349598671639 12.168119098619778
