50
Energy = -224.59206227 eV
As 3.8182918148982865 1.6904962149958451 2.5129452003647623
As 4.016919226672481 2.329439403046578 0.0823739228211895
As 6.30584713581176 3.3088071974546747 0.3965259155757565
As 3.451053604704033 0.6448559616318468 6.716591390792797
As 0.23394836093389101 3.664604714161268 0.49805696762589
As 5.378231944474596 0.02859327101008892 5.1847105704266045
As 1.424249895147098 1.6947827951836811 3.249974147692497
As 1.3498006244753895 5.444482855341079 10.638035382853737
As 7.336042858815621 1.8395396300237017 2.1640384556728516
As 8.88069713305035 1.1360146144749717 5.051762335964941
As 3.7726973957010412 4.735851482439261 10.853513137410149
As 5.1248707018427275 5.337480042261592 1.4307077874083154
As 4.37205456328941 3.629710730505107 3.9852433018249833
As 9.024210180230693 3.6971595224879406 2.3675297616117756
As 1.397893376556687 4.105407591395842 2.622027811211638
As 5.3598562913215595 1.7995163027400878 7.868219324874275
As 10.695828595168702 7.126542170784802 2.0644343099770897
As 6.124197271342628 7.141188537874277 11.408762938713762
As 6.142261612059306 10.896619905854745 7.555872541407786
As 2.510854544997541 2.556355663078729 5.36017900669234
As 10.373792424786135 2.9155385338409343 4.360604689641351
As 10.444771285344483 4.669129938089572 2.381389963630839
As 6.548692543559434 2.316293412482786 4.54760225190458
As 1.073432035011672 7.585272294398517 0.4274995480096799
As 9.558535810591636 1.5155082457809996 7.354781960605281
As 7.599911491176903 4.822674584361567 4.054685770337441
As 6.521862546891679 9.234991698265413 1.213006032391228
As 2.9881847530127916 7.589498115498571 2.007639345355706
As 8.287874185626041 0.05957192626078262 8.596910274441328
As 4.285380404207886 8.829866116833752 0.17849565334889855
As 2.1565701868173686 6.43863046895732 5.0102029289207985
As 3.9055964508917196 4.68506479904152 7.633704584895338
As 0.16766863403517562 7.878719646472531 4.276228742225555
As 1.369971433925665 2.1592928914082314 8.745171758503217
As 0.6255378890413537 3.5083691902327794 6.926855299374576
As 7.021762606211021 8.066015695852856 5.148079173908723
As 8.39441347594076 4.499705999408954 9.496813804783724
As 1.9609876680638598 9.415939140283907 3.410474169662891
As 4.882009233838415 2.2738910637412033 10.286884640137293
As 9.483211743041439 4.9627370801795925 5.622758722902947
As 7.65055932075467 4.081595233123966 7.150421058576819
As 5.423463153634463 8.809971730217606 3.403890773384012
As 6.356186775120601 10.453090541062204 5.0237505686149175
As 2.754480082054425 8.761521363341075 5.710601011655977
As 1.638788236290739 5.751333085558424 7.377279236453476
As 6.168272043761353 4.406828021583527 10.638035382853735
As 2.94374500234783 3.7603472606644153 9.762710379700057
As 5.157646774262176 8.92993674667808 6.566199643536283
As 7.4669406136649465 6.396248483044666 8.109394474326317
As 5.183785522338514 6.204051897852706 9.147853757359464
