5
Energy = -17.87751761 eV
As 8.032370170520407 5.602605821881195 7.913669317555133
As 5.85107681075835 5.015020503392279 7.933687195458753
As 6.461713183825835 7.01857685404222 6.507450311015525
As 6.338008342654811 9.244399355485198 7.196726093819643
As 7.154054075595015 6.958691990322183 4.280656891055924
