53
Energy = -237.77274241 eV
As 9.87679443017 3.6377281691017407 2.603287056934784
As 8.580728156400271 6.82484993648324 4.122001829691617
As 10.447088462712328 3.583238407881394 5.113071817300653
As 9.309466805287212 1.182004893746081 3.161655904730424
As 9.893090149217471 4.940172794509143 7.080448450713795
As 9.578858599018712 7.219269527297417 6.417486695565065
As 7.767639283776419 6.313221400980605 0.6322323351066818
As 8.880099232584547 1.7681468149467072 5.51350161395341
As 6.778757862797955 5.075372930192608 4.194074837097545
As 7.514432561318432 4.186242884571842 2.012270580547093
As 7.490450537823064 8.86998943802556 3.431355719945956
As 5.712344599772628 12.305494448319015 5.8678041903125076
As 5.708504092221425 11.429182074667882 2.3631210667240854
As 5.713953048846898 2.042089314040943 8.95813793732707
As 6.871817593716558 1.1996553639045622 2.4960204687860794
As 6.437699616677686 3.5117885979660217 7.136734208497767
As 8.040274089771454 7.397079455523834 8.419827433380581
As 7.345379464476536 5.045129054331064 8.939369315720507
As 6.146573141272689 3.06849570094724 11.870316409491375
As 4.056634117927341 12.339464253804744 4.010331834232882
As 5.637924092496671 9.06721685675778 5.335270085835195
As 6.068735647503267 7.832675769832213 1.6736770505031713
As 4.141838145334608 0.5510777365175796 7.708712863362989
As 6.343967681228624 5.500719140204487 11.180508773130791
As 5.535344967849439 1.8566191890916857 4.498587006541581
As 4.889557677812107 6.070021929545329 2.9592167603868633
As 6.192271696745379 8.92629502256088 7.843728694400281
As 3.9385212841040182 3.903535849298128 9.086174167270238
As 2.6985947904579257 1.1671078545299558 1.0547450483581322
As 2.7588011238041914 11.847367170308079 11.851950042511502
As 4.6154542043240445 7.000281228776314 7.8617411057415225
As 4.883837225614474 0.2557965910956008 0.3288130248027226
As 3.63329497514683 10.692321686357111 5.427380210171803
As 5.160298558941584 5.899335502644007 10.011871524115987
As 3.880650402686443 4.324170722167498 6.603062098445266
As 2.651230821712733 2.154178768253907 6.429914731472443
As 4.295441689830036 4.592193701475731 12.283061291133272
As 3.890718246072118 7.348801931297945 4.799105454623813
As 2.8768792189856214 9.24940030476936 3.496411888195
As 0.8196880133431212 2.358234909531301 8.158144927913268
As 4.245758271188699 3.1383491219932074 10.244323615946712
As 0.05374465736714532 3.304971004805073 4.652573412544022
As 2.3505510279998543 1.7167531056439533 11.157995948471541
As 1.4207778214626037 4.336288639590833 9.57657592537947
As 0.4490667797933125 6.61349815488524 4.658290638987633
As 2.3607021637802337 7.817132843478391 8.502005614448287
As 1.5172358857651052 5.613019913069702 7.5112598545868305
As 1.803244870451292 9.7080336996959 6.878027324471143
As 11.839777508781301 3.866391089051285 6.793996616615367
As 0.6798475521847582 9.112782543437213 4.6981462992620555
As 11.662065537361045 6.569316823401546 2.5148933549711954
As 10.673702428491566 4.4904090669394305 3.4868277880852374
As 10.447088462712328 6.67912934481681 4.64246374132058
