54
Energy = -241.09887551 eV
As 6.256004312662508 7.235028673827784 2.4915313922024187
As 6.345843257980361 9.742009616910972 2.469694590588987
As 9.344210630058756 11.64741906813304 4.020433472953668
As 4.172884448991609 10.37462980008638 3.548862384973014
As 8.045508579316712 4.821537915641178 4.282293112408895
As 10.49952016155474 5.5229001228179095 4.861529822245238
As 10.054122313764175 1.914969250053791 6.241841858500902
As 4.452209688595808 6.6042145513871375 4.132941306141979
As 7.963916998262661 2.4194313966212793 5.150487057134012
As 9.516723338735938 9.345867398443685 4.887183448983253
As 7.22237147081103 8.520228600738795 4.392268804144661
As 5.286974823623647 12.402431344216668 4.502306397260834
As 7.4951330238898395 11.733502292926568 5.572891116475032
As 11.002981019067011 7.742466945495645 3.6701179165779405
As 4.419118539795812 8.773903228124894 5.461782175027969
As 12.881125371035784 8.946344015358651 4.883918807209351
As 4.88115124401691 10.73379151328071 7.726821719251421
As 9.678460879871233 3.6661513421744174 7.778126451076216
As 6.411507353637727 2.2465428747774387 7.138340925970296
As 6.238041112505328 5.8153557449634645 5.795328676158026
As 13.901885677700761 9.706950735192107 8.08356471544851
As 7.519155016362904 13.416912698078297 7.48795277750557
As 4.913390419774337 3.669282620952991 5.7553107171464415
As 11.715160750194887 9.091977785540085 7.05560719575747
As 3.7569102226026696 12.520348409872485 6.420651115557428
As 10.167580736949718 6.112500312219704 7.265971835707694
As 2.0883724944701587 8.65848492556609 6.5121583812876995
As 13.669554253784295 7.547799857409418 6.846532010689469
As 3.2871807524200003 6.695038107080687 7.543748531962418
As 7.277000765719534 4.1809930498796275 8.46890877198774
As 2.773447582878962 9.83582165126083 8.694877506717125
As 12.334467015393255 5.460548947100738 8.433562459627273
As 8.663876341418282 11.191565155495006 7.77642606575419
As 3.1000134039125307 4.197092242674924 7.38732863449817
As 11.172885949707409 3.5488879171775713 9.735706920048958
As 5.185244562724932 13.151101189327012 8.380297637968157
As 7.344285538418876 9.867142494880925 9.416359615537793
As 7.606116115507793 3.868307146946834 11.026098372755456
As 9.378086170149675 8.425016108445591 9.47512165773992
As 3.7650100076228585 8.228295462849054 10.425408905062866
As 13.084751193804426 9.192889893045507 10.443704569065925
As 5.6475289678666 6.804524525536751 9.404473942900696
As 10.873465360785659 10.374298449027794 10.052212414702105
As 9.596716588936332 5.288416413184361 10.453962066054459
As 2.228084930329788 6.357333656568144 9.742440233954857
As 12.853291807557358 6.728793901995136 10.561765535250053
As 4.141837756414504 4.6860022791483 9.632924317188959
As 7.546464595798299 11.069890093826839 11.679539821921066
As 6.334977025305356 9.587625051158286 13.140968306260456
As 6.129556044306453 5.812868970921261 11.69103143834229
As 9.365447498059092 8.159190072413377 11.968630273809474
As 11.011291073887598 6.31046026272892 12.27066210031135
As 9.875144373478584 10.534111531032503 12.383365805876334
As 7.400938199617461 7.387730147520484 13.250951672355914
