5
Energy = -19.42011995 eV
As 7.846367199092043 5.923855532319137 7.247911289704438
As 4.911590052842995 7.275177632551005 4.184530448100502
As 3.5760843617201066 6.494912590505196 6.03477084023753
As 5.886803821760689 5.928610647184363 5.892250559188562
As 7.175847240739668 3.9337863528176524 6.064245549409138
