5
Energy = -20.69734342 eV
As 7.729714711016028 5.512066187899894 5.8894946518647835
As 5.7863778630443825 5.692701409079966 7.1228784432263454
As 8.613979603068403 7.656646638572353 6.229714742665234
As 5.759701809376334 7.733623264586472 8.376486254136667
As 7.6696790751656545 8.954496480644424 7.9459220393942065
