55
Energy = -245.75086442 eV
As 7.214037467134313 5.883864084587701 0.8510586379257173
As 7.933440362373367 8.280912217950798 0.49990892653459834
As 2.780409931080899 6.7469189830423915 1.5619151962862017
As 4.949762321318451 5.2756315203135475 1.8492799429734312
As 9.668557973022006 3.801060512094243 3.1457531023367427
As 4.177568891231801 8.53588425756425 2.5533675790281167
As 6.921659616460143 9.922362182883234 2.104605616954833
As 9.978909896363486 7.518637064958302 1.6852254477750597
As 8.472744155460031 6.04533270664524 3.0531612798527212
As 11.77026450995318 3.8561451420746775 4.545413522851827
As 6.122693529856826 2.9201240226479865 3.5202755488300435
As 3.1712093608929885 10.024467988887153 4.318593807499273
As 2.502614974252746 6.242874872900038 4.02901804871089
As 4.990203238808228 6.57587693153972 3.9821843362948703
As 9.05563961460595 11.253887720425306 2.399808329389598
As 8.124937603363477 3.0724740893712137 4.954861003896371
As 10.678918696002707 9.506230703579325 3.0188044154878977
As 5.516221504971745 10.784886516785496 4.7998729039486925
As 1.6836666455895997 8.886643185958278 6.079050966437067
As 2.280441833465639 3.815488994071406 4.7489022902338
As 5.320514656740042 5.357872716130126 6.8216420185012545
As 4.662809412560528 3.3789611341545185 5.374810894229759
As 11.914304340099381 5.089134157189504 6.686007920933489
As 7.75337948991797 5.426415192725389 5.806960197864459
As 9.10396008349466 10.339911900729835 4.761979975559273
As 7.109906894293683 8.868781525049021 4.389602711062855
As 8.042995132297678 0.6260538768990636 6.9757066582067555
As 9.48283080793602 2.5398960704465448 7.775886821325648
As 2.8261099935811047 6.910555162916298 7.108439283476961
As 9.782472602736473 6.3831617344525595 6.884446638970292
As 11.753040766098104 2.581037507286801 6.7193677676277295
As 4.817094976073366 11.092145803474306 7.557015946474924
As 7.700618644955175 9.508064752348858 7.745539278703967
As 4.167163203599704 1.8333600152643388 7.332400545702644
As 1.6378298687229833 4.636400686260498 7.035333218362421
As 7.448098161415177 0.3537582444680441 9.3966823309549
As 6.549645351043666 2.306262744393018 8.024609688279476
As 7.057892945318518 6.166679109141051 9.484353997254964
As 1.3888763447506307 9.90839989638235 8.43543332365068
As 3.602663205141217 3.979227633467006 8.448955917746128
As 6.968730465978761 11.663216619641986 8.738581343533596
As 5.301378196194992 8.631860379791526 7.728001448271862
As 9.532333275463177 6.442968233013578 9.379651925327414
As 9.65677993765652 1.3374806609737633 10.01721139694449
As 3.1027094172989975 11.477122584131319 9.363570243510752
As 2.0555869002252494 7.6904767127073965 9.392452812871019
As 9.319237233042774 8.995152182962705 9.515182570668532
As 6.919144900293695 3.937458675741986 10.702662207699273
As 8.114202692229677 4.887278454442599 12.698260563398488
As 6.466145128869064 11.032635200625535 11.127498552783651
As 9.335098023865982 3.8356548333276623 10.667357066517212
As 6.8849717711836025 6.963111889770354 11.81731102293244
As 4.452905297100923 8.027666224900276 9.990422007646481
As 4.114379273694214 10.126465413247175 11.190436807038736
As 8.129217721903569 9.184597615247904 11.674093234703937
