55
Energy = -246.46744105 eV
As 12.606233089136257 6.841645129973496 2.6227941487103617
As 10.171017663972824 7.138679785155003 1.9550052152143176
As 7.447019658072783 9.233714585614972 3.129138551416735
As 10.40818028578898 4.6378735322426135 1.7662636381788839
As 12.242910360396149 4.531101982496255 3.4949259717616434
As 8.291603643438446 3.645013256313648 2.6846000151006737
As 8.533457614618936 7.101133284220756 3.912046726479071
As 7.271417623263365 5.8620918034187985 2.1393060742473704
As 5.209054966104274 9.267519092480926 4.190129900533858
As 13.08410665860843 8.076850469646518 4.751179336661881
As 5.0684578967967635 5.4648420771565585 3.5963283174564005
As 3.252399595826137 3.9671378370029435 4.910493910537781
As 7.606186667343673 11.313676469630039 4.541976844604931
As 11.08377273332541 5.3196519851153194 5.5387346551519
As 3.7227512615945613 7.518542606425955 3.199069125324035
As 10.81377989701358 8.764102303861158 5.606658853418113
As 8.438244090374914 3.934237848329661 5.186279814214838
As 11.565984523306886 11.11491864379111 5.4649057760694495
As 7.5391928513767 11.691775937834446 7.014312979185057
As 6.288649479603266 5.965012381739597 5.687390940084051
As 9.843033092328618 12.392887820417407 4.680778899163138
As 5.012866352900552 3.9133148475364106 6.631155308143912
As 2.851344694421325 7.883872337500188 5.5167605388627905
As 1.89739156208023 5.673501060139564 6.142371207716019
As 10.55837709129414 2.875229247678238 5.986310177589569
As 6.750116166578281 2.234785944323512 5.955928135176743
As 5.189587227079098 8.057607961423788 6.41196885350949
As 13.20082823517158 6.2858195791387725 6.506974547105742
As 2.5010842565284968 5.229329858154884 8.541158140940215
As 9.25501836855533 10.641599954466583 8.532157529976754
As 7.54079264376074 2.189883421503366 8.34936950683769
As 3.9309913153659175 9.819615478183158 8.678962144545357
As 9.900657246135227 3.1399996378663886 8.379028984408512
As 5.191468046672332 11.959691445503845 7.830601468013212
As 4.847909428863474 5.87204364522789 9.14400586903181
As 5.685894604947748 3.463941045751406 9.585740562183751
As 12.088637113914148 8.211527465346984 7.722078370720443
As 8.962022156541371 5.442807465710128 8.583863477769983
As 8.468907457565786 8.464966451196714 9.544719693052963
As 8.676271408371141 12.490194123996687 10.053135178356296
As 5.7941204721483714 9.522100946728154 10.174580583461669
As 1.817840335711954 7.080661897785132 10.233545108080953
As 6.19500328475245 13.11017139188942 9.764497406564486
As 2.0028803816398417 9.680884002883676 10.402877078493344
As 10.67846567659723 7.109401088130362 9.442401341118273
As 3.806351888370162 6.152534665430277 11.393982387025664
As 9.163167638366346 4.975143193972939 11.044789534030372
As 7.011010359002382 3.828941149214974 11.693528984703269
As 7.088150979108355 6.283739608981786 11.279746317529215
As 5.553766006625157 11.530499449875538 11.62152856974567
As 8.79944161624986 9.137798517225258 11.96905343099951
As 4.749430098293036 8.378703749199243 12.093089134980799
As 8.005146317862808 11.478740485875125 12.260790869485332
As 2.7259279636102853 9.654229213656432 12.645555625538428
As 7.038265258123128 7.870898141135229 13.23801154628598
