55
Energy = -246.34649253 eV
As 8.66235896800905 7.738313203932628 1.5011969762002604
As 11.115327881999292 9.56217567354599 4.00568859540012
As 10.399389298046135 4.046938224550281 2.0892695000750967
As 7.529307694294461 9.96951305474053 1.597708760592725
As 9.991423353166295 9.818110826952825 1.7562155286466592
As 1.8091818506749406 3.8397501775318315 4.636080140790705
As 11.115167517510937 7.086760349188272 4.0342591036324595
As 8.169593319445108 4.680274040843386 2.8583798512873106
As 2.7707915081242107 5.837813487539365 3.397201748984182
As 9.479968005400089 9.629310611626547 5.905506319670092
As 0.47690665637795476 5.0431260455402755 6.256451879710164
As 6.770058688341949 9.618001184437748 3.985165895815779
As 7.662000129498513 3.261348044198994 4.827711989613071
As 4.263442489197946 9.468649642227817 3.643783566518122
As 8.590782482621808 6.937740502300435 3.9106799587649843
As 10.64025631024116 1.8516516102183918 2.641387990264194
As 3.473337341982391 10.806965354076338 5.5241516109788815
As 3.332441443023342 7.484035614137805 5.216150136558485
As 1.4084112479041644 9.567497709978374 5.65865978543362
As 11.815807992536516 7.004365497126658 6.492443529983268
As 8.920875247221687 1.1937613224126862 4.288293251747702
As 11.606654366994931 9.406944747078981 7.249262647792007
As 4.956722289722297 5.580523910659647 4.6141730215914265
As 4.0802634124841655 3.5046502004686193 5.686505914823487
As 6.653799666916005 9.130892115383332 6.846201532346118
As 9.856296268232667 2.861425241179484 5.901896349715938
As 6.860805975139418 12.01568841391501 4.762817687020466
As 2.3304627115308234 6.084552974388928 7.357694035337694
As 8.99988678351627 12.049574799728601 6.05723974951481
As 4.292246265138685 9.074923914598806 7.605629379033371
As 3.6697215924169835 4.053985576556044 8.077780683282842
As 1.0570081824046638 9.95659646088735 8.078293597931442
As 9.017873587128795 1.6046060994130038 7.887001694262754
As 9.794863642642957 5.923705456428245 7.590495864151825
As 6.854435840319226 11.577082169311762 7.2440771738358585
As 11.84555272274644 4.483471672836696 8.400048282701732
As 3.2101617575464676 10.960774185189543 8.880945586104588
As 7.659473862980646 7.846271706980437 8.682439369007144
As 6.0872935563625985 4.797871500950159 8.296297509945585
As 6.647689296174183 2.3084891721093417 8.622846525620796
As 1.0398981695268632 7.565458369734805 8.973805425309557
As 10.684203137640324 2.5463356955240273 9.546566528942819
As 4.868335292497303 7.445130605078826 9.578369389593274
As 11.320861983157526 8.961868105314037 9.68561461580713
As 8.851947037796196 9.576656855913475 9.929894553368056
As 10.90273591758886 6.476386096734665 9.701164455714995
As 5.777029566928318 9.51253198089298 10.496133230130603
As 3.225630664160966 10.081737234374835 11.185299856302084
As 8.828323416252031 4.078619000055838 10.039359819983078
As 5.762766116613112 4.9253097481841195 10.77334311923326
As 2.6617084867543723 7.718861357292827 10.811500248171772
As 7.474250737923742 6.286476963479583 12.161683273640314
As 7.098018832888051 2.698245923039917 11.066698526596785
As 7.696746219753918 8.76595575740851 12.033369455203827
As 9.78658049633313 5.549371093629619 11.806242059145418
