5
Energy = -17.88046482 eV
As 8.518421368124965 8.40744122724463 9.202168724422707
As 6.709475771415601 7.2598986794130695 7.908989087572364
As 5.094168696926353 6.319599706535509 6.843627142088728
As 10.30690667745183 9.379875192135065 10.638926568907698
As 11.819782888915373 10.260295716801927 11.893069966037928
