52
Energy = -232.1455973 eV
As 10.636639456702298 7.291583443964912 5.089419270817849
As 6.615123613662851 11.652642359636339 8.10829006321964
As 9.001834337167764 5.702764016441229 7.847785034369794
As 6.633609841089977 2.555818185856698 8.0524503369598
As 6.9209869525404635 4.8623016002143284 8.988754293867819
As 9.26231831318547 5.249934437508463 5.404228486598528
As 7.139827929023945 0.374437716158221 4.861071679911394
As 4.381503429188971 11.225643625013257 9.097794848335672
As 4.5720698535793565 2.4024890075990375 9.518127501008285
As 3.448709147640277 4.389589944406125 8.447329646946226
As 9.353384689579324 9.053616783014538 6.379932215599348
As 6.008748076256358 2.41044625607245 4.045632333193398
As 5.3004994128884615 7.886861757820107 7.149940491111221
As 6.3674231327288435 0.4399159497044354 2.5196591585643127
As 9.121912099475203 6.541547950406251 3.2427161966505484
As 6.938171317586892 8.626183489952146 5.37546071716071
As 7.806131009395522 8.513715724744749 2.358690130210671
As 5.257095328313501 0.002004479391043937 6.46852449379473
As 4.910354057487811 10.485901701130553 6.781012103042235
As 8.392732587899042 8.03492052522716 8.279158608224604
As 5.5181674174681055 4.541788275240538 6.999759482894514
As 3.0802391454964484 0.4629139382632801 9.125826672154997
As 6.856680447800007 5.216033436973653 1.279900550675171
As 7.509881549821833 7.325681756553365 0.14478735137847212
As 3.8781531175914323 0.584298806515024 0.21320870789509316
As 3.944185635418269 12.761165257613094 2.6096286494437995
As 5.523338939273265 10.485901701130553 4.505734069001026
As 3.462462229178102 1.9760217615056885 3.782617995116004
As 1.423107430425603 0.0886136651744874 7.3250085964049925
As 6.642710314149072 3.704320091586349 12.200365326957993
As 5.1410618211929275 5.421773695387131 11.13968208918792
As 2.1367847357351644 3.9496866411704183 6.3352773080363605
As 2.6103564205524314 5.623995940772618 2.11321618764084
As 4.549483824522996 2.9417010802758745 0.5432600397126356
As 5.095322706703332 6.745256144032219 0.38848990431692165
As 0.440440333631223 5.737600152755164 6.92430571057605
As 3.6864382892059697 6.859246775222567 5.450543656126861
As 5.48489105584941 8.242829043912463 3.333946512851511
As 2.2653472538157757 7.385473413499139 7.512986693868609
As 1.684071691347518 0.6074405684086551 4.922727025797858
As 1.44729601105574 1.206965048442973 0.12189842516217561
As 4.443062551680656 10.210958449186036 6.811660959622863
As 3.6539425638597915 3.3778403242568955 11.27062677144945
As 2.460821345277562 8.822389193271164 4.358858044119183
As 0.9045840201519503 4.306418021931579 3.3467774444975302
As 0.3922473333326355 2.138320864125549 6.441031526338626
As 1.2268567793170193 3.173105507908537 11.868827718462242
As 0.42567752023953953 5.160709434888098 1.0412218877295227
As 12.40362269864739 5.896606667269613 4.597598844055659
As 1.0918989585321717 7.521202240165693 1.5849543031390618
As 0.15072135047767182 8.114872299036811 3.7867462761908253
As 1.9573335767053328 9.72375960083979 6.610786655345263
