54
Energy = -242.52853075 eV
As 8.012747048623595 4.769522506344413 0.6953571113119454
As 5.546028613598582 7.472505283695576 0.1390142924794405
As 7.311098578276826 6.924026204850977 1.746693274273974
As 4.128998216508132 5.706303475187054 1.1896917515616456
As 8.654045325538975 8.990112146342854 1.0460275463921331
As 5.752686744025676 3.7577802517004972 1.208294752713558
As 8.950298240509472 3.696886936599313 2.756740331105343
As 10.978493066634629 5.0736877762467385 3.401280904446531
As 4.7161236760195155 9.534123355979292 1.324315370505514
As 6.906466998149229 10.47217918394414 2.1403235191363255
As 4.81224145903619 6.247060683437897 3.5362308397350453
As 2.4726616846058227 7.117176469224736 3.948587307104711
As 3.281926117958969 9.460610949080635 3.4482925025904407
As 7.461195164109095 8.802902689394434 3.973443827516307
As 9.529119366305366 1.4711933833516757 5.433339233679873
As 5.353855194413747 3.7425941508510494 3.722549478456457
As 9.78027772841037 7.031445434251042 4.408332951135877
As 11.032792568812875 4.4056322554215805 5.838821538054217
As 7.511289316888778 4.84339985034611 4.409121695056585
As 9.79096012902623 9.305376638490015 3.271431569932995
As 8.443538050407406 12.385079279711737 6.908002831472651
As 7.464299245353588 0.3231520023113926 4.721026170869175
As 6.300019804729594 11.22940089711583 6.293445131359903
As 4.318402895009994 8.293305545124616 7.167552064718091
As 2.628014457470673 6.622426082929679 6.36776867293555
As 3.964107520338919 10.291977264041085 5.7547956483530385
As 5.065421033059668 3.991364546451429 7.645862663668227
As 11.616841116637088 6.88844467859384 6.046876670557372
As 3.276264658892343 2.261000465440004 7.678793626536704
As 7.457979967947309 9.09518074232462 6.481037600779021
As 9.579339743859341 10.270729151781087 6.842883335768368
As 0.9170440026679051 7.622613759626219 7.970098384931071
As 2.4987894320207182 9.499830992285379 8.44887170969569
As 8.629094304109984 3.694710174969821 6.355690324349032
As 4.371657759018726 0.3093535539288737 7.15462875114888
As 11.004146069733848 8.513084235563701 7.92297279076753
As 6.302998893722466 11.498182589053593 8.829648088113661
As 6.558746772177256 1.409319403162846 6.791132384129983
As 8.82367556535243 11.411501022727327 8.967629727767767
As 7.330205811412371 6.7482271897520745 9.001686183754446
As 4.110726114258855 5.801439693199399 9.188482144017806
As 8.153902591719573 4.372590579312668 9.889988294155051
As 3.302515315122322 9.279910227337671 10.770568457696074
As 1.6494994385982038 5.904245093513262 9.60859005633894
As 6.102204168131513 2.9934836010275205 9.715174637461542
As 5.783499226065456 9.210894056799779 9.732528603809195
As 9.652575321538325 7.459700965822213 9.697325005378794
As 9.318831934049197 9.717517535385587 10.753497337027278
As 2.498593460363743 7.144115226279938 11.548405113894386
As 8.09456988906934 4.821708608439591 12.347386084903702
As 4.326259618470717 4.2192236172961195 11.055870721290166
As 7.108741678761477 6.950528714212071 11.499472796092446
As 7.072009042431534 9.500703959056473 11.81907661591132
As 5.659149383806923 5.420801248885113 12.752311096921309
