55
Energy = -246.90184652 eV
As 5.213661157642268 2.3921539553712963 1.6716655436393104
As 9.56082257949896 9.809605328850592 2.074798737215495
As 7.199741169434272 3.829792583187894 1.293180217087588
As 7.0835165442164865 9.3661789151207 1.9337427051955893
As 7.413882363389635 1.8194326751015195 2.700100317178283
As 3.973648630596727 3.417175185762475 3.595833914803685
As 6.544021307668795 11.761472056731 1.742119179476256
As 4.830353462189776 1.5385813893696991 5.017501920360787
As 9.967438385062446 7.32525749741464 1.9776347415598583
As 2.894858291036966 9.808618065941575 5.513675380399145
As 7.134304501416093 2.614933541080127 5.034453742839682
As 9.196375108788017 10.591060740313653 4.394284375890849
As 12.350977488895857 6.873267825783511 2.479040592684928
As 4.5202912820652665 11.737707377946032 3.2831703364097065
As 6.750214242351948 5.774751543135989 2.772753091433378
As 11.817838754447186 4.533519390559487 1.9894144905951765
As 7.8602228914459475 12.60894986801023 3.742136406670246
As 2.153152132280089 5.818918653833537 5.704926174622768
As 7.048548889756681 9.149731864847276 4.442604403831729
As 3.337770810847067 7.7584226050459515 6.85857118778159
As 5.780546618154425 4.671560888034992 4.7264853608606625
As 8.90448831328462 6.272278835516113 3.970288120166404
As 12.902047165144625 6.576219856405898 4.923397308238554
As 3.7922187523365167 1.9652782032239837 7.2658638460885925
As 11.444810638119447 8.348872537467766 5.8458970461127535
As 10.11981617665315 4.0911283514980274 3.6683226705951273
As 4.305795183729502 9.306800108262355 3.739016530115152
As 0.9030636971208315 7.325969905266155 7.209364862656505
As 8.932553763587073 9.012514047187402 10.134967865430815
As 11.847349117479295 4.386871892849922 5.507001318083295
As 11.96547166712156 8.037528570264971 8.26383679565851
As 6.121616953531049 11.45065471374413 5.1320770833881975
As 6.002201321682443 2.0921558684766444 8.388822084309547
As 10.901908402679013 10.151793771975465 8.87211911485432
As 2.962712067967967 4.330520977170453 7.5593802028361115
As 6.7617068848063315 4.45637318572737 8.104040747271965
As 2.25388112742181 7.441460718824701 10.791526050509944
As 3.3214613717791783 9.2999497377984 9.57328100653077
As 9.77272680482786 7.1689541772283905 7.207724270786181
As 4.738681276967786 5.671152595922578 8.935659789922067
As 6.590391195721104 7.598714080577162 9.872833400962124
As 0.4163629842823331 6.077320666392771 9.322010276431273
As 9.13689963739156 10.459983555997873 12.155221017000772
As 10.34719654298431 4.842095276553512 7.344688509918705
As 1.1075563056688758 3.8514648776153235 9.021502746127743
As 7.707928586517461 3.884078886692093 10.362262493227828
As 5.639427617744345 2.5008546216335823 10.843569182532331
As 10.223276507469981 8.243110935523289 12.104416722959948
As 1.3107514484873148 9.6444622819552 10.797775818982918
As 11.486111756232578 10.270126386031448 11.337178000882764
As 5.377578036027189 9.132470323303908 11.367789168444913
As 3.96674488772352 4.330422336794175 10.901046170319573
As 4.070166966794984 7.635870417904354 12.77454320644289
As 7.387016578946895 6.060178693891394 11.630066697445082
As 5.245969075805125 5.481352078103744 12.72449247945216
