52
Energy = -233.32017043 eV
As 6.393248511794285 4.050144143116181 10.18339500951975
As 6.215675204164481 5.432719786285956 0.7692052026340044
As 11.956846059153332 4.213890934181233 7.57786131522925
As 0.06610360689422788 8.646771930551711 2.876965980869018
As 10.415852736769217 5.038345423847912 5.0504857649965995
As 1.8947035507906176 2.8693002067358293 6.6267112553914265
As 4.502080065051872 2.475677018709678 0.23269153375058738
As 10.870301148488752 3.582029655536279 1.7997020236504915
As 10.582300725955808 5.950365030061755 2.28310069242058
As 8.473491664057368 11.885965025649071 6.738704067208032
As 2.414980580028768 5.943035731326119 5.039568072647914
As 9.10072020322446 7.592365308157396 6.821755880637489
As 6.7315918346617964 8.072066833531109 6.335910297480864
As 2.2959760185391884 1.563167083595277 0.921501298640875
As 10.289307466437798 6.132872675366889 2.8005303330048803
As 3.8896037237413115 8.982273332414325 1.6437694790368473
As 8.282747674133637 6.753530089263173 1.4860654669960947
As 5.819710262781145 6.127135907195062 8.836224260794255
As 3.93003633061371 6.663366429435847 0.5101545792061429
As 5.017425985148138 0.8406193502163971 8.283866320027428
As 9.562965214088106 1.5176564195155193 5.146164338429682
As 6.744508409650222 9.790976884487863 4.51101594932603
As 2.773531486601832 8.371613018198818 5.564375665919753
As 5.469007340495114 8.052148912426139 3.2734536177808433
As 7.495375333460229 8.978807083738593 2.2493356682362013
As 0.4272591118076796 7.04635714988515 1.0176003653961865
As 4.407382044612733 3.2232566795022137 8.817083155321216
As 1.1421768115457582 3.7548810364323764 0.6994256989507586
As 7.9296737834070115 9.299418489063774 8.152464166726155
As 7.835415585095394 3.50178618200253 8.21209562152913
As 2.23811017668447 5.602754287628433 2.0319102015665336
As 0.5286280902365924 8.095970476557552 6.6448068842073065
As 2.235576828240969 9.593449818058875 3.397321401948861
As 3.3027371968147468 11.665249270654954 4.943311906316257
As 5.504974830615265 3.634582684918036 2.368556772930582
As 10.801063729454397 2.9129722694057247 4.307816704170329
As 3.692618802567396 1.345548619093856 3.0393044246047203
As 7.449821466700594 1.1092633955574025 8.66800044482898
As 8.156118127982014 0.24271607931463435 3.4929067397620357
As 5.064081507781124 1.2816417616044162 5.807684311068435
As 1.2929881864035349 2.776755138902732 4.241939648207693
As 8.44197147777742 3.6638073526740764 4.437597544710508
As 11.96417839076495 6.608495803912407 4.501106702339915
As 10.4833604308213 3.677975092457279 2.981966362293429
As 6.540173032807896 11.348083130335276 5.230324158827389
As 7.2671136165290875 1.8476734418129737 1.8033329662729782
As 1.112781580493426 0.7206588884734005 5.646528159326099
As 1.7027152661137201 6.088615456282528 7.497846278819991
As 10.4833604308213 4.880276749752757 5.73534596103281
As 8.193396230922756 6.996659645877731 9.05967362437424
As 5.7706648075873535 4.352635731098307 7.018312450643832
As 5.310486211057267 0.3681080121099841 1.305564717425144
