6
Energy = -25.49516207 eV
As 2.736435849006875 4.1591928791359045 1.9344198959798204
As 4.14601364305391 2.3964911588623483 2.9614792352808665
As 3.126178026030247 3.410444848753593 5.0472842181688415
As 6.144669409473555 3.530889744143839 3.8955496748468157
As 2.0505449540000678 5.234220654701841 3.8507162521513836
As 5.1473739244248335 4.619976520392218 5.661766529561371
