6
Energy = -26.16848104 eV
As 6.504340025379544 8.497770866581815 5.806700299585304
As 7.721378694908529 5.029619401267549 7.260176183481488
As 6.134661955249187 8.30959661986522 8.252635780235114
As 8.444574003359321 6.949038929013161 5.861052036968894
As 8.365613483368767 8.928581739867376 7.3557005162413835
As 6.2655969732945485 5.87964334141143 8.748679243935708
