6
Energy = -25.05942335 eV
As 6.91659471415102 7.1254608835719 8.776544950283585
As 8.50880754823526 9.633908733094001 6.610544710779963
As 5.214468995688972 7.271968422970821 6.963078145406655
As 6.129492643518 5.080984975765796 7.585347890086073
As 8.917313766976665 7.3719872182406 7.205441601712834
As 7.139475243689113 6.341842494372404 5.68519524550263
