6
Energy = -20.90185802 eV
As 5.389004566716232 6.658677350287373 7.493237308633921
As 5.52472104403598 9.19699592968764 7.39365259449806
As 5.311804622878152 4.116600545255293 7.5560986290647225
As 7.114537859931799 5.240256000695001 6.156861138741018
As 7.236001533646874 7.839971352134213 6.08977805790896
As 8.90150534916112 6.425073668643698 4.78794711785641
