6
Energy = -25.0360042 eV
As 7.534699320612993 3.9609170196426273 3.3383964501289647
As 6.774160552974461 5.903186180456097 7.153187586379974
As 6.460031178778589 5.190116523969468 4.758130382673182
As 5.080331317593201 7.67665352888135 6.736716704273874
As 4.145023261462042 6.174594349604861 4.988797049967069
As 4.337911971250004 5.427303085501737 7.357498106840581
