6
Energy = -26.19673462 eV
As 5.146731597858183 5.672084535989945 5.122246225046031
As 7.6420268521467305 5.674782275204782 5.122421374878143
As 6.393315453530719 7.8351631877272485 5.122065338301366
As 5.1467867097568885 5.672225255615817 7.666004763071303
As 7.642066952174064 5.674851603604818 7.665787436142427
As 6.393461120052736 7.835281907718234 7.665863548079947
