6
Energy = -22.2416767 eV
As 7.568417329808389 7.282924963029193 7.209548105584003
As 5.310654726664858 7.044100700809667 6.521854223015094
As 8.231654131531469 9.658903402773392 7.228262325538244
As 7.712689965775986 7.097785285010979 9.665581084125561
As 9.403650047864183 6.128903663476061 6.239588784989889
As 8.354963783772568 9.366620833920978 9.564788093843447
