6
Energy = -24.44144955 eV
As 4.9673068070143085 6.357907939998486 5.518877275327102
As 6.698744806331853 7.853486316336843 5.171317225914455
As 7.876292303436772 7.565611627175668 7.196943594375816
As 9.938399897417428 8.628018498022822 7.543998376860266
As 5.184183028750375 5.259873820008019 7.610044670007554
As 7.069867531190831 5.976167755972575 8.744464250524253
