6
Energy = -22.945709 eV
As 9.388663628000595 7.525644535644176 6.193643791777993
As 6.541342951123673 5.236343938919997 7.143908235371008
As 7.233052523641464 6.842635809214163 5.3360383974541055
As 4.974484264066923 3.8801228925834494 5.897308402959483
As 5.968326213357282 8.548972594599103 6.586550732160152
As 4.848772907619252 6.909048972048552 7.78211812946571
