7
Energy = -29.79218855 eV
As 7.337266720886386 6.377516487317761 5.047654709825904
As 5.736408219745171 7.346510879342387 3.652157450989371
As 6.6102805695898645 4.911895088826661 6.860664083563324
As 5.352590340215798 2.9633926556271253 5.924273235526486
As 4.185969957565392 4.54858266812847 7.3687381587653284
As 3.6387637940565467 6.3399742315414205 3.8128167263929096
As 3.3928928144918067 4.23146088716874 5.016004166282095
