7
Energy = -30.2643077 eV
As 7.44771074293834 4.776744861018988 5.4340314168681045
As 6.6228314668418236 5.0414043992290845 7.750530025182583
As 6.140512156463542 7.644052119909549 7.452753708786487
As 4.355084533195474 5.348973112576548 6.9464284461064425
As 4.976375202052924 7.602999640538819 5.203732652112749
As 7.395563060580068 7.467775509882747 5.386165404964297
As 5.105676132818362 4.986207049153688 4.672418680816349
