7
Energy = -28.84694156 eV
As 6.186757882723053 7.590460290067693 4.283934466166894
As 4.075137651572519 7.247305647950843 5.50406737721564
As 6.64802006783555 5.2096666542153285 3.855783462863243
As 6.957202034630165 6.7705839639619025 6.500571446032929
As 4.811305666509528 6.411684235110455 7.729062839645477
As 7.3917547223798605 4.346295705676388 6.068013065263808
As 5.774524291524236 4.1940541159721745 7.861011003769028
