7
Energy = -28.93582848 eV
As 6.0931280202364855 7.347666452469642 6.755891439701703
As 6.759715836028578 4.978993319762827 7.084686345742735
As 4.456503620662105 6.866945914280949 4.84420781061022
As 4.660413948606397 4.471417878230593 5.871021721928856
As 6.42013829271031 6.855721736983357 3.4957913131280094
As 3.3028855688123633 2.831933269341656 6.356388810605715
As 7.9454789918238315 6.3779691227581425 5.409655917842264
