7
Energy = -29.96887806 eV
As 6.774458966599952 4.501047239705058 7.500481138645864
As 7.221604711877808 6.115374737487751 5.919851787572791
As 6.882429158110715 3.7858643743851372 5.182871397304492
As 4.813264002161311 6.240134146242457 3.5318004943531074
As 4.328918540033732 4.061129682766194 4.518718764023892
As 3.981390144053754 6.086725072255674 5.869443072500085
As 2.3965216554339897 6.251790312140279 3.991080312872729
