7
Energy = -26.38853684 eV
As 7.597271394668531 5.796366069230461 4.886502562957298
As 5.903736229518364 7.586643327430438 4.908853503857748
As 6.661187468743626 3.8486877572322853 6.071247935902434
As 4.99142824198068 5.0328604776046575 4.1183023470337385
As 6.382439618842334 6.330535810212755 7.386175060690131
As 4.380759617429291 4.427182628863477 6.805771112257435
As 3.912160075690907 6.737126634419646 6.085606601529473
