7
Energy = -28.44060232 eV
As 1.3153137929197245 6.189640482177305 6.248613478852221
As 5.843127345763201 5.276427930428317 5.814400453566882
As 7.906830388825291 5.254467312649128 4.495142513481761
As 7.215050138557039 3.2440566567465976 5.784539402934771
As 1.8593637464263786 5.279481384052189 4.325365841810776
As 5.970642555706346 3.901978741741281 3.759778520652965
As 3.3166040904148306 4.262238073199912 2.9644358407461624
