7
Energy = -30.82914023 eV
As 5.5855475631238445 8.31819206685024 8.0221220071217
As 8.323584822198436 6.131428523720604 8.672989494180262
As 7.343918461810803 9.44773000828079 6.733709965395593
As 8.02408301468705 5.719615028127157 6.271689676240086
As 7.864870236648907 8.614525005282674 8.981160632607432
As 8.175348733696941 7.842340568241161 5.149348158555324
As 6.042601468613665 5.829050289318316 7.71957646314722
