7
Energy = -28.0096905 eV
As 4.067410256696615 8.836042989150087 4.474445393010919
As 9.568465511029958 5.44246947468286 7.595325651313149
As 10.317720962032634 6.833772832584726 9.35343463907342
As 7.2891027657348415 6.213230206365795 8.11811402244128
As 4.975626828240574 8.555749412977457 6.567894851326844
As 8.413759675413292 8.202266996723134 9.034427062962022
As 6.3990035414062785 6.786156786777603 5.885938201793864
