7
Energy = -27.98798458 eV
As 6.118940416845512 5.892554275209762 10.438356776173519
As 7.205716475108627 6.131145997061337 7.158635677799151
As 5.084320638298689 5.770501015103287 8.464787940482102
As 9.137547646433292 8.937693351573254 5.93996612417535
As 6.2562218963587375 6.815177113942535 5.001808421051356
As 8.355243701568211 7.659445505388013 4.151673669495808
As 7.57748586745844 8.480049412984515 7.720848126566697
