7
Energy = -26.36635411 eV
As 5.5934142529232185 4.623779097659097 5.084922038983488
As 7.787197048386683 4.013280470114075 5.284859240957412
As 8.563537456042678 5.1688332912786 7.231209915580508
As 6.821384292924914 11.514028957542374 7.632666015482674
As 7.437412411393721 9.498548206464319 8.582803481503886
As 6.315396531804986 8.141871340154635 7.006236969596139
As 6.587798616577584 6.070682548878912 8.27407022249466
