8
Energy = -34.40578321 eV
As 6.3093784085262845 9.612348144113085 8.66014516033746
As 6.119964729944152 7.201071980605946 8.939774878638511
As 6.097964436760652 8.160567736145477 6.702297590324114
As 9.992393490729247 8.06292235545227 9.07253300562577
As 8.424828346119568 6.093501396790435 8.951776914408201
As 8.77243760916901 10.02140450193343 8.336041593448787
As 9.674759876599879 8.486928952799662 6.611107582882201
As 8.515948749829041 6.264873776008959 6.531789359836242
