8
Energy = -34.45251874 eV
As 8.714462293533586 9.039023889552617 6.228514998999519
As 7.6321259319107515 9.601390495797219 8.400957215244848
As 6.313862157493422 8.86160887607779 6.508824867576168
As 8.667953373749002 7.47463303714052 9.477131945649326
As 5.929176519179045 6.399681176997706 6.8602700558719585
As 9.761884936219221 6.915227604300018 7.310445858854855
As 7.926326284554386 5.581020421732446 8.160411715366171
As 4.269016919607332 5.226209590557987 6.104950981543856
