8
Energy = -30.01090284 eV
As 3.6124210436407003 8.062434232754693 8.707207730242715
As 8.787292321410359 5.611398643766481 6.5974346478128085
As 8.233900517025631 8.431907761433244 4.155514673403742
As 6.278226946112388 3.073318908968422 6.917957378424871
As 6.9793146509745 9.084196053445883 7.559411150521226
As 5.677682578857179 7.243307208599089 8.288510576253238
As 6.431181542242233 5.3451009457794925 6.3221532902946995
As 8.93794009565241 8.076567594368234 6.42046067677052
