8
Energy = -34.6796128 eV
As 7.300247062119067 8.087405452934453 6.762451709977281
As 8.650746883169672 5.872592912950436 6.765967789047879
As 4.114464611316209 6.271733951801138 6.380869982548966
As 5.276044807385427 8.076952445041373 5.140133712934289
As 5.781287352790161 4.713599670653823 5.340414766613536
As 6.746825426878231 4.553123322166814 7.649266401974217
As 5.713818669016056 6.7579500212199655 8.25024969295195
As 7.348572320525758 6.598649246125482 4.642652966845245
