8
Energy = -33.64039201 eV
As 5.233332250971755 6.828827929307931 6.86293085152469
As 4.713246744207703 4.507099802149256 7.40528242838751
As 7.620760673501645 5.992325385865146 2.825475998995963
As 6.051664387230226 3.39335827793386 5.40180809445702
As 3.7197662242685556 5.377903789390302 3.6762828454796956
As 3.0893074251716786 5.869978414337859 6.202452207925721
As 6.012516940600981 5.718807861240999 4.557329061441614
As 4.288874438770265 3.041167624497456 3.7979075965108477
