8
Energy = -33.79668933 eV
As 4.699559377373643 6.956394995233629 6.905742617046699
As 4.716753787032118 5.115756842711309 5.200084833904817
As 6.994057936726159 7.666162121363547 3.8448206343806333
As 6.673937340892349 5.202163934095378 3.615823849496557
As 7.164885324216153 4.764689185886361 5.9889288345196245
As 5.353145278965449 3.283042944240676 6.8050584657202045
As 6.446146832629325 8.425724249517952 5.919451164550717
As 4.966760272615008 5.031507651153059 8.457516694536631
