8
Energy = -34.88273751 eV
As 5.285627536698521 4.822986895644404 9.401572946748319
As 8.043340789173106 6.912304476765367 8.11390477339484
As 5.564401078701801 6.834314014738328 7.947483653957046
As 8.31819253155594 9.405644169059947 8.366287839592067
As 5.3704231123948025 4.476977989534869 7.1713700723699825
As 7.837380004993474 9.868061271390195 5.957761164712976
As 8.647061193733105 7.5154349390525805 5.739076560993656
As 10.123179145835001 9.317044010459322 6.641119939108251
