8
Energy = -32.34224288 eV
As 8.341770567684396 8.119040874775767 4.662346516693749
As 7.752563718208961 3.807321641880419 8.356073048300765
As 8.0240240466077 6.138439935167093 7.821277023834533
As 5.707085987877944 9.079529396719408 7.332098629554888
As 5.579194960943669 6.710877565324252 8.001733881094722
As 6.102865121243413 8.467343244753708 9.643992825625558
As 8.008535152842766 9.566766428653874 6.525419075823902
As 8.218098397219205 5.918706632372773 5.370621378473506
