8
Energy = -33.46802383 eV
As 8.089653828651347 4.38100527923314 5.0382872414085025
As 7.8269173950915745 6.38219509869044 4.082980157197771
As 3.616862689707711 4.9426580583713955 3.493452809324736
As 5.755236268438104 4.5313236627984725 6.2473715338968
As 5.497998855263922 6.174917441768455 8.280701968294176
As 3.6374671774900373 3.419206715786022 5.12894729273658
As 5.28880502307251 6.479324502091975 4.7873241507225845
As 4.498070988548567 7.703066460834431 6.998356069637845
