9
Energy = -39.97616636 eV
As 7.9001525400924715 6.931249496395634 8.40901052920274
As 6.221346510645641 9.010054754736911 5.597161178514315
As 8.875640096943222 6.257933814473741 6.222173348621707
As 7.264104612733422 7.083816920855241 4.524981386337211
As 5.793004628025123 8.106943068698948 7.8210014291683505
As 7.689957996029502 4.5960151148114194 7.6188922048720995
As 5.179698580264431 5.749435211793428 4.6994772670186356
As 4.180895676367685 6.447555022422877 6.92544428790248
As 5.405444672040175 4.327241908953597 6.692103681504257
