9
Energy = -36.80665713 eV
As 7.3933828201803875 3.297112878427536 7.987542409099998
As 8.441029067742942 4.825165677458493 6.355963929730598
As 7.621798741077146 6.726577677322654 7.803555065968776
As 7.178725516898455 5.012272848328459 9.524766902249938
As 6.685618249751469 5.13162367275311 4.663516865643319
As 6.8272099247364855 11.686220913277856 6.021593421332424
As 6.181119745727574 9.777916023418921 7.083466790714498
As 5.519368561762919 6.380029787488181 6.408372143566543
As 5.424212959308965 8.5102934292462 5.197435154372611
