9
Energy = -38.64754208 eV
As 6.18403218686382 5.284343538401132 7.955430899253574
As 8.111509986289104 4.292405326446866 6.8011017182466755
As 7.0649005940100595 7.542846632655777 8.361964724269667
As 7.54468734876331 3.7665376151141343 4.628160383759208
As 4.579077136478449 5.653322492281742 6.091146238183286
As 5.8287539347653174 9.088885599390611 7.179670389839122
As 5.409931848175302 4.671149005487426 3.9065862132142284
As 4.2974765735160485 8.115998012569559 5.562949878920377
As 6.272527527527437 6.897387248503527 4.639920016204031
