9
Energy = -37.24344206 eV
As 5.242096559615482 5.7757402590249916 4.338855569046346
As 7.769919907138587 5.776123927013073 4.33877348994145
As 6.505661217894349 7.965685489532124 4.338905862867385
As 5.035662898739925 7.353847152209368 6.505825221193357
As 7.97590218478583 7.354231436961531 6.5058062632425235
As 6.5062140149129455 4.80850058610521 6.506107746751873
As 5.242123640591438 5.776253718507346 8.673149095220536
As 7.7699481951685385 5.776638202399739 8.67321031682519
As 6.50568890032099 7.966197007269909 8.672583824152069
