9
Energy = -40.08302904 eV
As 6.199050956853092 6.079976264429818 5.6348691171585
As 8.952130091793101 7.817355142153944 7.556718663199736
As 8.87189749206152 4.731997364426983 7.813415499583727
As 7.298803656910894 9.586739344018268 6.936703471584233
As 8.640741382512342 6.1395333038459246 5.762317760267385
As 5.797991627841251 8.540152338333478 5.291720117052486
As 5.525669930258721 6.291329801112756 8.026729767516773
As 5.11378569700083 8.752885828060867 7.709691026400814
As 7.678285575081782 6.449473773821602 9.176592598725577
