9
Energy = -38.94034043 eV
As 5.130722531899231 4.7042655261302775 6.70667840587992
As 3.619011913764955 6.4998105025735935 5.534357606499148
As 3.3027387852109444 3.439620720988162 5.358504688377105
As 6.494922950981196 6.34338308445656 5.1674028162930465
As 5.953011542385792 4.921566357319207 3.139322911095799
As 5.121689408525565 8.292602129391673 5.035576676184966
As 4.7447167707812135 1.6659063683226336 4.543392442366437
As 6.470304493413634 3.317466799435431 4.960163770911868
As 3.4775738041332493 5.038260501273682 3.466121242918398
