9
Energy = -39.04488958 eV
As 9.534946261467157 8.68204392333365 7.660673664988385
As 9.812137863189886 6.176234536905971 7.458152520059446
As 8.151747593264421 4.856396074479783 8.577376358358526
As 8.982467263720608 7.544240311475658 5.499022154119565
As 7.351404545266524 8.843725966465042 8.754706994978994
As 5.697277805733843 9.249186227165719 6.891425120703094
As 6.562691613496392 7.217219552904688 5.668710812873319
As 6.6116272974577015 6.559953539555864 8.07479979173701
As 4.310472313365526 7.617576311708949 8.106971245637569
