13
Energy = -29.4065896 eV
Au 7.978017186375935 7.622724541621765 6.413661407116907
Au 6.984583308664925 7.005957267482863 8.864094019364305
Au 8.914562114329645 7.544647377585261 10.9077043906135
Au 8.927739675922018 10.339859879068614 6.376625533880857
Au 6.2834189715922335 7.242713865526201 11.49713144044638
Au 9.681399792374318 8.55408245540653 4.487483380315518
Au 9.700163699007605 6.64707654559454 8.455833045037723
Au 9.499574810413867 9.600254187315732 9.054242930405701
Au 7.274480802622668 9.794462762461968 10.601425089779177
Au 10.430746630784425 6.257684897099722 5.844354924072151
Au 4.903259177508097 8.79426180160204 9.663648994592709
Au 6.763334727951644 9.660691843399986 7.859464270472005
Au 11.051126832927185 8.640129594165085 7.037983032501695
