16
Energy = -37.85471128 eV
Au 5.377850325934604 6.646097348838625 5.122492156434886
Au 3.9059577916307915 7.001663137376609 7.5758485961096955
Au 9.663534195310913 5.588990137769298 4.7556215373520905
Au 7.816744885055331 8.987705485298049 10.695246824655106
Au 6.229527552020733 5.615086297715321 7.9614964455413375
Au 7.3523054942370045 6.067857920360443 3.327853338283726
Au 5.621034254357934 7.925535215317405 9.410411807069575
Au 2.8312341636608642 5.97839648477838 5.384144427165003
Au 8.460510155109638 8.510673012097406 8.012626684878372
Au 8.920622475496224 5.684296351558761 7.485324259787546
Au 7.999611983968433 6.408621593968048 9.961502706059212
Au 7.234354811820838 4.478171134432203 5.703070324912277
Au 7.931265931222684 7.735071093238296 5.386436164814202
Au 10.53896357686231 7.611120282855141 6.382649932623343
Au 5.901518914104995 8.872211728516616 6.767647916944857
Au 6.7344564405902885 10.558593851203188 8.744957305309091
