13
Energy = -27.36963234 eV
Au 9.498038696264873 11.878586633981879 8.770423261207846
Au 10.5528661271347 10.53532110704464 11.128047862995906
Au 11.711718302765368 10.012409268926953 8.483290332549721
Au 7.659710211184028 10.824503515183059 10.808626593999795
Au 7.046108221031527 10.517636801993106 8.015519927622906
Au 11.29407880698007 7.840279085099825 10.36658347078847
Au 9.519994872856811 10.015433790868691 6.557440796204818
Au 9.167541560915952 9.167719594984773 9.183125730973435
Au 6.610530772662071 8.267343345940864 9.788578436695998
Au 7.808485995692006 7.807295468393951 7.189810254052401
Au 8.737389775689298 8.335909826720316 11.78226818481475
Au 10.66757317100313 7.50878838894217 7.544322095211363
Au 8.88358282182018 6.446394147919663 9.539584028882498
