16
Energy = -36.97002813 eV
Au 5.299857387576212 8.296809480307848 9.94794843952532
Au 8.195280096231325 7.767392084097116 10.17489008020831
Au 4.440460095123823 7.742537780522442 7.454475221641081
Au 5.919271917564032 8.990183171190136 5.396231183496747
Au 6.733863359126667 5.451180328076983 3.7019996774428527
Au 6.487156526275825 5.86942787780246 9.268202983301151
Au 7.804037325884562 7.9076106144029294 3.5707687269772994
Au 4.43604844611334 6.615378958748994 4.894418003430987
Au 6.763345726271539 6.620089998724099 6.31199559090902
Au 5.634212724210412 3.5761298683133314 5.266108867600652
Au 9.08979042430115 5.649684018053243 5.285647774552184
Au 4.774504300904513 4.811196326653016 7.524493212633809
Au 7.559326713703689 4.2095869780177155 7.193679634856755
Au 7.024280984100719 9.099152152476194 8.024247130896391
Au 8.702943416775833 8.822066563690417 5.9645794054586645
Au 9.04408418089819 6.501731406683369 7.945241939936602
