14
Energy = -32.38423098 eV
Au 2.0074348652796696 4.10318631430919 2.491996952769069
Au 5.767170584395035 3.4759366656222745 4.164679781864952
Au 4.676310796740391 0.8927353459587566 4.306431616254982
Au 6.895148501339628 3.8028793823556284 1.7883885713067664
Au 4.004342315937482 2.9093761411050623 6.094550808065437
Au 2.5145560636730693 7.040412027403184 3.9715369317150535
Au 4.3936189492179345 5.515842797122274 5.2424039896729155
Au 7.027423221930414 1.3574932316838457 3.0967013476655767
Au 4.7570732118160635 5.330129244717204 2.340012065587784
Au 1.7306478987690952 4.472290872280739 5.173459390274452
Au 2.5661872388649036 6.702832970575641 3.463804830145862
Au 2.593271982566918 6.1847426297036625 0.8682572858110972
Au 2.0208660612129745 1.9966304759095874 4.142880662225109
Au 2.2484717019697578 7.040412027403185 6.057730408595815
