10
Energy = -22.30998754 eV
Au 8.776566890058795 7.7237417565865565 9.036296925184224
Au 7.292740493198775 5.628776008816688 8.308482483946147
Au 8.817360694723172 6.929528259694979 6.3578337859055
Au 5.829004473849095 3.459468001463535 8.273495970355667
Au 6.651174132601936 8.24388760811188 7.44599029276483
Au 7.452655076472824 6.249820034612351 4.2462433105103665
Au 4.46775438670148 9.510588910432611 6.740228405249884
Au 5.1327005675154105 7.421213682465351 5.308003212463639
Au 5.951967033507505 4.835969529174911 6.047226639605342
Au 4.882907202618318 5.375432105312043 3.6004961939409617
