14
Energy = -32.47657109 eV
Au 8.758121251734869 9.658348465387746 7.8961866142800226
Au 6.024913734959781 6.409343267501562 9.977836238501531
Au 6.7504976081923385 8.970718536782872 9.560644089387251
Au 7.915929887690827 7.033622674847838 7.903368234980426
Au 8.360123598724437 8.464458061139199 5.537042703629729
Au 5.12820130765768 7.6942736966404555 7.658607593687175
Au 6.378382221296728 4.785118151437563 7.852060386694999
Au 5.591763177173463 8.600335059696192 5.165897701985141
Au 7.705372717584265 5.789913211422973 5.501208224887511
Au 4.828967545347588 6.0576831919443554 5.52995982480921
Au 7.298302950808913 7.699132227836848 3.179542205157447
Au 5.210775702934022 2.4054296871772913 7.743432575599166
Au 5.8562120597699305 3.5143713957781193 5.427742879989491
Au 6.3010321094067265 5.11150015154834 3.300902876529736
