18
Energy = -44.22593493 eV
Au 4.804229837998361 6.781238616026683 6.726001599458236
Au 11.034054902693214 4.459178224243988 7.132787894924599
Au 7.291748789173954 11.063625479786275 8.74937156287759
Au 7.708931968228668 6.61488323712478 9.683874050644983
Au 9.093811372800804 8.957909526704904 9.16123083057358
Au 9.295521706166143 5.874701674951885 5.6322648573388125
Au 5.878008833732069 4.92437467155399 8.506246560242007
Au 5.008916541529208 9.059713112053744 5.200313088353857
Au 5.38667084893981 9.246568930149634 7.885632429791031
Au 8.464318706921118 4.470507008523434 8.033694401404672
Au 6.583491776146654 9.01139675942961 10.386376938617031
Au 7.24369798388804 7.531998123614708 5.099541301999954
Au 4.768003858276727 7.154514639980801 9.533543828444795
Au 6.6679206668922255 4.961115551818853 5.839670950670584
Au 9.67484133617744 10.969413960873624 7.394070070215411
Au 7.391273860936437 10.13997463482286 6.041088119318228
Au 10.178154289427118 6.684770565201886 8.364560930093916
Au 9.613221961004912 8.496470830925817 6.280100497705498
