19
Energy = -48.20923819 eV
Au 5.267429606736827 10.856751487789513 5.267429604578998
Au 5.0540202931053475 8.997490949782065 7.176340402041218
Au 5.054541932046068 7.120931983295649 9.056757558250535
Au 5.222289416183002 5.196617439544772 10.946712699324921
Au 7.176340410199168 8.99749094378206 5.054020306947423
Au 6.977045833162257 6.955486963635829 6.9770458290043145
Au 7.145734560673026 5.0470746894020015 9.038144612294277
Au 9.05675754640846 7.120931990295601 5.054541928888182
Au 9.038144606452096 5.047074673402095 7.145734560515087
Au 10.94671270448281 5.196617450544728 5.222289425025017
Au 7.16649426951041 11.104560208007337 7.166494271352586
Au 6.9267736590476074 9.233554025928129 9.251175644269471
Au 7.13844923925457 7.1301061521913915 11.113185985674935
Au 9.251175645427356 9.233554021928123 6.926773660889668
Au 9.240778258717842 6.91716076510149 9.240778252560009
Au 11.113185995832886 7.130106146191383 7.138449235096741
Au 9.076192754454095 11.052241543313865 9.076192758296271
Au 9.058815090742803 9.04766529491634 11.061221741081967
Au 11.061221744239853 9.047665290916337 9.058815090584863
