19
Energy = -46.04102087 eV
Au 7.3355058623168405 9.03529541565088 4.777518727267335
Au 7.918881427223245 10.638212089362636 7.095029865513342
Au 4.47975182810635 7.062881272459179 8.210667594228466
Au 9.537017128024681 4.92598913561979 7.070616385354689
Au 11.080897338974646 6.537677267905945 5.598782073284381
Au 5.8315591417172845 9.543118301276296 8.580269180874115
Au 9.609066909366618 8.709900373356653 6.302218877955036
Au 7.752357367381877 3.861677597022466 5.2286045755913975
Au 5.376740594912606 10.581654301395737 6.023807967057054
Au 8.352863164304976 5.928759608955428 9.43492492196551
Au 8.457363173480132 8.67028895200673 8.932388302985592
Au 5.712289178718328 5.06281084144435 9.49623904095959
Au 5.899055756908627 5.468609287098495 6.51192464870816
Au 8.264348355005543 6.538325900733157 5.0640104608027015
Au 10.585750003319633 7.073283247419177 8.34591807327201
Au 3.306579008601209 9.359679503850677 7.3979088401646065
Au 5.046368850099882 7.807048885290582 5.623157238521993
Au 6.361562338018691 7.59455858940567 10.38721867545874
Au 7.3450310983368 3.5837457592254 7.988977681558199
