13
Energy = -29.52813441 eV
Au 7.163682952936557 3.6240303534583163 6.644854684453814
Au 7.740269539086824 4.2766006668978855 4.134745192867207
Au 7.529947970442833 7.086517071975945 3.5965234618833497
Au 8.630456933589285 6.131399047849145 6.018706733967911
Au 8.36631817047709 5.310087395682641 8.582020873714267
Au 6.6871894085195445 3.2460214257504516 9.269208126088003
Au 7.337777758326378 7.707063761726014 7.821155819189907
Au 5.831141588736068 5.863785328428032 5.4125094906990325
Au 5.4346312137699035 5.3558832391258635 8.114821263251201
Au 5.649377810909913 8.577260778548961 4.666556782432744
Au 4.422655305698435 7.550800294393703 7.0560002460365805
Au 3.611673422041863 9.873003494680486 5.845783043032994
Au 5.968511832332933 9.890647788696807 7.202186789608549
