17
Energy = -40.53405676 eV
Au 7.9575868739577045 3.7938140574524546 6.322531800027578
Au 7.015648228342265 8.01929824150738 9.83178511370487
Au 7.823714083752921 6.319430862537028 7.6786442167855276
Au 7.679968476001611 5.581118699986676 4.190221217928399
Au 6.2434316801638365 4.1480699073024265 8.431187896319592
Au 9.918897359290472 5.7061393474374515 5.937892506984964
Au 5.898912617186686 5.688261389955084 10.630197149866197
Au 10.0934447204529 7.938227298785844 7.516827895685594
Au 5.561664094352577 5.181999324174536 5.9747914747804955
Au 8.508157081054508 8.0152668109493 5.255744310411967
Au 5.854291771062266 7.578811380741382 4.640165941025714
Au 9.34485124449694 9.385887248152043 9.675504745274171
Au 5.06474873294915 6.843215086750264 8.295088772770502
Au 7.602360007959474 9.421679336218205 7.578021059552551
Au 4.997093332517678 9.157624779556512 6.884251034704721
Au 3.496921282950146 6.999941250645861 6.017544022744799
Au 6.805999151257023 10.166620993863663 5.044189782727981
