18
Energy = -44.17881335 eV
Au 7.193936208293655 8.9641081907092 5.886274111008007
Au 3.414221185132736 5.7666674729767635 6.873019713158856
Au 8.653330618621625 8.289818256542446 3.5997407114729407
Au 5.97840473310216 7.712732954136812 3.7026184164332663
Au 5.367777359481148 3.73936183591159 7.136601699179783
Au 9.899420473183774 5.222915325541652 7.735654428358522
Au 3.2542253682286733 7.940533814483213 8.415229413352037
Au 7.770493675196331 5.6209001990064085 3.6172290964348797
Au 5.336047532633978 6.130474477081599 8.873727572567018
Au 9.03063248682035 6.852076555110334 5.816242345635482
Au 7.423720755531383 4.467539103970303 8.709251105652804
Au 3.280431739903068 3.5935597404101847 5.298862766881744
Au 4.449459212023944 8.23585670445616 5.875403763968088
Au 5.833177265642319 3.982890560018981 4.395096374457757
Au 7.979951266718322 7.171156754701246 8.381042695894498
Au 3.9751919626233216 6.042354134001924 4.1512018037404825
Au 5.864881487771079 8.784845734483033 8.2101008487078
Au 7.983068456244802 4.1705799736113605 6.011074920249253
