19
Energy = -46.64565023 eV
Au 10.44297762899888 8.393293934728892 8.900736080729404
Au 9.458086298790292 6.990794407786455 3.6808753256487816
Au 8.496669260618809 9.323354344286448 10.46510003230874
Au 8.508637191906505 6.531898351806126 9.977099222366506
Au 7.852971293626337 5.056366376269023 7.65355751596686
Au 6.254245708157419 7.8414228094119665 11.020029932177776
Au 8.335603459501854 9.617069025917669 7.588511902062263
Au 4.536104248216972 7.825340307004959 8.88127139070987
Au 9.872982954803616 5.128001683300036 5.699094506787979
Au 5.7390832397847555 9.38662163895851 6.6615377334785
Au 6.167949832554858 10.045409320896887 9.247536106794454
Au 7.321284209972139 5.830674272386145 5.019526047734406
Au 10.482394009604105 5.7295419965976295 8.252782136637666
Au 5.330869758940349 7.631452517829738 4.53700599522611
Au 5.966367236261903 5.5527251624376674 9.522703740567184
Au 7.813329960815635 8.75240291651481 5.014931607498391
Au 10.083707669084136 7.856405192794757 6.282391565153459
Au 3.3806888469273035 7.916871031049273 6.4702573000469865
Au 5.350552639162791 5.976873487579015 6.8739645571906225
