17
Energy = -41.15699936
Au 6.8769535853031405 8.875218460643982 8.83636680962422
Au 6.87695353930308 8.836366820624095 8.87521844764405
Au 8.83636678262414 8.875218456643992 6.876953648302997
Au 8.482448518999945 8.482448590999871 8.482448568999871
Au 8.836366785624161 6.876953662303149 8.875218441644003
Au 8.875218402644078 8.83636680062415 6.876953517303077
Au 8.875218400644021 6.876953575303107 8.836366793624265
Au 8.85542207620019 10.814581619069193 8.855422101200217
Au 8.411830297232775 9.297968240240868 9.297968241240708
Au 8.8554220502002 8.855422095200172 10.814581612069183
Au 9.297968475240753 9.297968514240678 8.411830039232676
Au 9.297968583240833 8.411829932232811 9.297968625240653
Au 10.814581554069155 8.855422077200155 8.855422056200123
Au 8.855422101200215 10.884307630856357 8.855422101200215
Au 8.855422088200282 8.855422115200115 10.884307622856506
Au 10.88430760485637 8.85542213620015 8.855422109200067
Au 10.75932200673517 10.75932212373507 10.75932211573509
