11
Energy = -24.30747897 eV
Au 7.57329576548061 6.103589444220724 5.724728197847389
Au 3.8101662519920203 5.775171260481028 4.411158085139902
Au 2.6425306939392676 7.944267007935381 5.592135309758287
Au 4.461685695081542 3.592391552359771 6.054800796345599
Au 6.091843905088421 4.391697710328281 3.9048981283645094
Au 7.211980849577035 3.339707923312786 6.296492718737177
Au 8.79568752860477 4.1649347132498615 4.231129168578609
Au 5.860664964789366 5.267036270911876 7.782906821584825
Au 5.277768095696043 7.496692698502349 6.22213360827575
Au 3.190300819016712 5.797777940215517 7.182510542568254
Au 6.09016979811244 7.1328277619380716 3.603200990177917
