14
Energy = -32.24284333 eV
Au 9.720416228647807 6.802900544694555 5.4318024445801045
Au 8.94670531233094 5.058593073252784 7.280551778397013
Au 7.690163955024319 3.4471306539958384 9.007671460875576
Au 7.0018507222831525 6.027998425521875 9.29227550230769
Au 7.987419456489781 8.021315158383073 3.5112344416178303
Au 7.857613421503826 7.636218326252741 7.159660029479899
Au 7.235454232804783 5.732448990671018 4.831468677753522
Au 5.998332852948406 8.564499673957274 8.889134093077097
Au 6.50190786962118 3.83730986155399 6.5803899417487814
Au 5.889420118062202 8.264204219441298 5.100793780630322
Au 5.123688201343059 6.524922903389731 7.33744317345681
Au 4.581818859483079 5.131716622363424 5.106954036117775
Au 4.479832458037087 9.662116218057193 6.927340084011021
Au 3.2684487655117507 7.479438630894014 5.577852413780706
