10
Energy = -20.68288843 eV
Au 9.317515454693122 6.318824127060153 5.621756442495026
Au 8.975374975620937 7.4948222960811774 8.037081911503739
Au 7.231213683632487 4.783390281144983 6.15326412030014
Au 6.892917980981481 5.96072371041896 8.588796043924363
Au 7.301789165841603 9.450777204098484 7.017942944354829
Au 5.350656564408137 3.939924099562974 7.826526496194876
Au 7.639039764957711 8.290311419270383 4.598181734720095
Au 5.222191323385671 7.871702631074029 7.441057271785475
Au 5.557647518810009 6.70944002580553 5.005171513184997
Au 3.5274238195237664 6.025162024564941 6.577130782166887
