17
Energy = -40.76960539 eV
Au 10.137026716926355 9.203173453083938 9.512777803601765
Au 8.885960972193528 9.336280748415135 7.148020897245446
Au 9.399002317649767 6.87450144642733 8.444408086273182
Au 7.434118371954361 11.50119209067358 6.302956780868056
Au 8.744742516400173 7.024474240451567 5.612401856384053
Au 9.949610766929322 4.817956826219982 6.700667664057273
Au 7.495631747477309 8.596512960695526 9.662533721663458
Au 7.590369590763162 4.476240781478565 5.171416857528101
Au 7.033351706933351 6.018497497946272 10.335716948715767
Au 7.045572764837809 9.159351152471327 5.022359280933907
Au 7.579284192641091 4.817593529355249 7.960374766167026
Au 5.261855159794973 5.391350562683741 6.382764850052624
Au 5.310819808652066 7.301782337376034 8.565658206754073
Au 6.312092454253835 6.703289717103019 4.22773637911148
Au 5.979169490145319 9.766169788111164 7.704435163445617
Au 4.576000520173707 8.058691929326372 6.034658917281123
Au 5.0462853241537875 4.585255431655778 8.959951350034954
