11
Energy = -23.9377698 eV
Au 9.902457945845848 11.39615642408804 7.995031861352611
Au 7.695920214322521 7.467894019503946 5.129448155401927
Au 9.033823705881982 6.784351944085274 7.456644940917197
Au 7.594949396611239 10.20901435260943 8.935442193863313
Au 9.999184851272439 8.829370359826466 8.99130314790707
Au 7.7926498057590505 4.948213777091172 9.080391526786832
Au 8.847728759578365 9.521988407300244 6.3893213248564775
Au 5.378877746995848 6.295266684061905 9.020766099026643
Au 6.56447590540833 5.495274719419829 6.609520192391958
Au 6.363734248257168 8.299490830495566 7.411137013610797
Au 7.6823974516926015 7.6091785131437595 9.837193575510957
