15
Energy = -33.72496673 eV
Au 4.60565730437341 6.01591950389825 4.458116786190502
Au 4.9303093089414745 8.729855742812854 5.2078944454031255
Au 5.246285504275336 4.325223697648083 6.816414449002436
Au 3.5492852785259523 6.880461911219654 6.833190747822006
Au 6.591902765525189 6.568458454425243 6.561909735088672
Au 5.294778401324286 8.83061533446342 7.907080492018715
Au 6.98094008474835 4.714251026547117 4.227093083210884
Au 6.941967324727389 7.509865491137208 3.8403533873735647
Au 8.382111937837385 4.177596194585345 6.525835132658505
Au 7.842460181952132 8.880657803123816 6.332521464305527
Au 7.355916070396151 4.930656372684583 8.922294960828058
Au 7.382091355891389 7.716621021186756 9.263706524283547
Au 9.276833876597612 6.615744475402957 7.635966331589842
Au 9.17522173329796 6.34979594667514 4.921840115695749
Au 4.966686886048262 6.276725038651874 9.068230420499942
