11
Energy = -23.83965868 eV
Au 4.407759304635387 9.339503434453983 5.740576488888964
Au 8.348636922333572 5.099830143006674 9.774206705162182
Au 6.365806373877633 4.997810486079374 8.209986278344855
Au 4.011340133734802 4.360815233052505 7.167598529467817
Au 4.875412098971478 6.959288345858343 7.02840964556653
Au 6.935479700973794 8.869077855700914 7.05581850276194
Au 6.58196700560028 5.5472213744872425 2.916716915542662
Au 8.462962230414215 6.7954260291500255 7.625071268321165
Au 6.281236045324676 7.638360609332483 4.726593260842342
Au 6.055981142326287 4.968676511241083 5.494608566683483
Au 8.51989562568346 6.1933608693752715 5.029860265990719
