10
Energy = -20.87306899 eV
Au 8.364414855173269 4.445875300373104 4.911845051648207
Au 8.17640502202315 9.535197436627667 5.721270026576182
Au 7.318754804323144 8.01619374266913 7.781939828339403
Au 7.5027048384945845 6.9956093506220105 5.107391046339452
Au 8.046180707711624 6.279107376203959 9.707918513594922
Au 7.400873140555719 5.173074978154479 7.327941214318624
Au 5.485618107542686 8.745418791318789 5.842416262955475
Au 5.377943084437677 6.329002044090125 8.810910217791582
Au 5.617592432420281 4.973304172555725 5.225996939233972
Au 4.003606103914901 6.641492024644362 6.544336597404843
