12
Energy = -27.1208489 eV
Au 5.2493026621797645 4.888788708293613 5.110717127643863
Au 4.350020860814066 7.28060924270472 6.244208467194314
Au 7.860597419579742 5.332955756235183 4.027839571680955
Au 4.182022386788469 7.83152212356808 8.913895096756494
Au 8.130359004415189 7.623020209437676 5.554267236996897
Au 7.603612940844951 5.249592585094221 6.798565506165173
Au 6.6632505534743744 7.798708618464939 7.841948054132826
Au 5.790379778880175 7.298689786100812 3.963444391829619
Au 5.967573758980811 3.0781752612776208 7.07868082504351
Au 7.071852361131836 2.8039292460793854 4.608574721483123
Au 6.047084369603854 9.489538726000376 5.759001097680557
Au 5.143690320345558 5.401568908868054 8.160319761102713
