12
Energy = -28.64348263 eV
Au 11.906373875416637 6.196159883583342 8.9665787225
Au 9.532660166937436 4.8713514790686085 8.9665787225
Au 12.141400274075556 8.867216328284515 8.9665787225
Au 7.392389746014464 9.05885664365772 8.9665787225
Au 5.104814503424748 10.517341207744721 8.9665787225
Au 7.227962328367852 6.2811469148003 8.9665787225
Au 9.640179267421301 7.608172561605101 8.9665787225
Au 12.222371130954045 11.559983388626513 8.9665787225
Au 9.92035807456073 12.997720092031852 8.9665787225
Au 7.486364088849686 11.809799204520822 8.9665787225
Au 9.795114668681228 10.291773990382211 8.9665787225
Au 4.994673119816254 7.796810700004678 8.9665787225
