16
Energy = -37.1938528 eV
Au 6.091220327780469 9.382266687106318 7.157232176634772
Au 4.042231098570335 6.370619095606229 5.436483294358653
Au 4.19229424517445 4.661969178524155 7.606965856130668
Au 7.166236606968101 7.831202425920053 9.184249890329601
Au 8.517847691697398 7.230417080915039 4.481344228308824
Au 5.363619265632918 3.8028562242830883 5.2688610666844635
Au 6.209786791428568 5.9104263205940075 3.6682305024835604
Au 8.127448133575578 4.627533964047754 5.346815941339158
Au 8.586352797471319 5.6168002770540575 8.107107195700932
Au 6.576562902975613 6.615917212438606 6.509929863668371
Au 5.603306230105589 8.486113666801764 4.540754723900134
Au 8.958461903791473 8.18268745974909 7.095316634808726
Au 7.934906432759639 9.848321378431939 5.138418312327345
Au 6.894073724322147 3.508385166867448 7.5441733862267215
Au 6.086618482439475 5.299867377108108 9.501905908598513
Au 4.527293813171979 7.342969103404744 8.20536917397941
