18
Energy = -43.72463655 eV
Au 7.874538198665848 6.287643946394246 11.739427847240183
Au 7.170484030378247 10.660510087178116 10.651109769502295
Au 10.877196878203346 10.377869189363938 7.740940037616112
Au 10.940177806532464 8.223188315695632 6.032477585047344
Au 5.9606306171299 8.292190003247585 11.395076272397102
Au 6.064714153441172 6.1428592262101285 9.66160618838673
Au 10.932705210071694 7.662069051447934 8.663135428447362
Au 6.017088283553054 8.855943077862799 8.759479342350307
Au 10.389235709607892 7.229920214191725 11.22479194362236
Au 8.848292560113107 5.812405175627882 9.260956778425768
Au 8.366455697608247 7.597014460665917 5.085341351211769
Au 9.727817002603219 5.869822748355375 6.751713652522753
Au 7.018887159204839 6.674395052923661 7.2369189328106405
Au 6.518340847211355 9.302639345570377 6.186047967882553
Au 8.049290079984123 10.74630694977504 8.146438985567997
Au 9.871464191470537 9.841955934800337 10.14157250785266
Au 8.537206719962601 8.965309289867385 12.313307050885935
Au 9.045979414257525 10.260871387803805 5.69235521161955
