10
Energy = -20.62919029 eV
Au 8.259379094662188 4.124675704056405 7.06685493369379
Au 8.484172338804537 5.16716331483197 4.538272584436277
Au 8.145455878856549 6.796695114648163 6.742687439999771
Au 6.257910291581673 6.461561271662611 3.2459603832859454
Au 5.742125248922148 4.139791381154277 8.27466757752213
Au 5.60572311504222 6.840157511860383 8.10830688199836
Au 3.488616224571607 5.441521458583285 7.126969690801965
Au 3.849900602969397 6.5703536711985615 4.638260166693882
Au 7.050251911445249 9.142410992438167 7.652805439906203
Au 5.873322696320833 8.200577430019331 5.3365440076292385
