18
Energy = -43.16132336 eV
Au 8.375311806271329 5.2401077130907385 4.754888413972035
Au 10.585994921962365 6.353282987707473 5.949501075424909
Au 6.104594381570638 4.607352033122379 6.184346172438213
Au 10.506749438294667 6.561149183724416 8.716671691127749
Au 8.429883149719672 8.059515391588194 5.774722940435298
Au 6.203579956834117 6.982588798599595 4.669527107931409
Au 8.309629429918708 5.438884538012557 7.547003925651332
Au 10.664511729163765 8.862844869114879 7.147884892030599
Au 4.061813701522539 5.319951328261254 4.29851123584979
Au 10.321743491856045 9.097662326390276 9.96009123414042
Au 3.7684160365531145 5.603796985828961 7.060984645715238
Au 5.92225141223172 6.243138637881844 8.615280710866777
Au 8.147339572733221 7.2421612128422534 9.800736501058926
Au 3.8075255033599595 7.9347789193262726 5.521710307855405
Au 8.263640714575539 9.581191900267424 8.21772726398548
Au 6.047922261463249 8.84242247749182 6.8266185559604144
Au 3.78731209456224 8.087192324126399 8.29544781864339
Au 5.9878302572108835 8.950928163191064 9.691139633484406
