17
Energy = -40.77506764 eV
Au 6.975551119197424 10.518680957234023 8.849426407490668
Au 8.276103944700294 9.11397138343792 6.882170454056792
Au 5.30125760238895 9.238955427968758 7.164525504194986
Au 9.138934313026322 6.588490213401962 7.346584281475829
Au 5.467813602010165 6.355316403694712 10.555175278692952
Au 6.64487540823685 9.677466018602356 4.754811523903459
Au 7.209857108289082 7.837305181928206 9.090754747097884
Au 7.993584240060669 7.25835205127972 4.875250566117458
Au 9.38066908133495 3.9499190274272586 8.002914238045472
Au 6.012038733839623 7.812862914671737 2.881156530574882
Au 6.274487833442238 5.278855640010014 3.767329522061302
Au 4.718454344117887 6.710465001112331 7.983219193366265
Au 6.976764969228069 5.119211265488944 8.645523255223697
Au 4.926302708144815 7.260083384445858 5.340892302425919
Au 8.074680655094435 4.613985913908524 5.677995400121081
Au 5.242088927471187 4.638353050758669 6.265395217203734
Au 6.844839554514823 2.738566649812077 7.345918161415559
