10
Energy = -21.5849431 eV
Au 5.076786105392455 8.106898656545185 5.799958608952485
Au 3.867804072291255 5.681102557376429 6.255422769196792
Au 4.107296181263312 6.631936289749618 3.5893636454985987
Au 5.6454529766857915 4.456199816689842 4.562191843829366
Au 7.67637736099119 7.606710505042131 6.663818008318871
Au 5.54857722885232 6.774614889644375 8.188713369691898
Au 5.937949423996021 4.192567886333409 7.317272357824985
Au 6.873250285673125 6.871280999287649 4.1195482173490126
Au 8.074866339571562 5.022653443270482 5.804955283639985
Au 8.072759857564627 5.537154788342535 8.579875683491112
