16
Energy = -37.65431111 eV
Au 6.4695428736327365 7.2309064404245404 4.164056024538752
Au 8.474753412234904 7.088040703945924 5.935431783910988
Au 5.94190415160494 9.857051541909302 4.739246283677032
Au 3.876318213119935 8.015711418720993 4.156905244184786
Au 6.787233083742034 4.740788370691939 5.099361896048727
Au 4.260323949730065 3.920396006647286 6.756943298650655
Au 9.245064672763975 4.460426729942911 6.153033387520156
Au 4.210911144567777 5.374900780365218 4.407439730391286
Au 3.7066222083053155 6.635839766688535 6.838838836666354
Au 10.476621574720548 6.513997003972736 7.663963269438484
Au 6.801012229544901 3.2065056615654233 7.404518434125063
Au 3.6342971417565955 9.303668096559665 6.567042629076669
Au 8.072502976509917 7.4347867229543585 8.707100383733348
Au 6.11495357780152 8.263166173440169 6.9670528029294
Au 8.50570747654508 4.748457383750804 8.827468369136897
Au 5.971041193376636 5.754167078376904 8.160407505928617
