13
Energy = -29.77671704 eV
Au 5.084382187833559 7.239428729253256 7.704252594723014
Au 7.879787265202494 7.14960364830044 7.825925079102145
Au 3.942600566902323 9.38036481021993 6.484219528431405
Au 6.368928791043408 6.084452698265457 9.804052403058806
Au 6.6413053260833586 9.349054973714964 6.528520459922123
Au 9.3337755832399 9.162130727373844 6.733672028718646
Au 9.358142136175784 6.705987389365637 5.555563455449452
Au 6.618400195009869 6.7956868275411395 5.135493373065559
Au 3.855969529496048 6.94984575806652 5.2664979117720225
Au 8.09017773077958 4.406372954062508 5.307364865843319
Au 4.915727402259146 4.539174146959748 5.130689967739883
Au 6.403594987318078 4.743356448766445 7.479640578321986
Au 6.384646010680844 2.4381057249857667 5.975963053687923
