12
Energy = -25.31065261 eV
Au 8.722550654325666 5.577230580507898 6.362433964558761
Au 8.098309042356012 7.51024124172927 4.541424155616247
Au 8.646935425662626 8.129928686380644 7.308603979409936
Au 6.907083954774828 4.888624185782061 4.445430912457609
Au 7.764113933917028 5.902497575005693 8.90658156987025
Au 6.6896178268480995 3.911867800959472 7.143791536039931
Au 6.2219688956658885 8.216818403700538 8.666024975867039
Au 6.437623650202467 9.20179681892649 5.978490331725746
Au 5.361260943811134 7.195408096239379 4.2119089788977515
Au 5.0229300893115125 5.61526716493898 8.580978660487256
Au 4.489442962757505 4.982986349361704 5.825556657193708
Au 4.396230668696184 7.545785551221934 6.748313777856294
