16
Energy = -38.16454069 eV
Au 10.212111597647416 8.901706962894535 5.336172149551047
Au 5.412358272938641 7.864344542942243 6.283879872691231
Au 5.4588859556736615 5.413819257937691 7.437348903333444
Au 8.113203973369188 9.805970055617616 6.921049871374543
Au 6.0117372664016955 10.331809541717744 5.2605125464316975
Au 6.587469283604802 5.780667612602114 5.024625209216613
Au 9.814446827092155 7.954009164636969 7.88721043340407
Au 5.55364296961936 10.030815302559567 8.041517116333813
Au 9.344523588632761 6.276640542041578 5.490323929022363
Au 7.645647265574838 8.253104917007349 4.53249648492806
Au 6.273610006347291 5.751355377900305 10.143700944252533
Au 6.8253421575396 3.4300129570071753 8.666198461968635
Au 4.656037324952337 7.662034028887118 9.032006718156346
Au 7.375635605588562 8.110626590418269 9.103541429679106
Au 8.475367741501715 5.694274986420142 8.457575605332194
Au 8.181784403971191 3.977505922509896 6.339303162056864
