19
Energy = -46.77291384 eV
Au 8.405455022929639 9.947632189908802 8.13589903570989
Au 9.045716555606397 7.331141370597818 7.814859338805807
Au 10.413520435650863 6.840770411011324 5.528086202833977
Au 8.66209926205402 8.999603272241984 5.53608123634463
Au 6.72774268837115 7.957265006750741 9.15130574569155
Au 6.150697812603873 9.340743973723724 6.7080535463258615
Au 8.69193021354014 4.905437537968972 6.555910993360242
Au 7.764657656970685 5.347466281666556 9.157300219293404
Au 4.467638114928332 7.687573726933971 10.632584416782183
Au 6.1611855514408935 3.785626181626023 7.473077365433599
Au 4.991799267351477 5.594038873547714 9.010131014080974
Au 4.07225045445877 8.006672599544881 7.953887606586274
Au 7.9516757661711885 6.579271485722478 4.34437308090235
Au 7.934807178957756 2.3458099935708256 6.026014133101301
Au 4.508698216672887 5.671895361947383 6.277257242586142
Au 4.06786320570958 8.237803632460245 5.2894692757952635
Au 6.4193100339527716 8.897485995025757 3.9534855071324917
Au 6.498564878298077 4.260934790721341 4.74083528142715
Au 5.278250352287745 6.382822373998999 3.6779801097560956
