18
Energy = -43.90196147 eV
Au 7.396976075407737 6.640698135439512 4.7566456461573505
Au 10.614301843080485 5.470180175297028 8.921917948617919
Au 4.9002669149598495 7.821752420851516 7.844864267106163
Au 9.14872057916153 5.77529565666305 6.66095012448564
Au 5.8227661839556175 8.965245956266005 5.5353936066760445
Au 6.452294378663957 4.983107245430598 6.741311747212006
Au 7.767339707089545 10.892713912122533 5.743067307271929
Au 5.215761414699318 5.337126827667702 9.202914783378448
Au 4.7088567690478085 6.447283487565436 5.238612952988511
Au 7.902161428899671 9.079597816575747 3.632654894649265
Au 9.05846219300837 6.641036366640316 11.01367320005034
Au 9.522054577967312 10.537069472390373 7.820022411048819
Au 3.2401194724561577 5.724820710333286 7.4146029050342905
Au 9.219883349802513 8.42813296885162 5.945958891857085
Au 9.367915788084257 7.920098171360106 8.63363035520902
Au 6.749046547182956 7.551615530471704 9.898296300928013
Au 7.000943269641637 9.499423175478228 8.029130860537434
Au 7.9065578163502135 5.018102275106488 9.055765753390634
