12
Energy = -25.64067888 eV
Au 8.66380044162006 8.334996579159903 5.41568713328377
Au 3.4034354304987544 7.177887961295131 6.3174794257081075
Au 4.550151461219126 4.909902227793713 7.226259106579718
Au 7.497481182144286 6.269039262364746 4.133640621057712
Au 8.875749808148006 5.882133110280848 6.51717864175313
Au 6.831426222479113 4.045046272290311 5.7486058547345795
Au 4.831771272533279 5.685097714220304 4.582384034287965
Au 7.052684834371128 4.994693473186601 8.401733195159695
Au 6.241190933556491 7.3921045020632565 6.679636885320752
Au 5.09479038690535 6.657682841971752 9.21559740812622
Au 5.623286038651738 8.206699281726308 4.0111350728294655
Au 8.272325721977555 7.382810660192758 8.688756583925155
