12
Energy = -26.7370492 eV
Au 8.045458845858068 5.7354825795036755 5.6046735150086295
Au 7.775280623810404 8.431127568749503 5.36057776964499
Au 7.940107131624876 5.383680525018178 8.294407816004433
Au 6.5439527951435394 10.607945580757626 4.58752175086276
Au 6.300931902460326 7.2119245140321295 7.226030755853958
Au 6.913847151017084 4.398162283008438 10.484483110825693
Au 5.083116355143308 4.978675588658926 8.565951422015228
Au 6.987414555219287 3.890547161963757 3.812683523480188
Au 5.582063524153062 6.157527891962861 4.104515631219751
Au 5.680409210399896 4.091035482230589 6.136254665591781
Au 4.889416448540893 8.524936072275992 5.087884620986377
Au 3.9149055417496696 6.259313399293672 6.383708888459671
