12
Energy = -27.10254842 eV
Au 4.905428610856683 5.276921986198105 1.8385391100869544
Au 3.1297440492768027 6.962104203751749 3.0392133524969362
Au 6.107503113407199 3.689221380436849 3.6519245818544475
Au 6.056099110809026 6.566440017707376 3.9579374198619792
Au 7.963303351590214 5.0524532087214515 5.20925614639103
Au 3.7460935022783715 4.812370614395305 4.618790883851904
Au 3.965152764410044 7.5331080248962285 5.534587184301814
Au 6.236527261028657 6.60703935562714 6.753570582997503
Au 3.6549093209844257 5.404013732249994 7.296356290817449
Au 5.656522654614624 3.7180323051430144 6.355780742857255
Au 5.701147266417374 5.194156975478294 9.031943957624385
Au 7.936995761864637 4.243564962932416 7.7715265143966965
