12
Energy = -27.46992004 eV
Au 4.696424042517851 8.193943633375039 6.82344998289213
Au 4.5741107004734385 5.553660322238337 7.8529304307358565
Au 2.3394181940271133 7.092496325134486 7.4446124287996955
Au 7.098612958699993 6.19679701603859 7.063208945424919
Au 7.1609173880852035 8.905342518695994 6.250909814872836
Au 6.129883112894903 3.655151452714282 6.811093072392789
Au 6.0910937844699635 6.961929815631811 4.531700525722347
Au 3.5786711625282783 6.120006521225901 5.206389996043653
Au 8.880916010309729 6.966058120886974 5.037599294545265
Au 5.3065000429376425 4.390993868829014 4.138797474123696
Au 6.787729154313152 2.1338401711772508 4.6350663157068155
Au 8.045549485002962 4.482874361072654 4.856002362273749
