15
Energy = -34.82253006 eV
Au 6.281385676149901 4.450586329598243 6.242400241028694
Au 7.575674260932154 7.520317528571871 3.294853477190168
Au 3.8705594101854635 5.677715222299698 5.551951721304701
Au 6.714485446948917 4.452843995180872 8.906055640278694
Au 9.370258744790569 7.746347209354375 5.538970387104765
Au 7.5212824423511515 9.784431147111206 4.772750186138311
Au 7.252144118622247 7.147304145120139 9.54429693505129
Au 4.802027354080615 6.09528522323547 10.20803907631776
Au 4.0188316442167045 4.63229480708148 8.025938322951108
Au 5.778023520807597 5.505151864773294 3.618011506364725
Au 8.465351774981182 5.877193121265519 7.356432663127111
Au 4.931705475509779 7.259158376129379 7.753489408138384
Au 8.416026106717924 5.299076641045379 4.682799746521765
Au 5.562543962803294 7.865718545101486 5.177235971567722
Au 7.32905013558703 8.550310663251325 7.239130402542443
