19
Energy = -45.80946205 eV
Au 4.58956656924193 6.384519775806244 2.3705225950580813
Au 7.116234899510105 5.169590242915711 2.8883089760346583
Au 4.83702038863913 3.6536850934806497 2.6543612813860253
Au 2.4712506330636286 5.025169807303726 3.525646027483134
Au 6.384691653283399 3.2902332240277077 4.879922792468227
Au 6.487143473012819 7.654835820052459 3.808359435537412
Au 3.6315018620106785 7.140172092192372 4.8791721813681415
Au 6.082469547429242 5.912185984070663 6.11595158539056
Au 3.6081933567591293 2.865961570924707 4.954771658851827
Au 5.387113531687669 8.836637234825451 6.039025313814991
Au 4.676664147188024 3.6636289323630744 7.293964924128322
Au 8.558518451214784 5.120529041390047 5.191565600544281
Au 8.156196463069563 7.877159337941676 5.951222430883664
Au 7.464530427597107 3.5857962360931896 7.361387559302271
Au 3.9897321673112156 6.84768783396647 7.668789840265087
Au 2.4770630728030767 5.028206186349052 6.32341337877555
Au 6.569957895601828 7.839463073162381 8.301476098396337
Au 5.978132325651215 5.286033742384357 9.039900043155656
Au 8.709113112036142 5.993598747861194 7.9273322542668945
