15
Energy = -33.90040564 eV
Au 9.864656909537091 11.307400599307535 8.374378220649241
Au 8.086679230578488 9.949141913379801 9.984692655600476
Au 7.123953143142326 8.673034433986931 5.417834208058409
Au 8.640691244991043 7.215618659876055 10.50049867831202
Au 6.096058997736914 4.464394109893651 7.535752432517599
Au 8.543990589445002 5.181871521123939 8.519560873564032
Au 7.729895599574893 5.918716710895594 5.8600758618045425
Au 5.330458802611192 7.041649471853334 6.897678796154236
Au 7.371445912998799 10.742826374349837 7.3417590843543135
Au 9.712944947770712 9.510655374304461 6.288070034702979
Au 10.490120614475936 8.715021428564492 8.962337309248186
Au 6.120737865358771 6.360001011686509 9.543494792295332
Au 10.218945376870973 6.7918293382792685 6.89068310464779
Au 5.623873183831028 9.083860300652509 8.840596324030432
Au 7.931233527488841 7.92966469825835 7.928273570472281
