14
Energy = -31.87868836 eV
Au 10.247108889287935 7.469476317178543 6.429004330489007
Au 8.547495604577131 9.44883877185976 7.093651073907176
Au 6.964987461222653 9.885266674413723 4.9472742740068965
Au 7.631135315547226 7.301391870623812 5.145986009552541
Au 9.667366914315204 5.604274070598761 4.492209216910992
Au 8.75684446969991 7.396144568493709 8.78974010534124
Au 6.975428574134614 9.766983818652603 9.38064754098705
Au 8.36723129994115 5.248102455058366 6.866651364289839
Au 6.150468044602557 7.24286302407124 9.786572853029194
Au 5.069786501200834 6.398963946669405 5.5429346769205585
Au 5.870131455946826 8.494015190816102 7.162804995722017
Au 7.806071679191821 4.93894250722371 9.636963600618722
Au 5.90118495989978 5.3221718850606905 7.8467481965636585
Au 3.8107900653861093 6.984086192613147 8.362934503439707
