10
Energy = -21.59669565 eV
Au 9.151215114125652 5.797353356513289 8.015345248388916
Au 8.49505970083733 8.544848435668856 5.151702903701467
Au 8.105759935231365 5.802059777338017 5.434327484008734
Au 7.235474977969104 7.774272939366766 7.517207105722506
Au 6.6687011737382615 4.995752016273257 7.78853291931627
Au 4.595001878406054 6.898577704598484 7.266362022181572
Au 6.032524683369685 7.705190239903577 4.912302942793615
Au 5.465026381582382 4.92681494995376 5.183896295962487
Au 3.5497267302839823 6.904094138675078 4.685314684851745
Au 4.206167810130189 4.155694522500707 7.549666473864732
