15
Energy = -34.11663323 eV
Au 9.712944059500732 7.145483530566299 7.456342803059385
Au 7.8092971015476405 7.334353354287298 9.601317638215924
Au 8.82651337031902 4.621809325924209 6.7837787865440795
Au 7.929655084056495 9.301263692180251 7.50374639983595
Au 7.565800583308404 5.2020802442604595 4.4137497315830005
Au 5.655417077670332 5.685436147698627 9.102213264890937
Au 8.379698168220655 7.832487761918779 4.990473266607051
Au 7.011846446480062 6.710175137872695 7.032621606020221
Au 5.403491017730648 8.933266275082849 6.5140457135273255
Au 6.050180978121324 4.100884461809815 6.591958593708031
Au 5.704867367668346 7.269736787051326 4.341193900980151
Au 5.000231818716257 4.589369706238455 3.9413290530140803
Au 4.1737145417494235 6.4739895047818985 6.884411619401365
Au 3.391356302046031 3.9990333273540317 6.115672678534963
Au 3.079446867966284 6.548823515273843 4.426236724031412
