10
Energy = -21.73817135 eV
Au 4.465877812703153 4.749881595114821 5.273955675729043
Au 7.182357327540912 4.964037835941833 5.462744707102109
Au 5.477966444893832 7.227988027249237 5.018965015753686
Au 8.202363519562162 7.29743740563557 4.489298545254411
Au 6.937023618045231 9.581792161728277 5.2435784382856925
Au 5.260224200392733 3.2330989678983704 7.458141758228878
Au 7.496108182857867 4.5910291689179195 8.17208324961485
Au 5.140432662980375 5.99628045603022 7.671766945481174
Au 7.750692297441541 7.119020118823665 7.198721784396208
Au 5.49608796443238 8.648568058058611 7.419877793278219
