11
Energy = -25.50857366 eV
Au 5.9050634208181645 6.509407600545457 8.934923238
Au 12.87210409843229 8.165875840924777 8.934923238
Au 8.561772241119872 6.194295286952125 8.934923238
Au 10.741330511217726 13.024876021932455 8.934923238
Au 6.332442506739943 11.192127096510442 8.934923238
Au 10.168608924623518 8.446251418418852 8.934923238
Au 11.808771051065744 10.618887642105637 8.934923238
Au 9.016548583158652 10.9904498023348 8.934923238
Au 4.776556231693351 8.969886194875615 8.934923238
Au 7.488527610867152 8.731159619024726 8.934923238
Au 11.232057975272097 5.942878998614587 8.934923238
