19
Energy = -46.26189789 eV
Au 4.974188399850832 9.333452002467308 4.343682720902565
Au 4.748624032707169 4.425946381341813 4.8850686383927915
Au 7.5616138522017575 9.00659088382736 5.07743196704667
Au 5.2183159147131795 5.547595649481834 7.319804554444691
Au 9.789840448142527 5.321198465550017 6.5848020701659
Au 7.328221644187091 4.607867786059449 5.757131389964898
Au 6.010036724950898 6.413513474253776 9.770237770685705
Au 8.765358464306996 6.646048497353883 4.411672412399249
Au 9.436369123098698 10.74436320997951 5.962122251694008
Au 5.217022255722355 8.434400139157981 6.842328687241856
Au 8.223322787334338 8.223564963896246 9.32561741890118
Au 7.394290879614222 10.168747372739741 7.627610756333034
Au 5.98659358946301 6.796860592069877 4.646799724397012
Au 3.6427035579387175 7.311296391492266 8.765474638271398
Au 9.550272399161203 8.117795466468825 6.80488179686093
Au 8.433932968046504 5.965195176191503 10.883017477673556
Au 5.645966285438188 9.17758351378999 9.438413116051644
Au 10.336760982408768 6.535996851551849 8.927535306010027
Au 7.815020168129945 4.829344027801505 8.434006479511789
