15
Energy = -35.15688978 eV
Au 4.942415625438384 9.487249526615608 5.988382693826125
Au 6.907432826181085 7.315002476704774 9.99954990060907
Au 3.7445817173488622 5.115783925718121 4.790821867834672
Au 3.8705509013833077 4.372231010581665 7.447554730192678
Au 7.024138790994276 8.084552415543927 4.7577438436708
Au 9.431256363101053 8.154405095425298 6.185058860038266
Au 6.935845961962489 8.44367668079141 7.553395953677567
Au 8.328925343438287 5.76043978572281 5.418528456088562
Au 6.272757178436073 5.197954778501132 8.466154033217816
Au 4.774716081469718 6.85991351576388 6.736586694617365
Au 6.258170975708696 5.678909812212218 3.5964632510073207
Au 6.169059077547299 4.119678875843756 5.87892673205895
Au 8.785606890793012 6.4255441464363425 8.186516878518981
Au 4.323595238886904 7.656118571920676 4.033445539453811
Au 8.529729260789214 3.8328466345852608 7.350027333353649
