14
Energy = -32.3665564 eV
Au 6.78094437957424 9.515983958704439 4.890804605859175
Au 3.6729688761671375 6.607158336302448 3.973341040806129
Au 6.429283244860324 6.777665021030035 4.153472163121025
Au 8.113143779750894 7.144040214652929 6.207143719972054
Au 4.710975601818801 8.203596656958526 5.959294274129789
Au 7.068574112036908 9.27199289982855 7.581329379037835
Au 7.490414501724429 4.618877414603369 5.540670138613394
Au 8.139947662234304 7.1548393547763665 8.94560421795136
Au 5.126210216819498 4.273838102205866 4.042635761617603
Au 9.104730154391977 4.850970357374484 7.8696989228781815
Au 5.412145895210969 7.194775115101296 8.43513460768791
Au 4.5411952157994255 5.501972993096846 6.45056690196179
Au 6.457830188839067 4.641423649913521 8.22067193367379
Au 5.547853462366425 2.829277217816583 6.3488818387153705
