13
Energy = -29.33740128 eV
Au 10.034269832136049 7.475912672257692 7.896876284193403
Au 10.019558728239657 5.531893033006543 5.429035822118785
Au 8.656561393955606 7.914960925133955 5.55897429630854
Au 7.407844421303881 8.230957723244435 8.010423292054691
Au 8.29071959709099 5.422899043012645 7.524919941118463
Au 7.391683678103278 5.61677788567788 4.677994958615599
Au 5.931412289648117 7.999918005361433 5.506821168152026
Au 5.970443403338215 4.275101801194514 6.65913690875484
Au 5.980254774486896 5.999549958013448 8.863594935807319
Au 4.658109078311982 8.281418624623736 7.941697007214579
Au 4.640853889283172 5.707210693867192 4.668118436457748
Au 3.0991326680674622 7.741720086436343 5.724381016991923
Au 3.7021696749064557 5.657286018945473 7.367151853507145
