17
Energy = -40.07114094 eV
Au 3.4281604031031234 9.25449394397674 7.383346369896193
Au 7.877220436925076 9.18269346337731 4.5065293834799816
Au 5.5906775333664385 4.428461991665548 7.081039946453827
Au 8.230315193799358 8.651113499261001 9.574075604415848
Au 9.39000099252539 6.0909693589360385 8.693620037036972
Au 5.811831512324795 8.022196387795688 3.1689958684161463
Au 10.592393169861275 7.734841964799982 10.34898360360639
Au 8.053234585630753 9.819163813492287 7.095576399938166
Au 8.40728955582971 4.654720012915546 6.593998983264095
Au 7.382070808973648 4.252334721995751 9.196545578391072
Au 5.633752584612421 8.52484109827419 5.926160502917243
Au 6.562517159492732 6.742700331761518 8.364617882526174
Au 8.725469014836385 7.31889476565 6.302730371654833
Au 6.104691154649438 5.999767984116922 4.8769838588777175
Au 4.059304158569068 6.616448104953374 7.165688311098819
Au 6.843241512565565 3.4064793507632314 4.810288655467925
Au 5.802709054213578 9.394698911733464 8.671444885900902
