12
Energy = -27.0923121 eV
Au 6.7202522060328365 4.141125322284329 2.4300058955701513
Au 4.13442174384891 3.997802371169325 3.125480281640363
Au 5.631246695891331 6.338774071604006 3.681670894677465
Au 2.7504227609767145 6.228582285487949 3.7452482212451734
Au 6.257623836564201 3.9222970015466476 5.102011125742999
Au 6.972152711337641 6.874672649191454 5.982299524756942
Au 3.5798055365382377 4.5347979509514476 5.804558614730014
Au 4.224276229484903 7.328592780796224 5.807185740485903
Au 8.263693732751154 4.578561480756752 6.820434776838537
Au 5.537181056533661 4.970240347535424 7.565920171241947
Au 5.254308920025695 7.622194221447244 8.288729377517365
Au 7.69092731121534 6.478672258430104 8.662768116753654
