17
Energy = -40.91908574 eV
Au 3.444703751404488 7.922431942954315 8.077041457899973
Au 5.164663872837453 5.8035848041183025 8.12808633779324
Au 9.067349897332488 6.637475165651402 5.965958165662858
Au 10.50956248900205 6.665877764995115 8.394394112184619
Au 8.752879212149086 8.669050201313153 7.90641162217779
Au 6.161843833721258 8.294477353149682 8.890133217549119
Au 5.1796826369396625 4.200367925937343 5.694260550279103
Au 5.205716904133401 8.839190070095958 5.965596416117548
Au 7.879377850880431 4.289871727622297 5.224544446321168
Au 3.7579431338149365 6.4933037795864275 5.743136802925
Au 9.454357457034803 4.288756617077423 7.596843177759318
Au 7.042987286775747 10.608148115263726 7.138633848118126
Au 7.793759889849882 6.146108789009289 8.820044701183253
Au 7.855265989263 8.932910341949382 5.154187325350201
Au 6.440303593482515 6.598151898438002 4.925904453290791
Au 4.5675924884560235 10.406166039379613 8.228948131586586
Au 6.826691761459741 3.6779602084961636 7.880024329288456
