11
Energy = -24.07263042 eV
Au 6.430587086124942 6.317737636711951 4.016475958544605
Au 6.1123196322177415 3.7080803594867127 4.720746661114818
Au 9.0296081215133 7.090721837598284 4.367127094241875
Au 8.127229215740885 5.1846044721988696 6.136163128831302
Au 4.647764819094802 8.287457194218247 4.988977419940517
Au 4.193317977424337 5.530807028515698 5.373144773528832
Au 7.1678222099548 7.928339016974534 6.181837093832423
Au 4.920499296512921 7.1516837630425165 7.540246033784091
Au 3.2970954349502155 4.9870781337657695 7.904786004393492
Au 7.388947410449382 6.649377657886128 8.572575849612942
Au 5.946988946997051 4.426293123504468 7.460100133155746
