15
Energy = -34.83175791 eV
Au 7.340426608747203 4.065781487604643 8.627781294648633
Au 7.8504975117263855 6.005273318698108 6.80960669003153
Au 5.124711693381896 5.76402068000172 8.11240203706062
Au 7.2250589050786775 6.651933423211864 9.630856901142954
Au 7.723366021111521 2.27667099642949 6.709506859670625
Au 6.391825434508547 8.232866915938141 7.5536529804368024
Au 5.639661037567942 3.8981367709867967 6.226725973878621
Au 6.791477281379087 7.566773760517075 4.88793118728428
Au 3.792367780616937 5.789489609519168 5.760760899209012
Au 4.352291741949261 8.591292514174867 5.897392672097896
Au 4.387234744179079 7.20470455624137 3.3785173710585252
Au 6.739574221414996 2.457241237477259 4.160726579957111
Au 6.734569381065911 7.122662018465129 2.1650805330609235
Au 6.112674752743352 5.018012924054254 3.76661119683845
Au 2.111919794382871 7.6727966965340535 4.630103733477731
