18
Energy = -43.36882404 eV
Au 7.792967921768003 8.674535569054536 3.387519157005998
Au 9.076312225765424 7.594421094031457 5.459298363273368
Au 5.169425154891563 9.434671373166326 4.034078834571896
Au 7.070408812827057 9.472913665354097 6.026803394028162
Au 5.954690829239967 6.788263410259269 4.206400341749034
Au 7.880161653649964 5.066859938471893 4.955130856849323
Au 8.427704442489567 8.236583844593104 8.157336888819534
Au 9.743575642906674 5.920627536132559 7.451375430891882
Au 6.588194315487815 6.567460993726193 7.0085310614797205
Au 6.4983829133640665 6.822159555543644 9.803744009375254
Au 4.195952049097058 8.141344577991674 6.183839037063552
Au 9.02888340429608 3.319731367731501 6.720174223300454
Au 5.771945701931249 9.114233354141568 8.401365706192703
Au 6.267206306044587 3.435973393124952 6.544218365192421
Au 7.69522408710179 4.617607326460692 8.76633859978038
Au 3.867549971945294 7.108394026681684 8.67021310317584
Au 4.366679510507199 5.37076357896585 5.990709901017288
Au 4.90429957464281 4.606170713204124 8.63498898796201
