14
Energy = -30.99398005 eV
Au 5.14264800668401 8.539855862603732 7.2679427420369045
Au 5.094105967919915 6.223957307912412 3.1271527862170547
Au 6.704959823754173 4.295577625455055 4.127993954762261
Au 5.10614847768138 8.911384981969332 4.593871548102659
Au 7.371154079889954 7.552539840737251 3.8521477656489287
Au 4.358002790921437 4.23638146565301 5.735601481948022
Au 5.176124023125156 4.794063937390598 8.264168678648414
Au 7.237288546165472 3.5815467093044413 6.685083890101778
Au 7.682687111667788 4.439587502079773 9.313337884646753
Au 3.5433084408832642 6.824904879222003 5.379296619820808
Au 6.207883786342011 6.2486171888685025 6.029509945819128
Au 6.720105448763636 7.053194489081741 8.886554429122176
Au 8.751816420988858 5.918429809339636 7.275131101956244
Au 7.882147150753084 8.358338711374651 6.440587364435291
