11
Energy = -24.17857297 eV
Au 6.798083459159116 3.1975551377549998 5.361749910635314
Au 5.764565352187902 5.051858966609404 7.294793160020783
Au 8.519424636563043 4.980557292681602 6.445878110261521
Au 7.703774784449136 6.752094444622389 8.37440071245636
Au 4.2807807317434365 4.0657370110014055 5.0936251359432525
Au 3.8995021543492028 6.65657803956046 5.776666844994295
Au 8.367526812396553 7.6544672359865205 5.815236846460236
Au 7.277701945359267 9.431965231455829 7.694433719348797
Au 6.44832744222617 5.950958876794199 4.684590018161574
Au 5.137779177664351 7.671055530432269 8.020152418598444
Au 5.823588343040081 8.582004944944165 5.4518868771600975
