19
Energy = -46.38285312 eV
Au 9.270662038155788 6.798816051774796 3.291975032347362
Au 5.913415494768745 8.548328595320601 6.083453962617771
Au 6.832978646449591 7.723593676890903 9.675969097501092
Au 9.3551112903753 7.76640113435994 8.075588100075938
Au 6.296125854849728 4.475460422793937 6.32503161955778
Au 8.525561023422696 4.686761050001937 4.881063858804149
Au 8.769298547755847 5.920908260657122 10.13095690711025
Au 10.409885477138037 6.470720436648898 5.920907244022593
Au 5.3728264993094985 9.736898972017526 8.553835760100265
Au 8.677172787136987 9.705621164035042 9.865611576646572
Au 8.737018726335855 5.006435046475069 7.583843875168023
Au 4.339528514798369 6.3158752785013315 5.550097368985776
Au 7.003700066252875 11.794370742642506 9.161986596606704
Au 6.673893998648882 6.677668641748189 4.2231497300199585
Au 8.588767116869128 8.464962213571193 5.311894528375476
Au 6.369003010364787 5.025636494032915 9.078317582978066
Au 3.9907615039096096 4.613664522646418 7.788624429582148
Au 4.567618297907846 7.213487122914632 8.190037846148867
Au 7.889640294169677 10.11891848257571 7.227063113878153
