14
Energy = -32.72561283 eV
Au 5.60099776699185 4.588500208252413 2.6642135400795985
Au 5.438027738001942 6.76236342088962 4.359449078060354
Au 4.0988328084996475 4.888535437564875 6.617789165037435
Au 2.5133768855542793 6.27203996370224 4.940515414366951
Au 6.0105015755918805 3.319464947110962 7.723034051563041
Au 4.764671836507326 2.15679311342085 5.65112995886997
Au 6.467361317058196 4.4086335885739105 5.206406769345588
Au 3.54090468304035 4.141462787922114 0.8846591897634021
Au 3.5385804088674284 6.391600719045773 2.286523938413708
Au 3.386645908740106 8.567131280663645 3.798517054656643
Au 2.4362796812322527 0.9734518569766347 4.86336094678632
Au 2.1932669038492723 3.6422873827879103 5.12436681722574
Au 3.81226009320514 2.5080396619948315 3.070728527769356
Au 6.554706867061744 2.132273177094715 3.528429710017471
