14
Energy = -32.51814583 eV
Au 3.5780405435058995 7.887121791426624 5.443743913504007
Au 6.229339079295834 8.395830297087167 5.409510638024664
Au 8.416068078090893 9.96712791302772 5.168562986058657
Au 5.2390635442603575 5.757633751690371 5.563193373385178
Au 8.788127057365804 7.326587998441142 5.7395140178408655
Au 5.733287110199701 3.101055681260756 5.193992460037209
Au 4.952061199062561 7.50865987573929 7.736773381795086
Au 7.693367118991985 9.054419362212556 7.68183445995153
Au 6.29023783137493 8.415905772485374 9.892523996061366
Au 7.830280563722222 4.741581358990101 5.722698520545101
Au 5.39907630921109 5.734103897190681 9.811767080109817
Au 7.517895975815835 6.3406358815608295 8.07486228699195
Au 5.910844995668735 4.124971012631742 7.728184537697173
Au 10.125745512660483 5.363776905884772 4.5708079876021435
