13
Energy = -29.73972483 eV
Au 7.012814542436364 6.649218701492207 5.076341712653993
Au 8.981668219936067 8.419922581066817 5.7093243557424955
Au 8.377319467208244 6.406374196733076 7.593689537430259
Au 6.413040874775663 8.669722650387516 6.8578342801100955
Au 10.112178632717786 10.634421955345816 6.673797135692458
Au 5.707044987165654 5.981863732717177 7.396117423744911
Au 7.91886280431172 10.29315729001652 8.358854324499388
Au 10.084132716361307 8.371781648108234 8.381624054943776
Au 10.452366983770313 10.95039471803891 9.381320395941254
Au 6.50537884739645 5.469609319579421 9.916569317330827
Au 6.6448453954425 8.165603322176668 9.52778517373989
Au 8.87064548034557 9.32709129673974 10.877202376013704
Au 8.93887726913638 6.6800148086016415 10.268716133160723
