11
Energy = -23.82213795 eV
Au 6.70653645174849 9.766903935400427 6.601569165056742
Au 4.81983096808062 5.661815540659338 4.846751112241459
Au 3.5085396020020494 5.620806185212403 7.218848729274676
Au 6.640607201472995 3.547581628961495 4.3583488561005455
Au 5.186434179667301 3.463682760179027 6.5776543010434745
Au 5.712527212779767 7.26618072299137 7.244711066891536
Au 7.575930256327935 4.988849407768918 6.591441648610324
Au 7.417066291127414 6.255310992075002 4.145372791360396
Au 5.5403367556499825 8.265757908521643 4.657497508764934
Au 5.990410425133017 5.003399973470249 8.783796567524252
Au 8.331975366205477 7.592102967620515 6.4090401892037665
