11
Energy = -24.13009245 eV
Au 8.622702521932599 3.1868774142569207 7.833485693954633
Au 4.820033017786909 4.642617173714301 4.5344738136213145
Au 6.711758986972478 3.4581005996894953 6.019770206740197
Au 7.422705678245158 5.898620595699258 4.992760759477763
Au 7.268313267590964 8.483417023046046 4.4677549809557355
Au 7.594006748366303 5.617993004903326 7.772407033849041
Au 4.834793614596827 5.6637285415511 7.007425194844718
Au 4.616580722288888 7.3361085442984 4.793966856871646
Au 6.473663450693539 8.018226930976105 6.977283865427732
Au 5.137254210767706 9.90540669917554 5.484036043051953
Au 5.653266658301046 6.908138493328463 9.2609707977916
