10
Energy = -21.94410935 eV
Au 8.722196405550593 6.172775914710357 7.991377114892179
Au 10.165533879679856 8.529313804460372 8.505896626214026
Au 8.469170075333198 7.6721693988957 10.320615717519516
Au 5.841216210842361 7.742264775848917 11.138430456107383
Au 8.331961648629568 10.147753248547106 7.150938397446276
Au 6.849959159902537 7.88365073674369 6.583989961284452
Au 6.125410534173324 6.509295312915389 8.808040259236803
Au 9.48279042614492 7.671876705797019 5.854553231553122
Au 6.642555386961825 9.327100331566738 8.995825790696202
Au 10.901986777575624 9.876580275308594 6.183112949843832
