18
Energy = -43.7947141 eV
Au 8.53720369803517 3.803175404650536 8.074096180247954
Au 9.387821227755945 6.269210667883663 8.967601208390024
Au 10.36155421446787 8.063125736125663 7.046746693759387
Au 7.540555188657458 7.338979601508152 10.744817147239278
Au 9.344792003907784 5.666404274757865 6.206632954019938
Au 6.4928659851751 5.336960107711655 9.134254663876876
Au 6.601363197121482 4.780348920135531 6.3721442145675375
Au 8.508271492495943 10.155897104208217 6.834941463061187
Au 7.257812358221838 7.656777051645088 7.560676947768619
Au 9.138706366279585 9.057024503352837 9.334371762732223
Au 7.70635228378377 5.6128034538281755 3.9817624773719213
Au 5.1106023035060115 7.773450386939472 9.551602099853424
Au 8.550449435352204 8.065996688328198 4.9409949301505645
Au 5.713390637847661 7.148926664374311 5.111603270438019
Au 4.462977530662902 6.154671480619195 7.386283037375515
Au 6.558890572917217 10.057762551569395 8.848465960688975
Au 4.708555910084154 8.932882799078065 7.039701679536231
Au 6.4218971082741065 9.822682776527266 5.080787722217204
