13
Energy = -27.27947237 eV
Au 6.596837460882677 6.597370277340451 6.5962804819195355
Au 6.592354267543405 8.071609811374483 8.941161143193135
Au 6.615337405154341 5.139673171916906 8.952342176051218
Au 6.5788079011613645 8.054106537548316 4.242440110197552
Au 6.601754069991796 5.1229837418250055 4.2533190432928105
Au 8.068314796400282 8.942970971724018 6.58414108653117
Au 8.057356219241663 4.243899710815077 6.583079178845273
Au 5.136913781124793 8.94996222026664 6.610920734025369
Au 5.125843557600271 4.251120017413035 6.609880578039075
Au 8.945280404591362 6.59118355209827 8.065310987141544
Au 8.94793803619809 6.6103191915799115 5.133670643115315
Au 4.245960586056269 6.583824638707742 8.060475629372888
Au 4.249425661322632 6.60310022934106 5.129102355543809
