17
Energy = -40.97379414 eV
Au 7.190520741791987 4.826621671316417 3.3540181805241263
Au 4.856759311442101 4.414562178509349 4.952405661138664
Au 4.8596790439465245 6.226788786422484 2.829368701238733
Au 7.12559667794736 7.595310852361752 3.4292391186046918
Au 7.32521299847115 3.477803065915227 5.684618402674484
Au 9.86424610770597 8.146724086932213 6.351259631775976
Au 2.7472942555150945 6.120928469929842 4.575212252347192
Au 8.488436842141608 5.990177226302274 5.513913298887941
Au 5.402993184090255 3.6955188737174285 7.575884014869844
Au 3.8164479155549165 6.239268563343681 7.069618290101942
Au 3.4825793707528487 4.651736009559856 9.21170287639072
Au 4.861814342483102 7.873440345675129 5.097087620810929
Au 7.984009745316006 4.629426930142163 8.073059844232137
Au 7.29749300512676 8.809342901501388 5.815314498345699
Au 5.816636790144976 6.058673282752785 9.114433004669205
Au 7.963289082680684 7.3353770451446625 8.112332676083705
Au 5.389036971443947 8.421466122414268 7.775522892532529
