18
Energy = -44.32519127 eV
Au 5.6126638642000115 8.033956082887801 4.725151999136645
Au 3.916599431621598 9.177753385985872 6.599313324146882
Au 9.457961810479675 4.17569792092446 8.646709163198116
Au 5.376913941612595 9.177479705643773 8.874654384939221
Au 8.514522551727321 6.386008567198714 10.03636807056397
Au 8.316277052385638 8.11048682843486 5.181871003159817
Au 10.731825026686543 8.175399084042821 6.482452129539432
Au 7.413791489436848 8.766040594195447 10.638629501157233
Au 5.778710622311079 6.648905904480552 9.91010378389568
Au 6.977929057355701 5.052808326751539 8.019342078739466
Au 6.8025537524273805 5.692432246682611 5.369539888163238
Au 9.302402365181939 5.805328854794761 6.394466182294716
Au 9.668499094743153 8.94960266716056 9.023228227482834
Au 5.042476315993064 6.775357040956855 7.253767255241956
Au 9.201333920900932 10.38527344354751 6.633702908685284
Au 7.633629115342907 10.80478921306467 8.828760257342928
Au 6.55337030862123 10.001567791798601 6.382397130029406
Au 10.869557543823957 6.545353959877567 8.63996737190575
