15
Energy = -34.8058944 eV
Au 5.451746966775525 6.660590852390406 2.552797206232389
Au 7.477682721962901 4.82703134980123 3.125208206756712
Au 7.6563694832320355 7.440670800643687 4.03034035558732
Au 2.32763845222756 3.6691845832547045 4.783739441340998
Au 5.045116586015279 7.2988278989109565 5.170306583776931
Au 2.9926197778633905 6.185793723395407 3.692758109256101
Au 7.024351138989305 3.0892909054173288 5.194758292701856
Au 4.871637381985711 4.055964903421312 3.745840326798749
Au 4.4941441214978735 2.9702506339481127 6.294105772927134
Au 2.9037640341287765 5.753756295790213 6.392309373725556
Au 8.535373790329047 5.3405132010785525 5.622127187065368
Au 4.784118880254382 7.035829039847142 7.901098582444222
Au 7.242078916015115 7.5281405911962835 6.771196921052281
Au 6.371187319507891 4.788545218567575 7.278712155822319
Au 3.896964600198064 4.430404173320132 8.51949565549508
