16
Energy = -38.37432526 eV
Au 9.610501940653242 8.422483947737593 10.99858788665298
Au 8.499429655682095 6.199550243255183 6.8352411819671515
Au 5.761971285169505 5.8647471846357035 6.224080235293208
Au 9.343994870064106 6.090796779320799 9.759914024065132
Au 4.474299200828215 8.460126340316934 6.127937608312609
Au 3.1172174096620178 6.269369126412174 6.933107770254336
Au 6.936134620903977 8.781729268224124 7.323018291931324
Au 9.079310307075861 3.9002993352327042 8.3220966744445
Au 4.915395084175832 7.184038750540427 8.704574188438908
Au 6.442001731858655 9.535455184157827 4.738342341356747
Au 9.25916912871451 8.736995482392341 5.65735456200896
Au 9.579815288680887 8.469568639568468 8.265287926562603
Au 7.152340796256647 7.893008162033913 9.96676971128181
Au 8.533139388964024 9.041855579217032 3.0961468320750782
Au 7.419911986805217 6.8986364959026565 4.419658270816057
Au 6.796084391976554 5.264093175313187 8.858812869541222
