16
Energy = -37.55372017 eV
Au 8.85951552120963 7.685384564795809 5.863093136054055
Au 6.828982192101196 7.291315480599196 4.178277310533229
Au 5.181877885894499 6.696044228115388 8.65389568351025
Au 4.570899927295758 7.8216607262212605 6.203507437843066
Au 9.14755040908774 5.698701236479959 7.6814633390335585
Au 5.485020171532227 4.32810286121629 7.165346121504871
Au 3.2064174796295872 5.6593160610114985 7.0634855260070095
Au 7.135815543849969 4.923542544037482 9.422360598695295
Au 6.002555381598734 9.823316582717972 5.169705726140466
Au 7.906005480682541 3.1963074567820926 7.405521820787405
Au 8.377700502641979 9.607917187652527 3.9796862526137566
Au 7.5305835662422105 5.095001765314536 5.432930170591043
Au 6.447968844114381 9.140893940155637 7.723503729649537
Au 8.297030171725988 10.161694917585198 9.380929424375378
Au 7.514814063616934 7.5604970963632665 9.705979089485554
Au 9.866981947572523 8.232322117366467 8.27065487268468
