13
Energy = -29.38349753 eV
Au 8.790900629744646 6.936571409483734 6.88224175950583
Au 8.005534879985149 4.58011878581525 5.8140542649111895
Au 8.746891410009036 4.696858613257576 8.561776036016468
Au 8.231882336309173 8.843932860636603 8.706938659308888
Au 6.870498003537745 6.783758609521115 4.744540006443086
Au 7.574433872143067 9.26013884874571 5.974063434174188
Au 5.555622118889488 8.686141713732356 7.75506897752062
Au 6.133023282266932 3.992132722642242 7.746167236931952
Au 5.01349145706364 8.790707610589115 5.020666082891018
Au 4.191369706824706 6.389648967514348 3.9828416326410774
Au 6.729696101245342 6.486561840388654 8.808518122132465
Au 4.784308810708695 6.305120684283284 6.724461675100833
Au 5.335871555176183 4.162539487530974 5.108301481955012
