14
Energy = -31.55051986 eV
Au 6.364917267345305 3.490242662743164 1.8250695087312772
Au 4.3082044340561865 5.0619891256854475 2.687148887249234
Au 7.028833787444009 5.784339933559927 3.2051250357003513
Au 5.334502852974566 7.5196057844967665 1.9522450409252576
Au 6.121102197393439 3.4888962910709744 4.5118468377622465
Au 4.642219930041131 7.129783934002217 4.527293214354349
Au 3.5135269826504167 4.474447339947058 5.216440984734066
Au 5.642876304825339 8.283349349726718 6.851482410378941
Au 6.925949170880211 6.02299231999327 5.898263934643184
Au 4.445283721108251 2.0663864202288273 6.224489130556496
Au 6.3674934399443615 3.7235578119003687 7.236518906869101
Au 3.5195355063796594 6.556390536214905 6.969282576783852
Au 5.768518861449779 6.025751872131758 8.539062555586078
Au 3.7263903794343505 4.081621454226321 8.065085811653004
