16
Energy = -38.07545748 eV
Au 9.925767387856537 8.30497371749616 8.708386350928668
Au 9.660330560815067 6.829722766882989 6.3136884451007536
Au 8.01350160387042 7.857888675034729 10.549197540619534
Au 9.081344822106503 9.784684768053348 6.321723320256461
Au 7.8453252504753745 10.122951607398706 8.753685297005244
Au 11.581079243526023 8.687295097207953 6.61079075109639
Au 8.212341061920714 5.997266296702081 8.506296568831715
Au 7.301552184610495 5.671520217036559 5.957805761142811
Au 4.694072472999883 4.772278949986827 5.719681742928704
Au 5.94470085900164 6.098605305974765 10.130278360278778
Au 7.859061505968489 8.237979699031726 4.44358607473951
Au 6.023784235746161 4.2831865365045365 8.094724050272063
Au 5.5318519668172605 8.729593427851057 9.21491325577729
Au 6.436583967785802 9.030919777695196 6.647574286157761
Au 5.353068837920223 7.249658497283233 4.7238866918178894
Au 4.876364574064985 6.818145019360023 7.501495829594983
