14
Energy = -32.36636084 eV
Au 9.843671209480721 5.911045487449762 5.698176386735159
Au 8.207020110342079 7.601629143439219 3.721430340852581
Au 9.129031253141656 5.109612413169036 3.2254737692170927
Au 8.24819311861452 6.219367564211959 7.819750065386165
Au 8.876825764859381 8.458509179058051 6.225979612434321
Au 6.198568999356719 8.13389565299913 5.44688001298693
Au 7.148108774581413 5.3471110361736836 5.131522433657639
Au 6.177344243168811 4.4049895748562315 7.500515498530893
Au 6.921743955096904 8.696965274878835 8.144247330960779
Au 5.930462019811683 6.490068159926323 9.387056069159126
Au 4.566878662294754 5.905206832416718 5.781941496808838
Au 4.371433857274998 8.022637411924794 7.60983374087668
Au 3.8544772167608983 4.905362739453925 8.783316678839808
Au 2.274334792003974 6.4255019438224625 7.146371274385872
