16
Energy = -38.19678284 eV
Au 7.478469036071241 6.206425473627721 9.78042808069188
Au 6.372355650296682 8.10133827532835 8.027899031914057
Au 4.793083180555844 6.149677855600485 9.342937808768678
Au 9.03028524085905 7.4831185178951 7.922503004250383
Au 3.577027277928359 7.706286928867622 7.484802124940887
Au 6.393634723448277 4.029374107194752 8.367545820917611
Au 9.022597443079013 4.69769240369251 7.997421945534455
Au 5.256073131787306 9.243498131577097 5.801048199720317
Au 3.6104687306092114 7.178095269476561 4.809726650005259
Au 7.714564264301858 8.078354636717343 5.60413205731539
Au 4.729046683393022 5.3154717011403605 6.60616222211313
Au 9.680911299334367 5.923494976461496 5.6412862307748055
Au 5.902459867042322 8.000110899317328 3.4450442813926307
Au 7.2544884623601575 4.5614391475371985 5.815449959370522
Au 5.37842440918105 5.283434926842056 3.9567642151367073
Au 7.997271049070233 6.244033233313128 3.5345112249930764
