16
Energy = -38.83536918 eV
Au 4.9999999893125056 8.757724199250017 6.900882553749983
Au 4.993186914298727 6.856306343660028 8.802300407340061
Au 6.945547471062772 8.830267714499168 4.881440053884996
Au 6.5017625503650125 6.44329021480666 6.469127037141252
Au 6.953790317792099 4.86245293988276 8.844043578024428
Au 8.74936445702164 6.806104037530702 4.873917858416429
Au 8.759033862093018 4.856917599408873 6.820458459190795
Au 6.945547472062787 10.777166704114967 6.828339039500731
Au 6.501762552365043 9.189479712858711 9.215316535193296
Au 6.9537903197920174 6.814563175975589 10.796153818117201
Au 9.179541070338306 9.171622373559268 6.486984378440717
Au 9.179273427967228 6.481523595297285 9.177083156702702
Au 10.710102129651599 6.871362938776791 6.875371857455217
Au 8.749364456021626 10.784688895583585 8.85250271346927
Au 8.759033862093018 8.838148291809178 10.801689154591143
Au 10.710102124651636 8.783234895544782 8.78724381422321
