11
Energy = -24.21148351 eV
Au 6.301783135826809 6.303506509586819 4.030317393699605
Au 6.302098417420177 8.624355982601427 8.400591938323192
Au 6.302137899947122 3.977568812056587 8.39733631994145
Au 6.302030931462168 8.950375063285614 3.9464065336569507
Au 6.3021198916344146 3.6554905168322853 3.9434060370666923
Au 7.712768626890366 7.763051031818806 6.015629493274308
Au 7.712934301554893 4.8416008999884435 6.014054449798358
Au 4.891424167953694 7.763177497462657 6.01572603260619
Au 4.8913155835821565 4.841396432012445 6.014129851750536
Au 7.765386138186561 6.301195012705235 8.27267764753105
Au 4.838872326169138 6.301153588398095 8.272595722978886
