12
Energy = -26.97983198 eV
Au 6.824389665922717 3.8460599652762295 5.819167256418505
Au 9.358707765061496 7.9374390580364045 5.784045522891847
Au 7.443746324045391 5.541707827802831 7.999463411150438
Au 9.238804669672085 5.2082525753316995 5.944023596119427
Au 8.41487727733091 8.104284616969263 8.274285219185172
Au 6.854993835919038 9.198402728603794 5.9583667130161215
Au 5.736450865297688 7.746183615091474 8.125962361012478
Au 4.82189902678467 5.411494393425122 7.099522613560158
Au 6.9472701010352855 6.576061609384797 5.265662308811246
Au 4.213186050099261 3.3728830839821695 5.4692642322729315
Au 4.486405687431618 7.831567554992927 5.603186524620855
Au 2.729229052452818 5.786695016447063 5.470029198716015
