13
Energy = -29.80402039 eV
Au 7.058781390903209 4.1964768421768 7.727546199492297
Au 7.232346001200688 8.508509861607815 9.734380024638003
Au 8.307092506893435 6.638979155195929 8.000952242116162
Au 4.733141019218989 4.081540189577828 9.146603695002913
Au 6.609081667177991 8.629838969694802 7.100907269974298
Au 5.57424785418046 6.610053791950226 8.762072697217924
Au 4.588347134322061 5.124735829906509 6.645918415561513
Au 8.39304074240158 5.320140830851135 5.68582247893923
Au 5.92780923888391 9.883371314967201 4.804581923992609
Au 4.798341963135393 7.438254786464042 5.344387331387597
Au 7.521953806227584 7.706284638710109 4.609664156883631
Au 5.908779621968175 5.140279699762093 4.305340877000585
Au 8.247097413024482 5.676347502552344 2.9995175967544085
