11
Energy = -24.29252947 eV
Au 4.388785262126327 7.37872071523365 6.614456723677168
Au 2.9497436641069776 5.423500595258225 7.787317610604569
Au 5.619355792801159 5.663703254942435 8.493970115114196
Au 6.633599107125228 8.820225530010052 6.522983890615656
Au 7.14700503701798 5.018113764798271 6.306185785044557
Au 8.135371415197305 5.366952621076033 3.7598269648878135
Au 9.257781092436922 9.184121512782013 7.22878746228787
Au 6.092713712574078 6.991486711584337 4.564726233065886
Au 4.762751025727275 3.7864419635151814 6.6405628712346125
Au 8.814593179599406 7.1736885307243154 5.575217002161159
Au 7.893040000853514 6.969511616801534 8.263083285716508
