14
Energy = -32.29145541 eV
Au 6.31177145594376 6.518244252566111 4.834099186428943
Au 8.515745428404886 8.165513318420698 4.815369037454651
Au 5.836102211669486 8.961105572758957 5.983320551080075
Au 8.203561946155551 10.362324267508722 6.344912737276045
Au 8.598545114266365 5.842196827575245 6.28701650788527
Au 6.307768782757172 6.775463792508915 7.605326486071297
Au 9.8180559241052 8.217506085850507 7.247727787271768
Au 9.320838955194025 10.472881725275952 8.891654018981964
Au 8.815166399391737 6.231484678731379 8.97273725048836
Au 6.731281842872095 9.39191563410229 8.568998464276852
Au 10.519883493659513 8.183203678172111 9.926182230290005
Au 6.5232528569350015 7.1566476507863985 10.294101377114982
Au 8.050082240147288 9.35081160861099 10.989046965146995
Au 8.904120305017704 6.826877863651659 11.695684356752565
