19
Energy = -45.89829405 eV
Au 8.385759273782687 2.6013542614588876 7.3340276150677814
Au 10.99692173273297 8.317546835273632 6.313923839437141
Au 8.577892749656174 7.501432114840637 5.1611926383453985
Au 6.132987278124201 4.044422639252223 7.207661494760949
Au 5.129959667153764 7.74816940125246 9.162407496386914
Au 4.460330361829364 10.187267352488057 8.307498296915346
Au 10.04237042358072 6.5631931146435445 8.07843411829109
Au 4.047808304654171 8.21522966029824 6.420036612663651
Au 10.487534187063758 8.991285786098562 3.7557027127534894
Au 8.446572511609505 4.62656551478745 9.119134914943372
Au 4.093177114223933 5.72894385800067 7.5253976163190694
Au 6.1600343256931085 6.564433271496206 5.811900710306052
Au 8.813541018648591 10.210229591630696 5.5085062814095975
Au 8.497880277351287 5.0642427052080405 6.162973160689794
Au 6.582518201053457 9.29550838212667 6.680567318172016
Au 9.068541729463021 9.154443790631765 8.101637351013938
Au 6.916195558787324 9.805889776684483 9.576199367355576
Au 7.858385188500437 7.206708526372177 9.72777059137794
Au 5.852420900828944 5.235706477283357 9.7157294153069
