15
Energy = -34.59281912 eV
Au 4.557080245064706 4.581240988454204 1.8290200315700256
Au 5.101361434182279 7.333715609130065 2.200265176047725
Au 3.0672341983697318 6.139554226413302 3.573177096110517
Au 6.359366907489849 5.066730756128818 3.7744350802271986
Au 4.745612447416662 2.797510285360275 3.828458810965207
Au 2.198777750366148 3.7431023528646112 4.394004721901323
Au 5.1439094100480665 7.392925037067275 4.915611356969151
Au 7.696885607531508 5.5649162406879435 6.002435361626979
Au 3.5916435317596367 2.1255884917090606 6.218689154044063
Au 5.918454802748382 3.5227153312167325 6.227197750445186
Au 3.609203972202067 5.226824002204874 6.147837111496398
Au 7.390361633529774 8.313004768941394 6.140833639980633
Au 6.85698454897478 4.45628094177529 8.60144423430573
Au 8.056862272959007 6.90513356186467 8.394650562341045
Au 5.449405213146742 6.573901381970835 7.495083887757744
