18
Energy = -43.12864468 eV
Au 5.950266004512648 3.3669387494752105 9.287119932603344
Au 8.82368065081798 6.783126003836661 8.525457133159032
Au 7.850695449855488 8.058047917313273 10.784085846279153
Au 7.353219439677232 10.69848303368027 10.086049937904752
Au 3.847657575555815 5.051683588986874 9.175495728752086
Au 5.9345408431130835 8.711263878207493 8.783738106257045
Au 7.9891992800741205 10.234589610494671 4.761077466697841
Au 6.259174520632696 8.512098974713204 5.988784511114053
Au 6.293166902726051 5.825467372588697 5.128545119863997
Au 4.871588546324189 6.6379303431868335 7.31277940272171
Au 6.390855466742511 6.059252994729148 9.699486854612035
Au 9.19515778097871 5.81122830393272 5.959211942421404
Au 10.716599460339511 7.262344635480464 4.297527718427365
Au 7.341578059191388 4.638171256893674 7.423835477589452
Au 7.597272155092291 10.495603853738782 7.418553037791278
Au 8.039896469190339 7.599381730838638 4.068705774050141
Au 9.640111673571008 8.580641917158907 6.47078543292439
Au 9.624709097735492 9.379264230453055 9.048269168327238
