15
Energy = -34.57576742 eV
Au 9.990679315686194 8.484734771982192 5.050881564690252
Au 9.624777144823684 7.125197936551148 7.3183415992324745
Au 7.3942508452871385 8.905573865156024 4.433686972220218
Au 8.463425881637063 6.277672876124233 4.84451475389805
Au 4.7199057496429 8.980515074093693 4.106075885861406
Au 8.693567262703732 6.930133179428168 9.82723499099489
Au 6.7963184674304316 7.7239453460047685 6.907378847687783
Au 6.841555905130217 4.252309697729738 5.515366700066746
Au 7.742214305166961 5.202686209688727 8.013469134256841
Au 6.029083564875997 7.052982509120907 9.51033323681641
Au 5.781501923333766 6.519385815789596 4.476086863157886
Au 3.8808880878340757 7.618419225969346 6.24199113260662
Au 6.2333324581695875 2.9698882884668585 7.847419526170704
Au 3.4381971665274813 7.079713927846769 8.832934082090535
Au 5.009720139867454 5.379992984857086 7.381424120125217
