13
Energy = -29.1382377 eV
Au 4.496837910677114 7.142072889942863 7.464312751170931
Au 7.700181004581059 6.590667423531504 6.574793729415594
Au 6.338235259590228 5.108145754804079 8.357282542847724
Au 6.038855044624114 8.7866694422144 6.059239865709535
Au 3.5746502826518736 4.747297920213967 8.223038445296453
Au 7.892234061797428 3.9108229936028636 6.315649750712581
Au 8.250803319629956 8.152283378771113 4.424235478988151
Au 2.7159394679099997 5.1962402019944545 5.589106717148797
Au 5.227111564486054 4.271969720004889 5.979796391625639
Au 6.977088132318553 5.860658227296769 3.941688416410316
Au 4.433679399077682 7.124861924143213 4.702204665917212
Au 4.479684614659391 4.75703260831969 3.374933588544291
Au 6.821308316694772 3.1666294957740337 3.8757695101418426
