10
Energy = -21.52554273 eV
Au 3.9386234709811325 6.197228292575935 5.910434841924502
Au 6.23831236024546 4.973981634283031 6.614993098289882
Au 5.28674915912006 7.434547813409693 8.001748151486968
Au 9.721364139052406 4.8187659287650115 7.666057060425024
Au 7.5169683847829125 6.196294408245955 8.699648272744941
Au 9.798190360215267 7.488170948600473 7.824778257617578
Au 7.520297755150098 8.766912490223008 7.121112811036285
Au 6.1940512351968815 7.531280962983512 5.04751259139755
Au 8.45170636619366 6.331037894174688 5.703522814833229
Au 3.962279830862813 8.875490634895147 6.0429646951984
