19
Energy = -46.04976626 eV
Au 2.7431764101141676 5.450434359567925 6.086505688794455
Au 3.8152832403317687 7.415412383988289 7.725540333031248
Au 5.161552440054605 6.2695338527071085 5.291266680363413
Au 5.961992518940582 9.057921968062587 8.027879255316773
Au 5.803759151178769 8.156756171281716 3.34062762953455
Au 4.748962553060313 4.754987694789117 7.732318806039919
Au 4.609580340278449 9.011575416803465 5.610834175219959
Au 7.116361302246011 6.8730800894613555 1.4322365696621708
Au 5.776337814268532 6.609674793998713 9.505882482276519
Au 7.409192838333426 8.704792098766653 10.33009605301312
Au 7.442316345889471 5.821463019072099 3.843025701002077
Au 7.125480825741339 4.488643657233217 6.189242388220767
Au 7.020717373353957 4.129019520433895 8.979129959280787
Au 7.351242755899184 8.758426426400082 5.525373344708621
Au 8.55688319796093 6.384972831179525 9.531581935709982
Au 8.713813475400181 8.699272975630352 7.849703620121245
Au 8.971102461544298 6.609199029790808 5.9379711016515895
Au 9.442987593517579 4.462712121629055 7.696139201949007
Au 10.789908457208382 6.863277610849197 7.936600702078945
