15
Energy = -35.14078631 eV
Au 8.915856803460057 4.198701361259595 4.756827528185029
Au 9.950946913159113 6.3681015645799715 6.029546274562773
Au 9.434258549457107 6.884544012278842 8.653248390649702
Au 7.776955630608312 5.077912313947183 7.2970647981451275
Au 6.266248235818309 3.8304379443647165 5.336508845506655
Au 8.342724045078294 9.23265549348849 9.413378021144926
Au 7.448636119182858 6.532463541498275 4.686166058023794
Au 5.089242979274345 5.470841849368043 7.2143839427996985
Au 4.807974690448632 5.901542298100356 4.257730967725187
Au 6.639800508834406 7.024514738912873 8.935575253450398
Au 8.130203141426355 8.42059442521683 6.643081800269956
Au 6.081239948762775 9.717444081720569 8.00854968514152
Au 5.514211014481948 8.084692931584993 5.824925065806326
Au 2.944844084679623 6.791185861378607 6.05223212110586
Au 4.0696051598230385 7.8806659907222185 8.287458130608876
