13
Energy = -26.75181506 eV
Au 6.970944751410612 3.294109593777165 7.678130817501476
Au 8.139271890972589 5.683837661686185 7.61899748702288
Au 8.735736887493607 5.856146901373902 4.899001868396943
Au 5.0673376484988175 4.737510850731653 8.84092388942422
Au 5.407842863812837 3.1896204425287737 5.537272544856142
Au 6.032499575441603 7.223080622968242 8.26599839355191
Au 6.322872553107144 5.073867326618824 3.8474866409877597
Au 8.618597687290876 8.489970859463062 4.79948402087978
Au 6.960252739678359 9.282827477145334 6.72353595846802
Au 3.8468055406775434 6.937238600701127 6.740461971300737
Au 3.3903825900466344 4.317813290907429 6.845873018080553
Au 4.5063262055687865 7.123863027978926 4.017724957085402
Au 6.044097369892933 9.27390973229734 4.234969704047774
