10
Energy = -22.24126465 eV
Au 6.0696454439562695 10.475879341962973 10.968829528523791
Au 5.811282047698462 8.787928269902592 8.940364452152158
Au 6.869050001048452 8.42498945724165 6.503906846460344
Au 8.316300667224922 9.724226986540753 9.763230410221983
Au 8.965784484799203 8.646535486806828 4.739757655016335
Au 9.42989246301043 9.394329240955205 7.3408003670321085
Au 7.020852180870067 6.463994743663148 8.39074638856017
Au 9.120890880385756 6.648178882430522 6.481078233845684
Au 9.604619594452029 7.437660092030937 9.203709711187631
Au 9.220651927478917 4.8371167195201545 8.434788945989927
