16
Energy = -37.88815582 eV
Au 6.294749730207959 4.338766662241798 2.278031868158999
Au 5.066318897042137 6.8005622939121455 1.9791255035666613
Au 4.117372026308111 5.051720813979187 3.8996390135389483
Au 6.986008798134594 6.486114796408996 3.9343432950829422
Au 5.529743931421611 2.6189057488267076 4.272784912235035
Au 4.510772311514219 7.8738685118527645 4.380802499519764
Au 7.937986244240353 3.9487375436828964 4.478912840706847
Au 3.6861454687746265 3.479330130509323 6.043121770353469
Au 8.56644228207851 6.03881585529789 6.087132728709265
Au 3.9546346697934713 8.85247898904696 6.821626935546828
Au 6.558341042964379 3.2399521989915017 6.814698634456186
Au 3.503534454617793 6.140842579267225 6.462861188010517
Au 6.376632013281123 7.576380234504489 6.537770858776871
Au 4.566142319223218 4.392610986137757 8.421591697471277
Au 7.060586408867952 5.56489162945281 8.295966987795932
Au 4.7798696438531225 7.0913012682096745 8.786869508393025
