16
Energy = -37.98599607 eV
Au 8.198956401761919 9.307273111079262 5.25955659952218
Au 8.56201469947866 9.020766414586008 7.972940044655077
Au 6.222535771505016 8.67951168339047 9.27857167984102
Au 5.77951481918144 9.030098265069046 6.4165050441651195
Au 9.369089976953653 6.926826487225219 6.35472360203216
Au 9.333938243068179 7.43666736894583 3.6463434965413373
Au 6.626311202298699 7.199271346012317 4.408081563934734
Au 3.8387114815337777 7.919894203639783 8.03291943565438
Au 8.346377497351881 5.040383712219772 4.489815543944409
Au 7.711589151501139 6.469596215052571 8.510654487855303
Au 4.194953400036277 6.915045214508367 5.559199460764134
Au 8.722709827076995 4.33404840953934 7.1330240636303195
Au 3.9222399132063783 5.070624075830156 7.5062648212444
Au 5.22511293010914 6.16896255507457 9.708172085911164
Au 6.36659515125189 4.037082036876159 8.437649641537558
Au 5.933405631055892 4.759224217437765 5.658886258512059
