12
Energy = -27.22709437 eV
Au 7.299923275807988 5.091447475175429 8.29895817498666
Au 6.319558472715447 6.812957662059441 10.169139078759283
Au 5.243049701011773 4.232220706353167 6.745955567803687
Au 5.0763623835236835 6.94178892161643 7.734519571652758
Au 7.678936342499777 7.898443451739932 8.069979945376518
Au 7.701135488527465 4.704425048833748 5.691762994901709
Au 7.555903297307531 5.9180876868236485 3.2529028521660974
Au 8.129856675360564 7.511381196681743 5.35526453090442
Au 5.886590398682073 9.046184823116915 6.160407501639882
Au 3.1207567166112185 5.718812352566006 6.178612820209821
Au 5.523577548937669 6.54012447257962 5.012652840451417
Au 9.830066310421852 8.869888532662896 6.848192959131267
