11
Energy = -24.16647813 eV
Au 8.756587914203678 7.0651309625849406 6.420732909640611
Au 4.783823040759272 5.414884689620135 8.139991702109558
Au 6.306513659020326 7.527657069695917 7.573200063255421
Au 5.3725894436020045 2.8920740902143596 7.302004406457017
Au 8.558549322152185 8.728602265039205 4.310242659096898
Au 7.29725582966659 4.865702543465187 6.946539900812729
Au 4.337914507907548 6.730559259264712 5.638029823742053
Au 5.496257082860617 4.292170398210396 4.88665391734867
Au 7.03745054314225 6.362231730160089 4.3636893762875655
Au 3.0877475173479842 4.344349068159784 6.294500017596909
Au 5.992008270634295 8.803334898720605 5.151112120706812
