18
Energy = -41.60400277 eV
Au 10.070887710933961 4.579062837225654 7.589557975247641
Au 11.429556717780814 4.903727051826567 5.243147377829829
Au 11.414250295389575 6.970473003792323 7.050294488577556
Au 7.375824054218632 4.595035673159962 7.51755258488282
Au 8.651208975993994 4.306218848150996 5.093032770313573
Au 10.01565048369409 5.386751671118684 3.005578097383818
Au 8.777971271916693 7.10174985084554 7.8309811790992025
Au 9.378435512887998 7.042016937985947 5.122408025859655
Au 5.987712068368796 4.733919004650886 5.153583079958384
Au 4.113175652368793 6.382109023219491 6.119306893054885
Au 6.75708089053573 7.312520735797103 5.8905726869847514
Au 1.6504326463837256 6.355570378678309 4.886528300512361
Au 6.2287373493697356 6.764085621717104 8.683944604703077
Au 1.6651435254240607 6.795676690290983 7.5284223588153
Au 2.69524307029177 8.75819101472518 5.660049190792421
Au 4.930029140713971 8.840824811854041 7.247035759091289
Au 3.656292467908323 7.059156471021468 9.296242478954824
Au 2.4542909097712644 9.364833117891306 8.333684891890856
