15
Energy = -34.53536959 eV
Au 4.042968957209718 5.604699339981129 3.8992954966444384
Au 2.0384640352990373 7.246489387836935 4.963806790438511
Au 8.104955289674102 4.999958618156037 6.387995998215077
Au 4.447439216426799 3.430356833037211 5.434054750382222
Au 5.6972131529379935 4.395261352706062 7.7833100913727
Au 3.6208801063020695 5.796241402744823 6.683550101115268
Au 6.2712059313287885 6.92469187560958 6.873196781208254
Au 5.757321837839219 6.553899371873446 1.8731518074179356
Au 7.860942329201756 2.7561160117993455 7.950857598046303
Au 6.761164661294863 4.955663941248364 3.8701825374847387
Au 6.18881017909696 7.742668098218152 4.2751508616282585
Au 7.100832680812048 2.670494745188237 5.222976485786399
Au 4.234120233012183 8.502657201067532 5.989241329435937
Au 3.6890906628467257 8.121948203188069 2.9348202496626588
Au 5.468604743389619 1.5828676340170895 7.142423137833345
