13
Energy = -30.39292725 eV
Au 6.6520754524999575 6.81918544188466 6.602780985115343
Au 9.492380534234464 7.102980296675521 7.116690847897599
Au 10.050043749609863 5.299666432151054 9.198025195907661
Au 8.22178502668903 4.658962077207719 7.182208259723363
Au 6.295719008929618 11.177743009887108 7.72656335968409
Au 5.352499543339506 9.167275440650002 6.033668487211599
Au 8.052045684130938 9.34159681800624 6.551866286851181
Au 7.5010289366688525 6.4430594622738955 9.302273928486052
Au 10.682009746736611 10.378821685221558 10.506449441917438
Au 6.053405179274292 8.590435426368755 8.74351833989648
Au 10.386380633281046 9.525701058813288 7.901535749912281
Au 9.685146991870903 7.870539427506911 10.132243761313177
Au 8.13218691681771 10.154232451092932 9.550591330170127
