19
Energy = -46.34195206 eV
Au 5.393475552410817 8.198526676205244 9.677151576514778
Au 5.060365958068593 5.985170384428675 11.315367477244465
Au 10.08020781946513 6.367638521635591 7.100371973134288
Au 6.542170708977198 5.713067029976892 6.186704530479188
Au 9.252695839408196 8.180496666435273 8.95322479470059
Au 5.407332013849879 5.528147149227286 8.670981001496509
Au 8.004593556777719 4.77298404152539 8.346218673892015
Au 8.71540466391488 6.6662408874350945 4.662967974664557
Au 9.364654544689817 8.940944325090838 6.371628698162163
Au 8.867841147524901 4.224285840900588 5.805242486148806
Au 6.516146055635215 8.2953956490142 5.085753414112441
Au 7.582101583145882 10.887264935642973 5.5996805085365065
Au 5.030617239350107 10.290030537493255 6.459440586105529
Au 7.583964482819051 6.514643111106491 10.55244574214109
Au 7.13577271270543 9.739079629547266 8.098368163439277
Au 4.783966248811107 7.667918611487257 7.070118309160069
Au 8.729304632464775 9.223194726349762 3.68037463025663
Au 7.596805458170634 9.328832418703737 10.807833691834361
Au 10.112053801152424 5.724475795991721 9.822211667385478
