10
Energy = -22.64525043 eV
Au 4.605703192101335 6.036997102863974 5.718721403950083
Au 3.1519678968920792 3.7703491131338533 5.52537940984032
Au 2.057524914119245 6.184985972431611 4.904117252470208
Au 6.105606427057211 8.315299820715683 5.851723056380957
Au 9.8941780495719 5.693191550749092 6.665142875833239
Au 8.71001446145575 8.135709812365757 6.443799409335508
Au 8.376260741035754 3.4402079541100723 6.6445296315169
Au 5.757936539562492 3.578973400478101 6.106233253088608
Au 3.4960701151866798 8.4624001735999 5.284450030962594
Au 7.244782209994101 5.866670007450322 6.306922094486545
