15
Energy = -35.48243663 eV
Au 8.625150862774865 3.527668025671253 5.425072093695781
Au 4.9708589948554724 8.3862107061343 4.600849195670622
Au 7.698679857664899 5.329733092979369 3.616962453442592
Au 4.695843264424552 4.15836918908285 7.982929302163463
Au 4.949506993849218 5.780079990472442 3.5812517004336755
Au 7.681413779002983 7.777120348259855 4.945892766743879
Au 5.929879361470089 4.145389591296216 5.532506063204875
Au 8.090480276532794 5.8645219079758055 6.777657040320006
Au 4.054571554517757 6.753243834581063 8.844338713415121
Au 3.95974067955143 6.010990517410448 6.082709256423924
Au 7.379529935663724 3.383888616975203 7.900895713170549
Au 6.13042181151387 7.7330434785971915 7.187934048416939
Au 6.597289264100334 7.649437755877246 2.436328601982809
Au 3.51383522113833 8.622852528579326 6.881658051492611
Au 6.646348458740209 5.801000731907705 9.126565549465354
