14
Energy = -31.64820436 eV
Au 6.586837588070257 5.244006584324743 8.38258475912244
Au 4.374521608855208 3.623612340914349 8.116032637935342
Au 4.11547269672632 5.812534401145934 9.615050401890514
Au 8.063439077462231 6.0401713812765045 6.282855024318487
Au 6.24031670315983 7.489958717396055 9.997734005205048
Au 9.348105687043011 4.261521425855447 4.675502072998961
Au 4.139895358983091 6.024942898266583 6.803595606547098
Au 7.099122810000831 5.254221171790141 3.5381783297535425
Au 5.464978610137564 7.044433791389215 4.735491373822813
Au 9.434223160260762 6.908720518750069 4.071699992416158
Au 3.8779062031576768 8.286680675101387 8.438591024329538
Au 6.3133862386998185 7.878783553792183 7.280771694484727
Au 7.0965036478870145 7.85286008332901 2.727974266548113
Au 7.89447645520786 8.784115843688308 5.249362612596528
