19
Energy = -46.27055109 eV
Au 6.128047080816969 5.3457231013019015 8.51551536523316
Au 5.234498568268557 6.314306456277684 6.033793693729184
Au 8.483606027464475 5.552659677346976 10.178549263049351
Au 5.361829443373411 9.869038492247432 9.91015151553993
Au 9.143100365891598 4.153434191600472 5.027649770022424
Au 7.771710124670393 9.890075811108362 8.458145571182971
Au 4.583964824652107 7.635595683615918 8.37579706129202
Au 6.921076955054345 7.657436016640937 9.887415665670805
Au 7.763766139976311 6.477962441913156 4.784811867278695
Au 6.586518822584043 4.040083558949183 6.038287568278376
Au 3.618631462231217 8.468104706737853 5.796115728206501
Au 10.919284256443726 5.5433048517533425 8.863326954214674
Au 8.685935993772471 4.389028718349342 7.73700518630155
Au 5.268538229024204 10.115456858703132 7.1954685117194295
Au 6.28121879465963 8.697091971395198 4.976102394105103
Au 10.151304761276934 6.387243427946271 6.345139428461123
Au 8.835868496484535 8.713781620148069 6.128898460192346
Au 9.51323527391872 7.875164231351478 8.722513478678819
Au 7.470000706282038 11.050617459054239 5.901210733694799
