14
Energy = -32.11027197 eV
Au 4.054924967655579 5.436105295050058 3.4180140997069226
Au 5.739692336183742 3.2762997684476263 3.940896289959478
Au 6.770928479793976 5.981433631615844 3.928250654975804
Au 3.1566475508094007 3.318529326653383 4.906937231466518
Au 4.8015399440374456 7.681319389659905 4.910453761699779
Au 7.409513786386366 8.612683842280026 4.394988798145276
Au 7.989870994408135 4.006974114533193 5.344518288854903
Au 8.906537829557173 6.586592337513009 5.664548501494087
Au 5.376068046042098 3.792360037195463 6.5822193850436586
Au 6.721732577726668 7.971149980665366 6.946393739942728
Au 2.739589112537734 6.0686701693817735 5.675377510557592
Au 7.382390530753723 5.4595715329237295 7.642511457346905
Au 2.847053233737325 4.14303495826428 7.589130078399006
Au 4.709727093595185 6.271492099040897 7.661976685631599
