15
Energy = -34.90267638 eV
Au 8.657006519714708 5.456164046318135 7.127440671035615
Au 10.51242663674959 7.300663813667028 6.51175807428871
Au 7.057988654340113 4.049172983111511 8.762284501304483
Au 7.052031411622979 6.720581283652621 9.28198304513048
Au 8.053655307164416 8.341568760759673 7.09431573620392
Au 8.468650218672181 6.870168868496132 4.743444772753454
Au 7.06160244062133 9.38694027310658 9.437276246207695
Au 5.587089656550855 9.506869010899178 7.208174184674875
Au 6.014544343786737 8.00403414875708 4.964979589123546
Au 5.686429402838827 5.748393474407497 7.133573859584553
Au 6.3156785526308585 5.356650538559283 4.336830121334237
Au 7.190438971855128 3.30856288823956 6.064211439917512
Au 3.5711467490272795 9.09804928806506 5.481814804654926
Au 4.446188510168598 3.8068071563444064 5.625630589325477
Au 3.692646985340542 6.404373980107828 5.387920201953643
