18
Energy = -43.37636092 eV
Au 6.272754723061744 8.714547553872118 8.4576019834641
Au 9.386261123824712 8.663272206146072 4.996515501368741
Au 4.634113235727977 9.317431048749516 6.203325800371629
Au 7.760671195049369 6.318224572195006 4.4584401614229385
Au 5.360535526723128 6.993486230967498 10.333842034807613
Au 7.626190956878307 5.214705705184774 6.914354054059043
Au 10.09742574165532 6.116486745365349 5.997092615669524
Au 5.469152722580681 6.6485031522212745 6.034464018274268
Au 9.74811883124791 5.653714569747747 8.688105439425819
Au 8.3741151435402 8.226569297351842 2.545103250052668
Au 5.02961868363626 4.390597224415558 10.881705950475885
Au 3.7423308189623063 7.480511949103077 8.059858512277756
Au 7.426069084475006 4.7760213856116955 9.739553431266037
Au 6.274335719461927 8.66151348500343 4.181146464444614
Au 5.130386003976772 5.041917702615549 8.16614283313379
Au 8.932664564065158 8.14580530434378 7.608141804305958
Au 7.383915262183849 10.010402411877447 6.323783188754511
Au 8.063378838087653 7.444335427047053 10.104072170332833
