12
Energy = -26.9612909 eV
Au 6.777775512147391 6.192867974581241 2.790960494651949
Au 9.112935974317514 5.251989467344103 4.066094377598198
Au 6.757972784223213 4.264322241837049 4.920458907140824
Au 5.322428391459101 8.620505340906735 6.2181852097247265
Au 7.47201192308824 7.369466771198968 5.160261989093399
Au 4.854583122241194 6.231392052459592 4.767669973031114
Au 6.001436848129402 4.552717048035766 7.483880006348018
Au 3.9522453404757343 6.383095082120853 7.2835332447918875
Au 8.623510093940025 5.356192038992316 6.7464215405918235
Au 4.5500193145557875 8.49321995976266 8.830259431694216
Au 7.011841357048683 7.187381123576006 7.930995174297664
Au 5.398582210704494 5.970056591824638 9.76495995449031
