13
Energy = -29.27745465 eV
Au 6.960768867526746 6.932230162260657 3.331353169045177
Au 9.331203451656151 5.219249727977286 7.441400714710597
Au 2.838062650629856 3.5743858273040994 8.25967779964283
Au 6.512217099664391 9.267882403098064 5.85881953177312
Au 5.311316643459128 6.770229169366251 5.662468001562273
Au 5.182406912549995 8.231435864255278 7.936732466277254
Au 5.5452036199016534 4.719608493284947 3.8349202864753953
Au 8.296698771933029 7.097240110048138 5.840412489120035
Au 4.459600799930786 4.1031080391787444 6.288089100163875
Au 8.488677083833005 9.030595178204544 3.933817676367843
Au 6.954961475667971 6.173274087667158 8.265857830146244
Au 4.335963760494973 5.734831232112755 8.661020990684811
Au 7.151077300605651 4.488244090104342 6.053554118541615
