16
Energy = -37.93720774 eV
Au 8.062703985638288 4.273308691145068 4.798123484731307
Au 5.203009969556145 4.849372321484376 4.730380966715905
Au 9.748574359602513 6.003732450098582 6.017179140517579
Au 10.546409211356044 7.3068236718746356 8.388069967008335
Au 6.47911477700373 4.380986172196505 7.0449031518239025
Au 7.190893213769271 6.803413067977783 5.160882816365955
Au 8.474414484392787 5.446707792476686 8.464143695272012
Au 8.97306127771613 8.592434097644214 6.624340660617393
Au 5.907555067833409 5.887387191226282 9.183201799737066
Au 4.870551225275643 6.903200729339701 6.592419616810406
Au 8.022667536127443 7.979330382955875 9.356992245688225
Au 6.335665743066588 9.18810001373164 6.044813307419823
Au 8.33459004116184 11.151301556042846 6.031708894717582
Au 3.370536899829964 6.800065788587646 8.855191972615552
Au 5.3792196561528005 8.628576075079637 8.874860101640271
Au 7.357044358957863 10.398789965885824 8.412684052732178
