19
Energy = -46.00988007 eV
Au 6.527586789917212 5.107715470152495 11.697567717142517
Au 10.46288479896465 5.463487612983758 5.486435889849577
Au 7.8729102625566405 10.820695784621405 9.478591844715721
Au 5.3203930292054356 5.960982217416013 9.51374331384497
Au 5.0722559372030265 9.45752551891552 5.40649215892641
Au 8.372951189465324 4.3788636447546265 7.392663111530267
Au 5.697809774298979 10.280284372504136 7.875822876945949
Au 5.731116285598153 5.010153691082571 6.955280600451871
Au 10.323220040183813 6.260412601985696 8.111874381735825
Au 8.236873031860933 10.02077361310725 6.828289566779117
Au 8.182512025677704 5.975304135326468 9.823452256445835
Au 7.573984067948431 7.145260816182912 7.33624908366151
Au 9.968655108135495 8.09796277945647 6.002788006432258
Au 9.283978867787088 8.532699071234058 9.154635736450535
Au 5.272612642132801 6.771685166988369 4.84835890675218
Au 7.542161333181025 8.391171143021044 4.751083613008763
Au 6.50807629086358 8.408974346705437 9.762831661172607
Au 7.785523470946247 5.61345341340504 4.931950793694008
Au 4.731273694189282 7.645188974889324 7.499717231384083
