12
Energy = -26.76667795 eV
Au 9.097251082693095 8.064055120178496 5.634330567555525
Au 6.007466423725473 4.771894647878828 5.0925942896346985
Au 9.743077080696567 9.475691437070806 7.84126421623527
Au 7.107877641480064 9.63439695904792 7.252057020769424
Au 8.054016164612383 5.205479740582539 9.866408055968943
Au 4.3641751378293705 3.6404093228561156 6.943193548272832
Au 4.542491540514051 8.928563959192001 6.976778419150523
Au 8.075122327345714 6.148254198875083 4.070540588234754
Au 6.403920535564763 5.218712433303996 7.830324458260759
Au 4.0563592098467645 6.314880166205399 6.7010496848731425
Au 8.267385137732617 7.232166437146568 8.214639696444829
Au 6.381854082948817 7.469799991191745 5.671727075083475
