17
Energy = -40.17276144 eV
Au 3.819718513065621 8.970707316062269 7.610489144842246
Au 5.653374585684307 8.20501863344441 9.458827515051519
Au 7.094801666853428 6.253697887415829 10.647816558238357
Au 6.093579207951735 4.448929896523301 8.87944900494501
Au 6.586204928632085 9.292612102628272 7.099682740052732
Au 4.865342444255655 8.062451521625162 5.217314706733555
Au 8.09963058445848 7.345964752790401 8.358224137470025
Au 4.818042469831372 6.375680221073486 7.446233171772818
Au 8.81533672006876 4.704105349649195 9.057715336287876
Au 7.091676680165259 9.609472104340542 4.464626294839152
Au 7.359447030560875 5.2675520976204355 6.366842030161216
Au 5.51907831434157 3.243807719091684 6.564558968284068
Au 4.999954762132545 5.287910813317279 4.855405517826495
Au 6.8714562196399 6.797960047405009 3.7605012910327766
Au 9.987981632591076 5.676290117064859 6.823843109169485
Au 8.697056462697958 7.817041585957949 5.77619574510001
Au 9.077211120859065 8.13305317013304 3.1070786979579745
