17
Energy = -40.71976567 eV
Au 8.699388746354305 10.758018237646992 7.457079320329341
Au 8.98899682293756 9.404589828174572 5.097161048115533
Au 9.943730732478878 8.21206068752944 7.403901404980439
Au 7.646328215296849 8.999554735386825 9.263553084274985
Au 9.879211517847704 7.505303611249077 10.039917596900047
Au 6.380365023754614 9.519821585588527 6.898828857084461
Au 8.770570550049023 5.836323838231441 8.180873108785429
Au 6.552306740848364 8.587599506043299 4.276220398014635
Au 7.304589382733434 6.630331644338497 10.553764805956327
Au 8.495607723049599 6.7380889963273 5.538703190259614
Au 5.475115039767615 7.427081194063182 8.546948452268904
Au 4.41955138452829 7.917792764632271 6.008868336144645
Au 5.967334537955928 6.00482600673324 4.625194791535298
Au 6.239477302222892 4.724020755963072 8.975986708155904
Au 7.3557731415628105 4.3978108732244445 6.450007689026477
Au 4.416568915764334 5.4026714418512745 7.040878013810805
Au 5.112125233952913 3.522877856734713 5.19263641098069
