10
Energy = -20.97688703 eV
Au 4.97591485546809 10.355429807521613 9.417647865257644
Au 10.602964694035157 7.034778788975567 8.470221929174972
Au 10.605929680757054 6.166929400276559 5.9182580512665055
Au 7.269189634242291 11.140282342471501 8.182673998205875
Au 8.11160487947529 7.21844389511181 6.410549659763999
Au 7.214683873929164 9.147457098075279 10.28811976966128
Au 6.282233485031084 8.622908166844331 7.625893901150638
Au 8.871464805920112 4.886142329423987 7.609802606918296
Au 9.139196712475712 9.237106738670379 8.189280841161287
Au 7.967566551648399 6.79927121294047 9.306693715969521
