13
Energy = -29.66262723 eV
Au 7.51117847242386 4.744415720163926 5.100937509563297
Au 7.5537108176155705 7.409398595043462 5.789436956161146
Au 8.127026552017371 5.568779577100276 7.964845765007676
Au 8.063109074922888 8.196584603687297 8.383351855820527
Au 5.765811791012206 6.495531801457241 4.031105955136004
Au 8.355723096308951 3.06622392848167 7.070368160658904
Au 5.056405387864265 3.451188486668812 4.815402050714923
Au 3.562300479692472 8.3165382389977 6.892295703238437
Au 3.2437019505653 7.658137688283117 4.281659536442461
Au 3.418204285721006 5.099431189282776 3.453214406237159
Au 5.678395126600616 6.9598557525418565 7.883363173546902
Au 5.821057753031522 4.141290729212255 7.391042726643781
Au 3.975041459137442 5.694148281162111 6.161794384028159
