27
Energy = -68.56801168 eV
Au 10.486268287364204 7.207516614301007 8.465121203703061
Au 10.627395634633867 4.623356179130365 9.25553636585461
Au 9.91887848054063 9.810811335418975 7.786190511517812
Au 8.529489833502929 3.0856000767978524 8.392811098556773
Au 7.847008423489086 8.278687149999097 8.733396782123359
Au 9.450167494358709 5.211116228055655 6.768822577310046
Au 9.555615696413048 7.782722512196815 5.888163031624522
Au 8.108031114563168 5.670537109447052 9.491242839433125
Au 7.567144853213467 9.756670481822626 6.390652726053015
Au 7.97183711470465 5.965270084707122 4.514436581563501
Au 7.2901285391091735 3.6299337301408308 5.9767149801653074
Au 5.609634049084309 6.75214751091492 9.50118305006746
Au 5.959675147285338 4.121231081706762 8.393707952125856
Au 4.511006733035122 3.4472815385229554 6.149921629970757
Au 6.52974575569013 6.529487233601787 6.804207285938832
Au 3.75038586506172 5.6269520886429145 7.671389892810658
Au 3.183762676216602 7.952860111987923 9.104758209150697
Au 5.282900800945149 9.031282973067468 7.7148817229723745
Au 7.933963502868113 8.672388172540037 3.8366979141179796
Au 5.809805270680996 4.424566497579011 3.8305845570026804
Au 5.900317198697156 7.055545476767745 2.9932992263599427
Au 5.362899941204043 9.067336540128148 4.923761255297806
Au 3.370194382844027 3.104787632484625 3.695454587344774
Au 2.882843726439252 5.493532038582866 5.055978388011324
Au 3.140910307566704 7.919351782030456 6.29426261430343
Au 3.6897754489276724 5.494770697171483 2.3521225476079337
Au 3.3049726806512374 7.911219817258878 3.58455858690317
