25
Energy = -62.67611487 eV
Au 9.09376309953234 6.048847937095502 2.4729378011984204
Au 4.596426849111735 7.465981673460624 3.007857087152822
Au 6.440988216472771 5.38361250036357 2.6650196413843594
Au 7.2221709839947374 8.095749313701672 3.0453200943309198
Au 8.49196503514292 3.855924653731549 3.9464994312061985
Au 3.0010464721768506 6.992269799870704 5.15991350725528
Au 3.878965984192673 4.863398914022712 3.5419979997113455
Au 5.403115405179026 8.553187961717702 5.366366213712926
Au 9.70346977405735 6.063555668869877 5.21360720861747
Au 9.938617560787815 8.36751859573994 3.5984907119295904
Au 5.904589899360051 3.563103593321901 4.813375476113296
Au 5.683050078288283 5.9615065022284215 6.31270588837966
Au 3.294392477663167 4.28234691534667 6.167211125562429
Au 8.167599749458745 8.400565748998341 5.659913196721032
Au 8.012675349822041 4.348333472277424 6.591484636979863
Au 1.6281583721787318 6.134041981678583 7.422821191173623
Au 6.577066285730561 8.251437662282994 7.872498138633307
Au 3.86656112251954 7.6785805341696145 7.713468181996135
Au 5.616221869731184 3.3305057494759187 7.578779470900424
Au 9.032292618689349 6.757780714642985 7.749094206736866
Au 6.849431300831871 5.399213190841817 8.901128904071067
Au 3.127108732039957 2.637402622022839 8.35913348973903
Au 3.7815794002327454 5.183475308301848 8.996651749076507
Au 7.957177556412977 7.611122240615993 10.154381865965497
Au 5.180822444731597 7.219793383559172 10.13859941979108
