26
Energy = -65.39509565 eV
Au 5.3924149515737065 1.613548280065149 8.574754745176469
Au 5.758388832603713 4.355521388773597 8.076050396397076
Au 3.727595826495271 2.834310500199732 6.930243247093271
Au 6.384880063122847 2.2375231408678955 6.112640915044065
Au 1.9863725945281356 3.5906117262759167 5.090316110491475
Au 8.940433396844753 2.0927007620371834 5.1064400970846
Au 8.356461331715701 4.160876188688292 6.859278961257886
Au 3.7322580105910457 5.518736248734391 6.106035022596671
Au 4.57219001907829 3.5014578634562095 4.27019993182404
Au 7.199273877198515 3.976893389500615 4.066484064969066
Au 9.581251643765109 6.569904994417419 6.267605575127148
Au 9.898140269304971 4.545596278661986 4.420293310162606
Au 7.668816800405088 6.2607929597364125 8.36551769461569
Au 5.459335904397829 6.065437251955765 3.791869018514511
Au 4.48842851375983 8.048977215315164 5.421191887503971
Au 4.8978405563418095 6.957032537464202 8.040855301997562
Au 8.454086531928196 8.944361690980998 5.333995999567397
Au 9.19575202102389 8.529333680235283 8.036903117554573
Au 6.854447652546769 8.670876509506162 9.434185660682711
Au 8.22990442019964 6.617587535934606 3.821062890708878
Au 4.255774235274462 8.633766217475985 10.099050135377324
Au 6.394959723948201 8.570344996114724 3.38441845687848
Au 7.626844283557261 10.611114725169733 7.566893150638658
Au 4.669151396232853 9.693165884609225 7.6475859886808975
Au 6.077222822784757 10.384478402708044 5.27339565105775
Au 5.500487846055258 12.22938173974416 7.162489691665129
