28
Energy = -70.81524009 eV
Au 9.6084390884869 4.739480745808492 8.890287383790087
Au 10.750895825956942 6.546841765243214 7.071199695549434
Au 11.195590108418612 3.8220155542418697 6.825751310172334
Au 8.778457871676123 7.439371860035284 8.762701961600607
Au 9.792475117138938 4.94702119043634 4.698485336394578
Au 9.48564422694023 8.875571602001283 6.3791078576341596
Au 7.526470373419669 2.8016621035171525 9.017433937889551
Au 8.425934339011942 3.4976393527018437 6.565274096662089
Au 7.18404010449874 8.755032595290666 4.562347936225763
Au 7.069481657625714 5.455344298772423 9.56416854840995
Au 8.00548106600248 6.534354549834164 6.144686920839725
Au 6.83436147956213 8.966370671858026 7.305335628454871
Au 6.300136384154849 8.097357736282849 9.894648550854274
Au 6.866667779658486 4.567782850197321 4.514071111963069
Au 5.000639343081728 9.476861792662133 2.9026751239821973
Au 8.240632126371368 6.575267885695149 3.156252560088376
Au 5.276605286985448 6.719870054856511 6.189512339306383
Au 4.6102437076103815 9.437967549951697 5.608708975783035
Au 5.861751868872549 4.195540041124443 7.248980832279305
Au 4.194132361141327 4.6126534341729295 4.415068566883051
Au 4.214639279553432 9.029910480794177 8.32278562443507
Au 5.478937804524805 6.743092780400277 3.260561570002238
Au 4.499206175029923 6.271843044099921 8.869564838662242
Au 2.9768825724991506 7.908620170388121 3.813695003477336
Au 2.635543876698746 7.631685960855325 6.605061890344539
Au 2.0354054111920643 3.1410339496539765 5.287838997477734
Au 3.1576559552674057 4.7846758325535985 7.088888133633818
Au 1.6923359204221948 5.793551998861704 4.752346215229824
