24
Energy = -60.00599848 eV
Au 8.863630380129274 9.914144090327092 8.55143608389553
Au 9.441357521998304 7.090377513921455 10.48366441145629
Au 5.596552756428859 8.260372081151475 4.495756103445358
Au 6.7603124706424875 6.251995598715656 2.8310354219162077
Au 8.34016279945908 7.904837334772439 4.324768930217788
Au 10.923298241184833 7.777963849808492 8.290311661906712
Au 9.891333996610975 9.187623428458076 6.1026047349600985
Au 4.108179878678158 6.726041077275098 2.6526234514075564
Au 3.0683773458309584 7.271713793587266 5.1048736924181295
Au 8.98721708835988 4.396927406664448 7.487485550552144
Au 7.12511164055484 9.35014059699784 6.463546182383092
Au 8.125897506843996 7.110348598601453 7.845410837115852
Au 6.242075291073848 4.6898462813242805 7.368881734924569
Au 10.155626504563726 6.407472865702211 5.991206395747119
Au 5.094124535717361 5.210834031753601 4.8573751538216605
Au 8.186438556217206 9.661665722835705 11.203561107960924
Au 6.2822202114019445 9.050011240281519 9.19212635036696
Au 7.8324319680808 5.185063774423215 5.099205730382613
Au 10.822251684643318 9.529173650402063 10.435201102381304
Au 5.148008621943096 6.5020835389599885 9.309281027056457
Au 3.7019491599669125 5.637602351173447 7.1913342099570965
Au 6.858064208233586 7.27954988665175 11.336925130116768
Au 7.587810571651296 5.130298822347042 9.742644890922467
Au 4.673664650250622 8.28040290695445 7.160450962268645
