27
Energy = -68.82283862 eV
Au 7.09143441289484 3.1429003230233636 3.801052454692945
Au 8.824296452537727 5.214073387121256 4.418509299639449
Au 5.466536981219838 2.1575634559237638 5.9161196124333575
Au 4.299505712357134 3.5621106266579896 3.8069214989395155
Au 7.859620297274637 3.500168825102026 6.4280312776157125
Au 10.11935723373151 5.058741411164735 6.833045386136418
Au 6.180443543605761 5.668430453608031 3.342755392263187
Au 5.843696148981712 3.288903054322176 8.39055654786997
Au 8.072344018503872 7.718972045202254 3.645471355756983
Au 9.996350761899215 7.054150276524755 8.745078443497833
Au 4.494672264385561 4.672318154662676 6.301987049618352
Au 3.4304446686640673 6.118737429244548 4.102124384869071
Au 9.482030233566785 7.624462369559948 6.031883698204036
Au 8.209002928920553 4.925014538375366 8.765725705964387
Au 6.806507511503028 6.522296764673659 6.095413166847537
Au 5.407106110618242 8.245712718741144 4.015298670826373
Au 2.7452821356761894 8.736641794108339 4.619110629480634
Au 6.314127106524695 4.747550064598027 10.711247698368997
Au 8.688651603981484 9.31435696107471 8.142775012541003
Au 5.442141354057694 6.0350537526832735 8.519514656117922
Au 4.105598054673101 7.3984965362578645 6.541517620194192
Au 7.398707108019217 9.446774261116454 5.706981182861187
Au 7.436868538229675 7.334594414127583 10.041085361942201
Au 5.510401222711107 8.755106604663599 8.480811508958562
Au 4.674591683635031 10.102203899534715 6.084534728236051
Au 7.081545741675984 10.042507968731593 10.290349211048316
Au 6.611309364891101 11.156505967284748 7.7254961228206325
