24
Energy = -58.90963903 eV
Au 7.054348524358408 9.758110883189772 6.976685975303032
Au 3.389841586512622 6.754185124323283 6.758333730764657
Au 7.660302781980308 8.27462717774458 4.661695521309341
Au 6.2305887052382225 7.226857821906168 7.6011881079537895
Au 6.019093022472098 2.64174460386315 6.2353534943940465
Au 3.9026837413725626 6.750090139847682 9.442685894248822
Au 5.588936642569067 7.964371809885815 2.8719126400470296
Au 8.432311708735767 8.099893026300366 9.241676900489516
Au 7.455666479542254 3.500669056374056 8.462902851307135
Au 4.939874702666014 8.750914924903585 5.435001191340609
Au 8.853054720053764 5.781777517282855 7.686285382517252
Au 7.636963992923395 6.032481606061832 2.943343373625797
Au 9.504339874238823 8.358299780648743 6.734163113195725
Au 5.985616063561168 8.296292387599198 10.414982120463126
Au 9.454653735760253 6.156309123265057 5.000143080112963
Au 8.654356641055589 3.585998378758009 5.8712557141284965
Au 4.9848885677720824 4.687166354089242 7.863381972274876
Au 3.368243128149991 6.877475190572774 4.045035110591213
Au 6.768621040725698 3.5034672623238117 3.699176928970398
Au 6.6948234639948 5.551120074746211 5.587751749865498
Au 6.954583559193238 5.743305697754396 9.868445674414836
Au 4.466563151297192 9.217524852665374 8.136720702180002
Au 4.17393437673239 4.505342582110821 5.144120416807393
Au 4.998122810908369 5.2200756115480536 2.4964364881150436
