29
Energy = -73.86042133 eV
Au 6.535085945575339 4.423531184335108 4.159781371177269
Au 8.272429314232781 3.824309809815765 6.6401669072425396
Au 3.9829737684511377 3.7917504483419897 5.1794755899392335
Au 5.429994738918978 5.735085794229655 6.494828864139569
Au 10.853226107251635 8.137946795685712 8.701620411572227
Au 8.323683207028491 8.59976711485411 3.8942040682796497
Au 3.6931092623343678 4.574176969562281 8.422088000694577
Au 8.39210344872616 4.535833524988605 9.47609118383852
Au 6.222903474651279 3.3175802753146737 8.432462273061962
Au 2.3546207697773074 5.746662819668889 6.291332842786295
Au 9.816123738701446 5.894688873011164 7.534002843778204
Au 10.912584135866918 10.499797509562587 7.276983368068519
Au 6.088258031001002 8.748324827750926 9.043051645932394
Au 4.096747901290775 9.936782637976023 7.543641148529334
Au 8.37937694792316 7.269885122626008 9.643350401468812
Au 8.546241312181849 10.495926901817509 5.837066679908119
Au 5.957993102516002 5.950337441341657 9.35808466823894
Au 8.598186528855644 9.84223634703641 8.661174865361028
Au 4.062556004186543 2.033275559435311 7.468061167937006
Au 6.489067675693314 11.243865722784863 7.566046580610504
Au 3.7165373807485946 7.319980768871368 8.356465519541453
Au 3.783052766531016 7.960132472562194 5.617169443182306
Au 5.969131778132237 9.634074438299226 5.37953376448215
Au 7.427187513345849 7.572351751656152 6.83405943696247
Au 10.16780724874114 8.190690195555458 5.960602295849581
Au 5.942022381831605 7.163345985056699 4.148467341330424
Au 6.2376295368465815 2.2554870991088354 5.772638184026804
Au 8.811288536556097 5.960058026033056 4.944969346442594
Au 7.828638938562215 6.238973474538586 2.424233914468533
