21
Energy = -51.52818828 eV
Au 9.031147768750975 8.021840387202468 4.9404035421070835
Au 8.499624586715282 5.815579472713104 3.4872092934525463
Au 8.594855243601195 3.291400924663368 4.677036654460773
Au 6.60003222392999 7.874432370266737 3.464348226619883
Au 8.686646480073948 7.869330108680167 7.635479230181155
Au 8.912440546882944 5.505661101033748 6.277582501352121
Au 7.696051617753293 3.559437912741892 2.13386614987177
Au 6.27109602633742 5.8719517182316485 1.6640298215920049
Au 6.677186301747444 8.955300694198439 5.942633558388901
Au 6.806856781253247 3.698541745267613 6.657074381844049
Au 6.316489533669494 8.62047796837565 8.649418753469728
Au 5.917672407602921 4.550064973538539 4.046002822891654
Au 7.38999802469037 5.654321422589875 8.55817512137838
Au 5.501149807346402 8.738187220882418 11.264031891335462
Au 4.134977654059754 4.226029807096195 6.028311016442509
Au 4.114985936204196 8.93271436227223 6.695445658193839
Au 4.682204827849079 6.806120230722799 5.074056022833413
Au 3.6026409409439992 8.542973931363571 9.320410808934113
Au 5.0150518939585425 4.122389012608265 8.64770313070321
Au 5.248292488171681 6.325626895498929 10.129948854406422
Au 3.628827240535154 6.361014203629553 7.630777544626913
