28
Energy = -70.82888689 eV
Au 4.677320347373992 8.424745722761878 9.980985379241952
Au 6.615944936249039 6.004397682448144 2.4430868342882546
Au 3.4762012452163904 10.155450374789936 5.05666672364677
Au 4.513174802197864 5.450171518293266 0.9139030581540732
Au 4.356218288693712 7.569146347220792 5.344952136113871
Au 10.480691328924163 4.179774357232817 8.437855246716689
Au 10.893119193308818 5.046430531994186 5.925207966360363
Au 5.377403490255947 5.595697231719456 10.01223088218321
Au 9.572059247506404 6.780378798233949 7.919495562962041
Au 8.450581342113356 8.99644334918187 6.652773431527816
Au 7.437232237075388 7.476367591202232 10.084934450895693
Au 10.16262513336929 7.619592853963085 5.18616406741516
Au 6.661885767625902 9.766289111812158 8.5331138598758
Au 8.797595626143137 5.4091943382405665 3.95493469033668
Au 5.813134399073018 4.337734137476268 7.645905483191977
Au 3.4987800953443013 6.80041097821173 8.126389780120498
Au 3.610358431726506 4.968726775039994 6.068245925801399
Au 6.09423582759867 9.843402754738143 5.681076621795495
Au 6.263022201774388 5.1608385274389486 5.0698988646445775
Au 3.2748508069026485 4.174924662467359 8.732236377323595
Au 8.321798349817078 4.386802997046026 6.653490354195448
Au 5.633413208969762 7.244555856222281 12.177302544472406
Au 4.064999003384325 9.37188740739463 7.555200930921118
Au 7.994778220108845 4.883893019157896 9.390800615080245
Au 7.365677957290708 7.76604058668746 4.428165356151479
Au 9.32056314201232 9.180417937468953 9.248575468797728
Au 3.9931687545203496 5.614409980994875 3.481795680943244
Au 11.425091589526913 5.937799544663809 3.4405366809452578
