25
Energy = -61.93804791 eV
Au 2.229633776344944 7.056685035240761 5.155243535158563
Au 2.919806884866093 5.042306365248399 6.924581513910274
Au 3.9639965486988764 7.664347973217151 7.26089524958376
Au 5.284374375105515 5.56943220891651 8.597360734535178
Au 6.021488279077843 8.41199370009522 8.920996530001425
Au 3.7815984816520727 3.74109994656123 4.5294006303848215
Au 3.939591757159168 6.143740824067727 3.1207623631367434
Au 4.751432743576799 3.019860734519522 7.234566073907405
Au 4.491607145603389 8.521062228467937 4.498374284222153
Au 5.290503882295603 5.765527372785066 5.6056152367020955
Au 6.056113245143583 3.16921889400507 9.702001002744195
Au 5.4429024449298735 9.929651306332138 6.62664794027684
Au 8.008036647313382 5.054049259529015 9.898966135300643
Au 6.463810327005794 3.142985006853895 5.033126978236512
Au 8.675806825155096 7.6409577309382 9.374931588949616
Au 7.526395811374706 3.7611947510259305 7.467054136756847
Au 7.271767506845235 6.75670787451887 7.056032597059724
Au 8.16789614053007 9.421733396343463 7.3480487019011544
Au 6.518851770263398 5.113400521091994 3.1560360795287328
Au 6.108813082198788 7.801499262370748 2.416913804662309
Au 7.249658127198946 8.854280334251058 4.763846754486018
Au 8.572910122308942 4.966826784841789 5.186884361517543
Au 9.749514453423657 5.559178416495667 7.74665604479211
Au 9.59137770019786 7.559773527795516 5.744434120077347
Au 8.60862327656602 6.922375397802136 3.2309260686895014
