25
Energy = -62.50790308 eV
Au 8.656659382796162 7.13655094661525 2.525262268751365
Au 4.274640294008511 7.226227261247505 8.85904487421343
Au 10.498122827797426 6.3743609881801815 4.409404272844975
Au 4.266518824889687 4.650735166257997 7.723513330550934
Au 9.823633731259418 7.011255576259735 9.204067756580002
Au 7.839134944238672 5.473891740691021 4.658921603131227
Au 8.076496958026661 6.2812294742711074 11.276582906938168
Au 6.780071814886087 7.1682453704494 6.787117279928627
Au 6.016884782572054 5.238808280804123 9.753047770664331
Au 4.677755555488422 8.143964137754926 4.508993893024047
Au 5.817600060506965 7.758833798493182 11.016928179634492
Au 6.038989331840522 6.4091162580220775 2.7909231868070346
Au 8.628264499999167 4.460223400521603 9.355090093322463
Au 6.171747361587495 9.33061955931752 8.749450067758714
Au 9.435815892197303 5.4699894261312005 6.896551515363925
Au 6.599757619366696 9.799262981590473 5.923668285304092
Au 10.954661089643508 7.733852652539965 6.802392472980946
Au 5.09908734170203 5.362348790248937 5.126104170850431
Au 8.702248099911722 9.111842848012206 7.730484196742907
Au 6.8361533636651295 9.164604840929764 3.237724880442125
Au 4.104280342669538 9.31906159924479 6.978324217978882
Au 8.298440906617401 8.973325504513065 10.498193730025351
Au 8.876694146241622 8.504470678501738 5.0236796368722105
Au 3.1174334107913624 6.81151389691545 6.394179946445596
Au 6.923840230495089 4.408973506729535 7.130064850742113
