26
Energy = -64.49346161 eV
Au 1.4989477089366114 5.695452687609359 5.410447386565824
Au 3.7973708895388625 6.070346993210832 3.9761440796558842
Au 2.1066805383036433 8.240534525751462 4.373135876533071
Au 2.578979922446947 5.109204685641327 7.907563744877725
Au 2.2885647260340307 7.712243463376078 7.049398822721762
Au 5.997931939579472 4.471674890292692 4.492933225831108
Au 4.053397664671426 9.606297241091113 7.736916176670269
Au 4.488954863507208 8.755666398034533 3.2639390060229543
Au 3.3909679339346552 2.426190645805316 7.845164253285996
Au 4.657241922401651 7.03691724356575 8.334083149137536
Au 3.516755694089783 3.8083594390882265 5.484824075796819
Au 6.539844784517511 8.74464685804805 7.213081010981971
Au 5.1392421178714285 4.416325289735379 8.719476085565486
Au 6.260987670298842 7.21131482183764 4.592189257276168
Au 8.932871811372141 7.418731175250413 7.619043858680335
Au 8.702752064893872 5.821921843479293 4.491414304156535
Au 6.757317606083789 5.80261787957969 6.883020672536197
Au 7.124625369408889 9.129088006146413 2.8613510460089735
Au 7.818958655014711 3.7968428773784497 8.42546476426602
Au 5.850380274195998 2.625455296920196 6.678278220535973
Au 10.673166216334486 3.8741029071659923 4.552004717613048
Au 8.236267994897318 3.2588155336300826 5.623245194143678
Au 8.453291320407505 8.720003295275854 5.301678823256724
Au 9.613993792282486 7.9035889264337875 3.0015219023955324
Au 9.715991108684673 5.564443244650492 9.43373226513555
Au 10.05810558608517 4.98501029483522 6.882363946164711
