23
Energy = -56.39191159 eV
Au 9.65461717504151 6.426366322106388 3.64701949807056
Au 9.669793440192395 8.958480110003833 4.556893428100133
Au 8.563230447483566 8.714558457561328 7.0864348099057235
Au 7.134908946423505 5.628352918593395 4.386060090579398
Au 7.046769534795629 8.394465991989142 4.568745444153574
Au 9.43321796050066 4.073081434079989 5.004947435029916
Au 9.706348499825616 6.431698350899366 6.36651654693956
Au 6.301008286105161 10.178684822730276 6.847943105056302
Au 4.76219814521286 6.954694091542595 4.369770967375579
Au 6.481349413416915 8.453825441970801 8.992981157482182
Au 9.187337835961861 2.3511857908253377 7.066236836143002
Au 8.158492199929993 6.369990807614546 8.522955890855448
Au 6.930593672690232 3.164497775258961 5.827523808405727
Au 4.5042601451843876 9.649494781269421 4.908678125407548
Au 2.3755304934424806 5.508107823181243 4.244431176999399
Au 4.709249301285552 4.246669996794266 4.835279211983455
Au 7.350087155219181 3.816988852135396 8.517925997666799
Au 5.414949741305821 5.920756151112536 8.812755193816656
Au 2.4032162976043856 8.014132614541664 5.499293568656215
Au 4.335151377346009 8.209262651063877 7.407157843805604
Au 3.146340053064796 5.742428810428308 6.927272984239485
Au 4.78628085774268 3.4793920357234693 7.46826169870127
Au 3.074701798437761 4.443546653148197 9.278373073637436
