22
Energy = -53.51143759 eV
Au 9.0350200791876 9.21902428274314 5.664431220351443
Au 7.614541829203849 9.242079813312348 3.2744589565224858
Au 8.89525538378932 11.425426169134994 7.285547284534024
Au 9.230476478176895 8.961026280649055 8.541100471158341
Au 7.399002821133848 11.515940001661624 5.081716861298139
Au 5.229699409660871 7.533661463121935 6.617154851335441
Au 5.306579646646148 9.592526594215183 4.967267240723847
Au 6.7348787135348065 9.694103707870442 7.323141188659891
Au 5.853489363401534 11.236755509136628 2.861507451102885
Au 4.866097706413412 5.838262423492469 8.80240336561132
Au 8.634695929254988 6.974748321645385 4.184520944718709
Au 4.455494496480705 5.035345637281267 5.927588874328644
Au 7.18895448820204 5.327733231150173 5.771663501537255
Au 9.41545931620765 6.658612294172083 6.7599164189646
Au 3.2397151729826543 3.790121528051209 8.086164834622116
Au 6.118855900665359 3.4404956358306964 7.421548853942342
Au 6.927647957612291 7.5465206878990205 9.00382919019655
Au 5.078247655467537 3.2396450600188618 9.97834292227165
Au 9.594045681903536 6.408898532707808 9.48596130888593
Au 8.773920565991332 4.29442479261208 7.8696512059375765
Au 7.6570645313894135 2.3985682151682983 9.521213642841257
Au 7.237563116873127 5.080279249537861 10.10371433647133
