20
Energy = -49.28951401 eV
Au 5.783555180833352 6.9756624008421415 3.486367136680447
Au 7.441428661142919 9.222472666303322 3.5804390253875744
Au 8.546395792460759 6.711435350647451 4.034798924289261
Au 10.075926802888391 8.942790317373323 3.9167975798029286
Au 4.4035881809788835 6.907744953495337 5.79750804879407
Au 5.1999325557848035 9.425705268835268 5.038341225779516
Au 6.733367634077786 5.0636473530838435 5.179193720875566
Au 7.786405473945109 9.563325181594463 6.300975978690761
Au 9.449966435999055 4.926697932230366 5.854706357990529
Au 9.859785361599235 7.824667477544118 6.429343779958803
Au 7.537762195701838 4.461176068915818 7.747303846478885
Au 4.7968779962308155 4.462776850885865 6.959455735644056
Au 5.542383715593453 8.76894709829655 7.646039964932469
Au 3.785795969643743 6.745557569987777 8.387356844353047
Au 9.926578930991058 5.934682632975651 8.339659573423793
Au 8.105354654133592 8.091935485991513 8.567386553506086
Au 8.013082417433438 5.820102885204211 10.20818924335409
Au 5.55087943597156 4.710714840083193 9.561694449893638
Au 5.866952475221967 7.559694599832621 10.086015576815818
Au 3.726179950628509 6.01246288713699 11.010626254608795
