28
Energy = -70.952894 eV
Au 5.160930968389577 9.890150579846013 5.577153762646176
Au 6.691011077985914 10.747892358844194 3.4180412063176755
Au 3.5385979818100886 7.635172433492739 4.970109149754423
Au 5.730717197301266 8.197352100326098 3.4112950961458424
Au 6.3376585011733395 10.007412601529403 8.045887937001787
Au 4.811652988561742 7.846737805727891 7.383325469392503
Au 5.009299164042574 5.547909347845418 3.9013245174544453
Au 7.968393674502209 10.346249694749154 5.785202458412777
Au 6.983419870815105 6.099971102851189 7.021378716229298
Au 7.752306087713249 9.883944231561284 10.385370992455577
Au 4.27000803568186 5.320877317243195 6.569268258080172
Au 5.933103248745527 7.73932628574974 9.7807292928598
Au 8.50371836536088 8.632676558545555 3.4841161240307645
Au 9.080121428694268 9.34059310651067 8.08379957331443
Au 4.8229959728917 3.01825033597526 5.220518338086798
Au 7.455477474618906 6.187816706915454 2.6772192825865457
Au 7.199689157023542 7.954402859989309 12.220597612398935
Au 10.12880933565364 8.649561833274337 5.649657735301526
Au 9.14019981423184 6.231243327018135 4.85371650061709
Au 7.246945928038089 4.229728771356562 4.6719283792034965
Au 4.069120184634683 2.882518311220006 7.954515401728768
Au 6.841099542959855 5.395336859452931 11.3278861013977
Au 6.706027256381565 3.1126654213766694 7.515822661663119
Au 9.692455867527507 6.651874863301514 7.577983208799928
Au 8.755935993493953 7.210455674891894 10.015027817828797
Au 5.261504809333763 5.10641445607675 9.128962956768738
Au 8.325833756746944 4.564808376579912 9.22316182553418
Au 9.099019072178653 4.084709434240954 6.6620523804800005
