21
Energy = -50.69688973 eV
Au 9.554349481951864 4.021245796253032 5.269381454813934
Au 10.273315233088379 6.658337341896474 5.869453933287762
Au 5.955165446545204 3.0143644303377872 8.668306836184529
Au 8.182731220332311 2.682645330967106 7.118375436658266
Au 6.815122940784375 4.120234757164996 5.295874645641801
Au 8.586681371197448 7.444399809916534 7.973028831063384
Au 8.403935721879689 6.075814603777705 3.8362741849507604
Au 8.159456638498154 8.300063786627533 5.328006164121898
Au 8.804967652459045 3.0981488211669435 9.71489380677523
Au 7.3180542537009226 5.3087529873141746 9.160539904203942
Au 5.175146443847735 5.179980062947067 7.189578678998245
Au 9.824494982131455 4.982627402280845 7.99629877578356
Au 5.849056147052092 6.603038629088745 4.804308795159819
Au 5.715878739412073 9.36908999641251 5.056692664789626
Au 7.2556898161568695 9.811631555199453 7.433150063947449
Au 5.914079156565198 7.55225066007825 8.772105609938212
Au 4.060084906457893 7.579985295371556 6.629772851391249
Au 3.168129932649637 10.087913537142567 5.7074817900382
Au 6.123636500110572 11.821394047075017 8.909891876791981
Au 4.48011332055404 9.74403842893947 8.229407842304543
Au 5.18708483629154 11.762110945874955 6.3955865677979595
