26
Energy = -65.11283842 eV
Au 8.273451149401717 3.34291861996643 7.162415782371238
Au 4.262227191578978 4.690373019094324 5.074563182667493
Au 7.801550693355762 5.240235486206497 9.133161150767517
Au 5.458912222657465 11.106760155741831 8.33755066876562
Au 9.667474263823017 5.696950167582254 7.087574243264354
Au 6.665254714577387 3.47531155069429 4.921083359127083
Au 5.277374651224225 6.357772433307535 9.409737785126866
Au 3.0905689021787457 10.462291314816234 9.541745873345327
Au 5.952049952346342 6.33629934439746 3.2275705007859408
Au 5.000416681624613 8.848620820617214 10.453791894552346
Au 7.43210803540358 9.86109100562607 7.173044230630997
Au 3.2950587311647856 6.23367886319515 3.0656350804032866
Au 4.214660647155574 8.792706585766778 7.668961757183395
Au 5.76842818024368 4.470214914392497 7.3687730669103635
Au 8.844194368730365 7.901172523224823 8.60524106148837
Au 6.536189965819062 7.241642653993109 7.026991303973058
Au 4.377277513772099 7.70441503915406 5.1387203230243035
Au 6.869610400345531 8.660030284955187 4.566657865798342
Au 9.289227587898468 4.207549344892337 4.7335035870739715
Au 3.5557912872955773 6.180323785029141 7.293536197007889
Au 8.587196069512876 6.733145582327973 3.558453002824774
Au 11.022241990725828 6.329633973343207 4.701050230940886
Au 7.23361981074164 7.533884046917784 10.936440367163
Au 9.683563540925453 6.472350552721889 10.753168350991599
Au 7.671957814483199 4.351431453605713 2.483189259250875
Au 9.211803730820797 8.12364967813155 5.894475375356851
