20
Energy = -48.66255048 eV
Au 6.640927965589137 7.911624607820751 1.6228626441918719
Au 8.461780702732444 6.280266789371173 2.8970607544243356
Au 4.656027988944748 8.590520528163106 3.4202474780761505
Au 7.394005518128798 8.521615522745146 4.287782821489963
Au 9.500449995732412 7.094188299442094 5.284430066852358
Au 5.776249071496103 6.067376462957247 3.557891445778723
Au 7.80843299423739 4.840772099833145 5.162273985036864
Au 5.425526393624094 9.608550058473552 5.823459757466104
Au 4.122335012733747 7.102361921207471 5.688410259573801
Au 5.029124831011455 4.415634987174223 5.452514759882753
Au 7.533996343637558 8.148555656318033 7.039726765014965
Au 2.7591683898464807 5.063420395998964 6.881970908137696
Au 6.882802536137024 2.588836428958864 6.384574704465941
Au 4.792659001152866 3.5037382821373506 8.024576013607273
Au 4.937535064599844 8.316707931982195 8.10822387581231
Au 8.95825887316261 5.784962791379996 7.557893096992438
Au 6.838897284012904 6.590594008672065 9.17071857348226
Au 4.085162759568225 5.980409908662769 9.049349824356227
Au 7.462499940036053 3.889037038962934 8.675892859492052
Au 5.652344575713444 4.419011521836418 10.628324647963527
