27
Energy = -67.70992389 eV
Au 8.869668791232929 9.030572215111167 8.716648598651576
Au 8.914943464717869 10.931039310136537 6.695879221636406
Au 7.742025566479445 6.731249697605155 9.76606612807308
Au 6.011551990613726 8.601863918265595 8.589900794888647
Au 10.664176402135139 8.78408732507346 6.3527131484999755
Au 5.114703308719761 7.03799623995148 10.698334978711312
Au 9.690328980169522 6.519162329242269 7.635767451804715
Au 5.772240876737708 4.561901218852379 9.519806918831787
Au 8.339280891126103 4.295271413988737 8.516181734657176
Au 7.789879044292758 8.336041504264124 6.238308583432764
Au 9.032825438150052 9.694683527428873 4.154259251885047
Au 6.130144676647483 10.612568331434973 6.663354816243796
Au 6.541483643663558 6.074796608895639 7.092032001181343
Au 3.1695924248283327 5.122441206582856 10.321059482799654
Au 6.274338462893484 9.330051451609178 4.07923045826691
Au 4.621683992676048 8.339866261057104 6.1646073427782495
Au 3.849901212735424 6.741013456133658 8.215258620171726
Au 9.713844915141015 6.961640838363465 4.535249713119563
Au 8.70223612160011 4.670206326764897 5.804292800100873
Au 6.188281109949389 3.280526584258705 7.105962264485525
Au 4.240077784798017 7.502770691537706 3.609380871017612
Au 3.4953899713714924 3.9563584323350676 7.844779742322283
Au 6.816240095480926 6.58579516768356 4.218736569757571
Au 4.10658304238156 5.616213677936811 5.621806994178399
Au 8.717457572834274 4.9079232040628025 3.0601020797065326
Au 6.426275588364544 3.8595750854123847 4.379960213245514
Au 4.091424182329144 2.8783848210416147 5.389814769076172
