22
Energy = -53.07200356 eV
Au 7.822428069129796 3.857372205751298 4.4176082124154235
Au 7.415113619151522 2.651475327199863 7.102497202811053
Au 9.15452721075994 4.835816145939674 6.634024072932645
Au 8.730072073565475 6.459235274882568 4.3880427580643975
Au 5.761798596243166 5.4043537015038385 3.4206410413170185
Au 5.27513180843528 3.534471666064628 5.436806983702564
Au 8.080173410501498 4.440371709920591 9.224765536962861
Au 4.8888047025575965 3.2769494217246162 8.202676072321438
Au 9.007937199804719 7.5549240177950825 6.943142060750326
Au 6.997179034135404 7.7966354372071045 2.6389831440365916
Au 6.441894423636398 5.412257823037079 7.204386053073216
Au 8.134427648995596 9.263452573292215 4.799636621468553
Au 6.25335870095691 7.2934332785368055 5.415775219523348
Au 5.4944800342597375 5.356948168106166 10.00164595295728
Au 7.447845367252824 7.203927337824891 9.1656296802748
Au 3.708633060802535 5.802974659552736 7.854532383278979
Au 3.5475382559191777 5.645036199169512 5.124276388660158
Au 4.288504922026177 7.9114797864213084 3.5245861364230713
Au 5.388010605334545 10.046489273940228 5.0890836217046465
Au 6.802681382410235 9.234314568116428 7.366601706528571
Au 4.835324054465184 8.094298730117503 8.925629050652661
Au 3.7784259143878356 8.152323927828567 6.376362089368572
