25
Energy = -62.57837874 eV
Au 6.197767870964781 6.074041845151365 2.2751344876019086
Au 8.98462236352059 5.739552574935111 2.350332667817924
Au 4.861075450061481 3.876286055468993 3.071476181966811
Au 5.611464460009147 8.716630126483397 2.0393829543770603
Au 7.46082724352023 4.311227284093863 4.127839771050101
Au 7.880350689537523 8.027471444238676 3.392420152584332
Au 4.4150890217293535 6.251288552147144 4.454801549020731
Au 9.113245902910341 6.304569465336017 5.155677055738649
Au 5.438229686988465 3.723071661910936 5.80427275067212
Au 5.579450588685055 8.77809152714355 4.744654865711739
Au 8.04614401298584 4.256831700929111 6.862779673664244
Au 8.187010054519524 8.87485548338636 6.005181385648037
Au 5.894599806126427 10.032393484216469 7.150151972445078
Au 8.131910036416913 9.487273621196126 8.676764526219902
Au 6.484589619873868 6.501513540307624 6.332118806910228
Au 4.122009928190682 7.884845939998032 6.928019426019774
Au 3.377906692399071 5.23259086440252 6.850799765781985
Au 8.93958870868501 6.863918071783517 7.841425410959215
Au 5.670456114042506 8.33800382299675 9.335848951998083
Au 5.616825013538841 4.521884288448299 8.408142509598367
Au 3.6779884097778868 6.440672382139489 9.293694544794127
Au 8.149944846911753 7.580349648963619 10.503521513868602
Au 8.164016947684683 4.7756986082826804 9.496769173581848
Au 5.857454689917205 5.986738598169889 10.78919711313323
Au 8.154740938683283 5.4375085055504835 12.126901886516208
