24
Energy = -60.34427151 eV
Au 8.520305815642308 5.7343497750431105 4.40691803801174
Au 7.684153806127146 3.4564216677397264 5.78175577579382
Au 5.704205749884777 3.8603591651044438 7.566778446151512
Au 9.874513864253363 3.3194190778787225 4.105314805065359
Au 4.116569857483876 6.048956645132666 7.617520813508369
Au 8.313095697858131 4.41876241343457 8.437413536682511
Au 9.774866365698697 8.960698297338327 8.133482585304272
Au 5.12562097152877 10.083589697485786 7.583184791219415
Au 6.694703187637906 7.712730230754161 11.306508794499956
Au 11.232214975710331 5.8433382560548095 5.0670978905645185
Au 10.334957019904483 6.299932267832953 7.632393517977919
Au 4.729246701113384 8.090660445737607 9.459441190156586
Au 2.701731355867916 8.425047235545016 7.733548686685239
Au 5.607084115494952 10.319831604332848 4.848041923131346
Au 4.420571473946039 7.886727536065869 5.550672257798299
Au 3.026368885849166 10.33732834121078 5.807996462021264
Au 7.2188145718513175 9.291870444815375 9.11278187743725
Au 6.084906086265046 5.608296649558301 9.618638072084833
Au 7.771410436986429 9.845206210612448 6.468050461822998
Au 9.64011897715332 8.049220931354817 5.506927524019731
Au 5.915258664283616 5.617966053114744 5.484067506612897
Au 7.029421934499745 7.975552423683197 4.561923287346253
Au 8.636532174917361 6.880056198418407 9.619576181380967
Au 10.317302983354232 3.776886973214913 6.723653165262746
