26
Energy = -65.64388617 eV
Au 4.114583822589991 5.451441991554108 9.871467843720689
Au 1.9663120280342905 6.578955339950188 8.667322246258854
Au 6.692513612840561 6.781230012260952 9.806587464619934
Au 6.348532826533644 4.226114338115626 10.881682213516132
Au 4.484793984452373 8.005236750611028 8.744287633217104
Au 8.593837723760803 4.787347875949315 9.370457439556663
Au 7.03634902316762 9.043984161270032 8.345556224746009
Au 6.090727450370995 4.441060558752558 8.164939460403467
Au 3.798951995173961 5.548525211491206 6.9471079720754165
Au 2.572060875432701 8.495213991868896 6.834174080044857
Au 5.169157063762096 9.496585661088046 6.393179568049291
Au 8.997025390188778 7.141420795952101 7.8753384552430985
Au 6.441346467037774 6.871576776414909 6.540855116302961
Au 4.001625778416265 7.458116805000602 4.793539231300402
Au 10.7704718885597 4.442033250567098 7.81583913961481
Au 5.814847820810825 4.202048341214899 5.507657279444605
Au 8.395110244336882 4.721820725062596 6.429652316335821
Au 3.5351658526352905 4.786965914821234 4.189249072092562
Au 6.302933799490299 8.759523266664734 3.996863916436827
Au 8.287431767975644 9.172377707966533 5.943313203804323
Au 7.87511055950143 4.154700282363966 3.713050201071696
Au 10.731440962527644 6.244714680441222 5.846929962274935
Au 5.911975227044018 6.069968475924601 3.4042257875975706
Au 8.475576306116562 6.824404360552884 4.170444743180308
Au 8.656991386894065 9.406925955084862 2.9034131006701096
Au 10.61874788011515 8.499366265428684 4.484948126956764
