28
Energy = -72.05509777 eV
Au 7.95521755677872 10.490260782249274 8.98907590099139
Au 9.287971274345683 8.314165178675907 9.992424958999134
Au 10.272936331035462 9.553586477941433 7.689430439734402
Au 5.524136556464228 10.33296094202218 7.878318628237301
Au 6.57313162260404 8.096300537225291 9.43457872860012
Au 7.8275301857722654 9.66044596577867 6.321048770660018
Au 3.0765572684564306 9.958803259596657 6.76985168118414
Au 8.203624034273881 5.838140582266249 9.847505692563288
Au 4.332779652347584 7.762748667183399 7.850610195399488
Au 9.683571245858445 6.867700974671214 7.61192073817806
Au 10.06973022774184 8.43586184875908 5.20708230001426
Au 5.299870466035493 9.024524576787847 5.353396798240571
Au 5.661285081451411 5.519187201259737 8.73836362745548
Au 6.765021981107185 6.821016143437167 6.531149172621732
Au 2.8339908564070555 7.594686678282448 5.371428207244679
Au 7.077746554659765 3.347552451580757 9.551417555339244
Au 5.128531401089802 6.634366685423756 3.9494684653550647
Au 8.35472867729893 4.483307148409083 7.374661071514629
Au 7.83342611362074 3.4282032616815727 4.9115306340037685
Au 9.183650821933561 5.82283542973527 5.061709627794108
Au 7.611580262031519 7.956550045063916 4.084699672509304
Au 3.916008836186031 5.293393448537731 6.646595219006671
Au 2.7870370526539556 5.180668178951488 4.135298763412237
Au 5.792212535603459 3.2398361895004206 7.078209837364827
Au 7.423188286755582 5.46506373026932 2.9581499063392216
Au 5.302572584385878 3.908886657127941 3.5978568620799045
Au 3.5697290688051684 2.8338639713081477 5.471409442804037
Au 5.974065522967596 1.506591571135365 4.9074662682795
