25
Energy = -62.74848089 eV
Au 5.748815331896458 5.138183980431446 3.3775902028436477
Au 3.639032277525493 3.370894395282944 3.652023288610018
Au 8.109736912290515 4.118309019420771 4.269886243994878
Au 5.379134545342396 7.869133683311496 3.815913529506361
Au 10.507235736876918 5.490757613686951 4.194733684622659
Au 8.015226129795668 6.81149354354592 3.9218064411144202
Au 3.1958195044638265 6.077791783507008 3.9034096741707884
Au 7.559311851315894 9.502544642396764 4.138402542311782
Au 8.057472213640677 1.6969136488595835 5.474536723726233
Au 5.73117762739206 3.207841652482044 5.583723100299987
Au 10.224563137091994 3.3583965836347676 5.96512691188756
Au 3.1157265794147015 8.262371007675696 5.467146268539699
Au 5.398970648603169 9.651705458778293 6.011047556698885
Au 1.3414695659705531 6.305345396714297 6.091334036180883
Au 5.6718805527068135 6.1633917581999516 6.060997564741362
Au 9.276505242718187 5.89079761808977 6.580859367302563
Au 7.6878168559574815 8.120289921738493 6.517706642519776
Au 3.3297544480392287 4.4121317980710915 6.209450226814161
Au 3.1807486113702113 9.38799145307635 7.896295045420475
Au 7.857517628977689 3.6074285397994075 7.508539294887701
Au 5.245747176804838 4.329979979316672 8.160109807421897
Au 3.3440344835593114 6.571625411221619 8.011514758169533
Au 5.629118550631928 8.211081850514251 8.36725071787703
Au 7.423386607910068 6.1285935404955385 8.525664255579935
Au 5.204736013965038 6.189943954009988 10.16987034901888
