24
Energy = -57.97335064 eV
Au 5.024413003185453 2.5889938505524395 11.136920402117157
Au 4.09578545812497 2.574402531138165 8.530527150191782
Au 6.0536719509898775 0.7578817984620373 9.233249351348823
Au 6.638002142531669 4.727428420902417 11.692132325224843
Au 4.922085603987881 4.954186784564068 9.553891533496108
Au 7.4294858081465955 3.107630161187387 9.625126261009704
Au 4.677433964246083 4.596414906889326 6.8289261325510635
Au 6.632134088923319 2.4672023487062167 7.091326408314939
Au 5.581745122010509 7.129438681206591 7.935675182089672
Au 7.61589568353904 5.883892353225294 9.316700226462318
Au 7.05261571452412 4.644613168118735 5.376380021742586
Au 5.163890400643466 6.5992933519087975 5.0865937758508135
Au 6.8386676484537015 9.089146495190564 6.573664953485075
Au 4.099138859375108 8.880597185684683 6.351238620126293
Au 8.81355538002762 4.157914633693271 7.406784897749511
Au 7.692752878507152 6.8826473060741575 3.961970393479716
Au 5.725647164286609 8.80602008817907 3.6260134008950544
Au 8.392861181694327 6.806083665887844 6.840511586389094
Au 9.269887526214236 8.853133860573086 5.180331118071093
Au 8.304885837512265 9.18540479975296 2.592463070781919
Au 4.975571735292132 11.047082932346683 4.96994588590209
Au 7.742751673692933 11.071557483503014 4.928772205716184
Au 6.313136760765636 11.381565203114901 2.618473445771468
Au 8.009545627034733 10.953788477596367 0.6510190294836034
