20
Energy = -46.34869891 eV
Au 7.7371056169436905 3.893826645902952 9.66437043399257
Au 4.949961831740496 4.473269350257821 9.703936418254944
Au 8.247103323849505 6.295123693046372 10.742187641381172
Au 5.460765746962973 6.8770324831323215 10.779870336871689
Au 9.204605184877583 4.5426458025954135 7.468163749515927
Au 6.466646890991948 4.928233027197269 7.428327009360392
Au 3.804736521811331 5.670759932081126 7.549001493993117
Au 7.06106041760549 7.714982289255372 8.678190695902437
Au 9.720765779496718 6.962229908601303 8.556522978121139
Au 4.320702809475339 8.094413509265708 8.632498829435626
Au 8.240378146102238 6.832721064367742 2.923784847959994
Au 5.45354413359084 7.412848834063036 2.9645250611788367
Au 8.754828182360177 9.23348341117505 4.000411206724029
Au 5.966215494301654 9.814339279500484 4.041167073141157
Au 9.384299235282008 5.611553213873986 5.066929236813337
Au 6.6405553716343615 5.982176904164098 5.020430465718944
Au 3.976491366578302 6.728675467231242 5.142989818559185
Au 7.234418518910854 8.766524115565037 6.2708189171606925
Au 9.898297709020923 8.030582651742073 6.155676909148308
Au 4.4935902705260125 9.150650969043344 6.2262694288283775
