28
Energy = -71.48854969 eV
Au 6.382704294716149 10.941862287481412 8.386787268957814
Au 7.4720996974617675 10.56719740733582 5.843408569063567
Au 6.079093736177501 8.439665822557181 4.619855320532767
Au 4.715375211105198 10.19611354254059 6.280415257993982
Au 4.047976924932923 7.5081925612374025 6.329458632111579
Au 4.593251147080337 8.880419322712797 8.82491973562563
Au 3.3089051511305665 6.4495197845851155 8.790802040548229
Au 5.337672910466377 5.705882784873645 4.661835408134452
Au 6.935386367603825 8.147148089801 7.411505007707806
Au 7.507427543094714 6.56631916052534 3.2628460819624174
Au 9.012314396697064 10.363885350188996 8.36441659732376
Au 8.851476364244593 8.716649083228942 4.291274968114293
Au 10.172188597416458 10.540173628144695 5.886631570462321
Au 11.353356511795987 8.074025230233541 5.414359481394584
Au 11.528681399188933 9.216978845910505 7.99370764477634
Au 9.94430571168586 6.012010645324211 4.415449361255195
Au 9.661726157944207 7.279487943715101 7.487717381110586
Au 7.783348688537243 5.803279968531136 6.220341791039809
Au 7.22008922216098 9.036853253167545 10.161900072382801
Au 7.920613930429947 3.9785381082519873 4.241518408065358
Au 7.743744442622326 5.866378518378636 8.905523597252706
Au 5.497855707543902 6.84714219620032 10.402034507056621
Au 3.727622609114111 4.8005842512379875 6.669550797865626
Au 5.314850092735412 4.310769367393901 8.818189112316336
Au 8.242427975236268 6.815936857735739 11.451992676487057
Au 6.122197966596175 3.491227240535811 6.289622512768619
Au 6.724152360505335 4.517959548334986 11.134818695736811
Au 9.983685234836472 8.363790346881233 10.09518076323483
