20
Energy = -48.72950301 eV
Au 8.478552156002086 5.211745112611198 4.071861757392027
Au 8.498261721176545 7.556212724367279 2.8618657581790883
Au 6.0688784826805415 6.720855901162067 3.914512338153431
Au 7.072277121183083 9.371677057572608 4.488618417925236
Au 3.9903612461082787 5.9051211035841735 5.6285083892567
Au 6.16318996092624 4.253172143901983 5.335297993532502
Au 4.564982493116247 8.570848347395609 5.349380290670718
Au 9.053324941584872 7.7749910750621805 5.592110531512699
Au 8.558987148949045 2.98835250481816 5.682805540603677
Au 9.901796230975414 5.3371350125304975 6.504846228296565
Au 7.553458720905202 9.430989614996644 7.191562309364842
Au 6.310315968638191 6.893878045367639 6.873739888101601
Au 7.685433162845662 4.323089932665528 7.876127796855295
Au 8.680171357753423 7.0013607673101035 8.294740627132178
Au 3.8545278910343526 6.993863797240847 8.245714973336735
Au 4.841299513488418 9.569059020784618 7.852093911901991
Au 4.884062165146299 4.413488634564273 7.8295716284262955
Au 6.669017161589422 8.481676469141927 9.606302945269404
Au 6.429880374613371 5.752152824072948 9.721156714244895
Au 4.567490040917704 7.276597770483862 10.9054498194786
