28
Energy = -71.35619483 eV
Au 8.006932973328222 6.466553830179063 3.994923582537028
Au 9.36991936949905 5.029197126159013 6.013203180008638
Au 6.82518767157642 4.20939960329701 5.227554436995196
Au 5.7496881540235565 8.043603894951932 3.6054303849867995
Au 5.8839107117721445 5.281839928654225 2.790559129644056
Au 7.865874527777419 8.940314714693562 5.243320001802766
Au 10.334936659542054 7.501786034185648 4.959388509261479
Au 7.602988203235042 3.9135406034646354 7.9220806528141425
Au 11.485511700400345 6.49069755263153 7.250957329728557
Au 10.226721589584498 4.419767110170093 8.571622052460716
Au 7.35883204673582 6.732101072586443 7.045404569656908
Au 10.207993183345758 6.974157518943327 9.670430586709287
Au 3.4096098109111725 6.43291173314172 3.1759485210225398
Au 7.309255006320016 9.766993006534136 7.917266017541534
Au 5.269653398065935 9.535316524251588 6.081688288152511
Au 4.916487074549399 6.602694797248885 5.8662176640180395
Au 8.29270012024053 5.011393826088299 10.43827774017061
Au 9.410529360665008 9.64514324097499 9.762524106785149
Au 4.907366024919089 4.094277218703387 7.262827514660778
Au 9.785578084791931 8.683461345700383 7.303445309274764
Au 5.748194477133373 5.464864848546839 9.501087700665312
Au 5.1732250132426945 8.025716485525862 8.471742840182191
Au 3.1755000432888836 8.804461840251218 4.441623730196034
Au 4.117723982895757 4.131278128455284 4.621976411207904
Au 7.537422834764365 7.5934412254580765 9.812273890808369
Au 2.2580251806395197 5.994730665923519 5.729750761885117
Au 2.819103744795944 8.433426426107111 7.097447326749639
Au 3.2353811456981423 5.980485519190535 8.382501313028868
