23
Energy = -57.16574288 eV
Au 3.560320725997799 6.566211627370598 10.420215810978325
Au 3.9580098494511895 7.048780606381714 7.719607209513809
Au 4.888570076626587 8.823325028701039 9.766102831617317
Au 7.780373741088254 8.491435930776822 9.508832074622749
Au 5.433839217895333 9.36231316985639 6.979563187097873
Au 7.045602560299689 4.0788450021057745 8.084213928293112
Au 9.747127309823144 3.8631516690734786 7.573563520289794
Au 7.03211704697689 8.63242052505197 4.678049115548218
Au 7.085076345654259 7.075287595175227 7.040621931738455
Au 8.92400801016802 6.0598022611121305 8.922807870554024
Au 4.433693786818717 7.593276219027837 5.079110903660633
Au 4.414816741652927 4.463301394427333 8.765031236308353
Au 6.239491887130757 6.271674481191397 9.739617066119784
Au 9.220485908584081 10.80520187249816 9.128688996082852
Au 9.802292257237838 8.713181315074223 5.117738238721422
Au 9.029598658580948 6.559768050952256 3.694400796960013
Au 10.177522428880104 6.219145098962914 6.219590591887821
Au 5.248109673978995 5.038978288142187 6.147265513273737
Au 10.04767409337414 8.463071913550996 7.849638902029798
Au 7.948653611657094 4.6479740586035385 5.521710998259869
Au 6.478786415873897 10.88637427832359 9.060025396741034
Au 8.074911505222513 10.151984542463595 6.711647095786143
Au 6.338744367544305 6.092251321891812 3.8322940835773665
