22
Energy = -54.98596181 eV
Au 7.657368906959049 9.269919189637548 5.4665983748320315
Au 5.424176943463535 10.907211364085732 5.547134350974286
Au 4.844629497881433 8.479046447103096 9.576034245316917
Au 7.569547640901039 8.7522520066471 10.018584230577726
Au 10.202098660019189 7.8093716525507535 9.935767703115555
Au 9.477200075899034 4.863937471980139 5.421622150103687
Au 11.953558224166576 5.900555273369735 5.993305128903081
Au 3.55337322910331 7.147119083689246 7.517546191756519
Au 7.358478348097316 6.604906282867812 4.859940107299633
Au 9.816073902554253 7.700145508026632 5.621054941329335
Au 6.9571447195943215 3.8626885782657263 4.8777132771758955
Au 10.071825421776307 5.8131653336082065 7.979173226983496
Au 6.109778369674915 6.878169271653643 11.437101687890705
Au 7.556313316906207 4.672853564819657 7.465580866060951
Au 6.569842745976706 10.168360704681852 7.934256234804575
Au 8.125618526420036 5.96767614147401 9.821497470234506
Au 5.174166858309098 5.446415208955947 6.201960930483685
Au 5.126952225015939 8.146973687569066 5.4790821351096515
Au 3.790752445230663 9.853187099677804 7.485002376167194
Au 5.511557679385044 5.765710661700855 8.957901188878532
Au 11.672448380149392 8.192410699120545 7.605399269613098
Au 9.14325014726655 9.314027310671001 7.841389911935749
