20
Energy = -49.51590311 eV
Au 8.09561016266692 7.952201689045631 2.922587122585338
Au 5.942012164225385 6.596389946713206 4.221385759297917
Au 6.66116621646639 4.171344482529238 5.127199818133124
Au 6.05984125398011 9.345877598094297 4.083439590127914
Au 6.437647232113724 10.162124556670513 6.656079118872043
Au 8.454256536234494 8.601435479211208 5.542860032171297
Au 4.449188294468913 8.214430749046787 5.97769149789686
Au 8.742646871448246 5.924958307740168 4.636811151927997
Au 4.676624843747123 5.449730635883545 6.431725366425397
Au 9.68176089635154 6.713310190603233 7.106447245699687
Au 8.92958070190585 4.072006769754116 6.683422175122976
Au 8.951380564803806 9.637716582023174 10.82817369400616
Au 8.369825212412078 9.051920588613655 8.200176603215997
Au 5.419311436355036 8.555178058377336 8.579554184316626
Au 8.176369533663546 5.3300503790088225 9.013139116670533
Au 3.1609379460184046 6.975751485612053 8.071413402503948
Au 5.469786583203639 5.8596016422699755 9.146492476001324
Au 6.3523802762120605 3.6261515221011043 7.808899217744223
Au 9.937665380757705 7.363068036919359 9.732940907039334
Au 7.198522593967033 7.563266000785066 10.396076221243224
