21
Energy = -51.64498195 eV
Au 11.352359576456577 7.594013077778787 5.920685644582122
Au 8.471485185292943 6.64799076648443 10.24160563439282
Au 9.546877160707725 7.589267836305777 7.912017939582309
Au 9.48560562854542 5.5863396833875765 5.658784765492367
Au 8.426355917374185 10.08620989267509 7.315872527400575
Au 8.753081284172207 8.261320588976282 5.2903610440768665
Au 8.675117218930499 4.843589350898699 8.19429075302558
Au 6.057403916236829 9.175679725281565 6.123857228322569
Au 6.879401236020711 8.251896271654882 8.616212098173472
Au 6.454664005891204 3.043899674296325 8.45699466221305
Au 6.8618955644457 8.794110380671341 3.4665276503288123
Au 6.113073049440263 5.68215573891524 9.101035494552995
Au 7.154990416692416 4.151691337143552 6.073516052698643
Au 4.337617325334639 4.500331516506619 7.4264307747981135
Au 7.127963961664236 6.131579114186632 4.264295301164953
Au 4.4718270616219575 7.3587090605283025 7.731808269782425
Au 4.710328283201209 7.306402580802807 4.290224403128097
Au 3.2793818258776533 8.944141137079333 5.881107506677549
Au 4.851085954740456 4.556816218747854 4.60978459572933
Au 2.6969125248388623 6.224981337673892 5.909242316115334
Au 2.500953047067008 3.5507770446109044 5.665509853187455
