21
Energy = -51.91965816 eV
Au 5.0055419273653525 9.624037993863071 11.063833581437391
Au 10.684439435872362 8.600099025348305 5.5096773667991235
Au 6.569745720421006 6.665789642848448 4.0968320693206834
Au 9.080640929229935 8.96976899550322 10.31356104739353
Au 5.340043183156173 9.074573555799065 3.9952848373022
Au 6.871062526808081 10.064475468953585 9.14242660416348
Au 6.11507559714496 9.83798410386938 6.577331171979804
Au 5.183479720798647 5.909128510056999 8.294412040821287
Au 5.691367496589483 3.1637098582968104 8.157840153614357
Au 8.80488334633549 6.589665420054822 9.0279810074703
Au 8.225509191407872 4.63963697205861 4.760070718999888
Au 6.5759206428523 7.486080197903324 10.399408376345988
Au 7.975621584823385 4.471450719305666 7.4839793069122
Au 9.385662046542071 6.855573666546862 3.719882588025435
Au 9.638578012291442 6.350827003036741 6.498946914360607
Au 4.5665505856004 8.534723941555415 8.58219694040448
Au 4.748804996664228 7.421394999905426 6.097884058229322
Au 5.62010747087729 4.741688779775853 5.826253616486243
Au 8.029078548367774 8.996900979352251 4.896423998334711
Au 6.910703764166232 4.801683533992233 10.080667681257033
Au 8.813364164873711 9.064635242245359 7.524195127026132
