22
Energy = -54.40157019 eV
Au 5.4423864823156505 5.331635136848664 8.77723268154946
Au 4.88316220408899 5.149422628115767 3.3800023434271136
Au 7.473782032917212 4.044822681266819 7.251280621085143
Au 6.666150535625681 7.425053456487947 10.04317243487373
Au 5.116051361144407 9.614204187438538 9.652177784622642
Au 10.809144584011701 7.330624976922088 6.853178559214976
Au 9.204662231139142 5.426038087824271 5.399764362327822
Au 6.624269176390431 10.730717504462437 7.661809538735538
Au 7.071139661909529 3.929707192969577 4.5022343658924
Au 7.060587813584308 6.7314449558898835 4.041197115717373
Au 5.207011197181698 5.32333400861251 6.112884801999331
Au 9.020337732307613 9.415960590701202 7.250334833521909
Au 7.945753494064946 4.971291536064548 9.885086254927204
Au 9.998784963487445 5.000212660223926 8.063650707604914
Au 6.566528783212099 11.890553195154217 10.168279635683412
Au 7.559601820405148 6.875632245826653 7.184937650352869
Au 9.385863542748945 7.44026412512604 9.332420009836065
Au 6.723317123206063 9.114391371569777 5.569182137768835
Au 4.959915248532474 7.882262189007465 7.596537074559646
Au 4.534476736397415 7.625641956107914 4.82036955681155
Au 9.235064190710412 8.171679981689637 4.776239190766923
Au 8.18879547561979 9.769945916824264 9.934912662010072
