29
Energy = -73.71681191 eV
Au 3.718700190750632 6.928742571565936 6.602547029108829
Au 10.016972705826902 5.117146579621809 5.262072185642221
Au 6.7809809412767965 7.8421338113745485 2.4132594366196805
Au 5.379437148193295 9.29036750183894 7.143833476915494
Au 2.9969944241425726 5.784137558272148 4.212387102243101
Au 5.606704089314213 9.73626102816714 10.055354339211238
Au 7.372410696807941 4.261195844401497 5.4909347688349355
Au 9.097213106631497 6.8280370013726674 7.188335064402837
Au 6.3448549996193115 3.4272833780779917 7.937228368882189
Au 6.822616747077892 9.746390568380095 4.30039130878592
Au 5.619923821188694 5.458864095618105 3.639113922772971
Au 7.4365994034850615 8.199797983532674 8.804133921879716
Au 4.084083875737802 4.898761612886885 8.587469923379517
Au 4.545007244908479 8.123169683920466 4.2028796084543965
Au 8.794212291348714 7.844394976539788 4.470076063609232
Au 6.428054502502454 5.5439663093654525 1.0390154941143024
Au 8.251211971698577 2.9296140937071073 9.865793906095982
Au 4.648156627514842 4.345160273966334 5.994372037579449
Au 6.519779269594809 6.943507128711449 6.040112874810554
Au 8.286631813974054 5.425250334704177 3.045261579246473
Au 3.828785622957192 5.800388921190328 11.178493719161992
Au 8.308690833850932 5.722973824988876 9.637613598161566
Au 6.033683791002726 4.325176663884937 10.58330004111009
Au 9.232780432725137 4.045621662911053 7.6038625936884285
Au 10.77180910302941 6.540239169066546 3.1139751526432
Au 4.217448655695289 7.626077975875755 9.112108765732586
Au 6.27991210892658 7.097190366093912 10.97324454017945
Au 8.254008161013491 9.543524251662726 6.602456888451013
Au 4.461749313441117 10.764038722536913 5.039786182518512
