27
Energy = -67.86852031 eV
Au 8.351366707226514 7.348932994702282 3.3235759101202653
Au 8.42065796995002 4.651564156857679 3.96285733841502
Au 5.956225878424487 5.833279242513417 3.581211342142499
Au 9.889270707766759 6.522793482945123 5.507443271768801
Au 3.548803082223657 7.233720765309781 3.9047581464886987
Au 5.9863398812596165 8.619728133040516 4.06904454097351
Au 6.305846114682521 3.626471565063624 5.545201804798875
Au 7.005667078772001 6.329155940383777 6.153823517794366
Au 8.980400555251794 4.034375562449603 6.561429397377448
Au 8.39063882014726 8.922973956225775 5.555020620936642
Au 3.881771419450627 4.8126977325290055 5.134811663890886
Au 3.4320133247711304 7.082612779134832 6.69975403398813
Au 10.89457061560661 5.5660314254418 7.854098174934986
Au 3.7004996937878767 9.516973096570569 5.353717284137995
Au 4.860676782528436 4.811041104831618 7.67048094868385
Au 6.893793230657777 3.058203478047253 8.18168981832582
Au 9.518737830078575 7.951323995663211 7.942972736007606
Au 6.144322335839773 10.479524500996355 6.16010189806414
Au 8.400974066925249 10.511931718956482 7.807453949041971
Au 9.229064437005515 3.838718820782779 9.322540861714417
Au 6.633357166628166 8.380547764492503 7.926461880258153
Au 4.58539703292144 7.00423670847747 9.20677897058033
Au 4.025063348935532 9.529394299478037 8.038666802190658
Au 7.3073949228242965 5.858402439686529 8.920439412905301
Au 9.796897258553882 6.383562354720311 10.264837755766923
Au 7.988313379990773 8.378077530754165 10.36988705019477
Au 5.431376516945001 9.323661459329072 10.400272041737649
