24
Energy = -58.91965582 eV
Au 12.666400773411064 4.264611129715937 6.859244897254289
Au 10.572328130769616 4.192126191139735 5.2102283860369525
Au 8.505590829158828 3.438104510944406 6.802392826505904
Au 10.396550261605583 5.270952414754066 7.764340348149642
Au 6.62300497883499 3.6461068444559923 8.66969616802725
Au 7.8843534320116815 6.096196580031871 7.9225334482093865
Au 8.099277567608889 4.789670190153904 4.450173475105569
Au 5.929132825321475 3.4175864546709924 5.847725205121934
Au 6.860775052140947 8.703525443123363 1.0337519066428227
Au 7.5794514036053915 6.784943920662905 2.7887998599348114
Au 5.745278283100534 8.750840467470292 3.5652603949677917
Au 4.9669053941976635 6.820633707153138 1.7118172328991912
Au 5.454498325236248 4.982983335789232 3.679562921628519
Au 7.121999040885947 7.321277707843746 5.533560483474158
Au 3.4229876358658755 4.542014827800832 5.4459631640046835
Au 5.268856708598619 5.962218829266664 9.139511307776685
Au 3.3915539446677356 6.8595657637387575 3.9401706342673926
Au 6.291237877980505 8.269609482278582 8.028179630989646
Au 4.060641441471789 3.700740127382855 7.904979944608359
Au 4.5378274360782225 8.467000093491281 5.902129828516428
Au 2.5153593434577024 5.595016046383185 8.879864306240094
Au 3.6485259385816486 8.183866971703088 8.500181928837593
Au 2.1894083517007172 6.829142444177273 6.360743921156188
Au 0.9808414865474526 7.781507314591359 8.66667882947356
