29
Energy = -72.66491373 eV
Au 6.202480078018388 6.034870149203647 4.684689515863287
Au 7.785434806010499 8.39171982028177 7.499567106565559
Au 6.202480078018388 6.034870149203647 7.385050782544018
Au 3.2405776521666296 6.034870149203647 7.449775865119073
Au 1.1926525072850553 7.388780138228561 6.034870149203647
Au 5.9488668130568465 9.878559103124621 6.034870149203647
Au 5.01931046702302 8.388536779728158 8.29035541889988
Au 6.907862436582763 4.601702685057465 1.9549331114570683
Au 8.827018890045967 6.034870149203647 3.3409736454604704
Au 7.785434806010499 3.6780204781255277 4.570173191841738
Au 5.01931046702302 3.6812035186791228 3.779384879507418
Au 4.574225218480344 6.034870149203647 2.2561421347592674
Au 6.907862436582763 7.468037613349833 1.9549331114570683
Au 7.785434806010499 8.39171982028177 4.570173191841738
Au 9.055250025297765 6.034870149203647 6.034870149203647
Au 3.501693083098851 3.387540412984746 6.034870149203647
Au 3.2405776521666296 6.034870149203647 4.6199644332882075
Au 5.01931046702302 8.388536779728158 3.779384879507418
Au 3.501693083098851 8.682199885422548 6.034870149203647
Au 5.01931046702302 3.6812035186791228 8.29035541889988
Au 7.785434806010499 3.6780204781255277 7.499567106565559
Au 1.1926525072850573 4.68096016017873 6.034870149203647
Au 5.9488668130568465 2.191181195282663 6.034870149203647
Au 10.065262488877762 8.56666871511837 6.034870149203647
Au 10.065262488877762 3.503071583288925 6.034870149203647
Au 8.827018890045967 6.034870149203647 8.728766652946828
Au 6.907862436582763 7.468037613349833 10.114807186950225
Au 6.907862436582763 4.601702685057465 10.114807186950225
Au 4.574225218480344 6.034870149203647 9.813598163648043
