21
Energy = -52.18741256 eV
Au 3.756672860302445 5.422386029928117 7.952745333579462
Au 3.2647002682521764 6.520867150885105 5.4524992794247265
Au 4.752644850126263 4.257719316170535 5.685671194928141
Au 3.6251017936052867 8.326690843032647 7.544599010793815
Au 3.2589230368396636 7.2364501359369475 9.94747519874091
Au 4.481978526284754 8.917708291499194 5.0121314655490625
Au 5.514567972574739 5.603401812821916 10.103839985391408
Au 7.168590989605493 8.981289092637663 5.068790012216443
Au 6.282512951495934 4.107501934279941 7.953981550197878
Au 5.895809562454838 8.216739667979185 9.258656379046187
Au 7.421665929146962 4.444023215422815 5.374710415254481
Au 5.77934304681679 10.06710857070499 7.223763857735582
Au 5.870781674367063 6.550331174118973 4.449750605045298
Au 8.123892585386377 8.757194622813417 7.755362537620158
Au 7.87586382369123 6.2767833326123545 8.93721255072431
Au 8.990424751112853 4.105586803278982 7.635404316936191
Au 8.571312492126614 6.741225800826479 4.287664603523731
Au 9.838818767602646 9.046218171064163 5.596686741780607
Au 9.803129088699787 6.686008616700304 7.01667415967636
Au 10.232779516884474 4.602205979934808 5.206590766752846
Au 11.298148458736073 6.996203595313247 4.499728651574071
