29
Energy = -74.15551984 eV
Au 4.652604544343523 9.305134677874461 9.248631598951015
Au 7.341189887297424 4.46704376675873 9.437373475248151
Au 3.415455937045201 7.089182212250761 8.154663950385862
Au 5.960481413914577 6.848144928237866 9.540303280385762
Au 4.796595067023306 4.591286048429486 8.343534888492485
Au 6.807663204632166 2.7244133862727997 7.385998574326174
Au 4.235213460337245 2.7510046897942035 6.341532439178667
Au 3.4363920097174647 9.680734108654756 6.783240827103054
Au 2.6940161921498333 4.958223007987851 6.56865696001012
Au 5.917191617850402 7.960130666894034 6.969961051745451
Au 7.378477730456768 9.219739098493223 9.25019117938321
Au 3.5973339360889844 7.349718694261748 5.341452050440147
Au 8.76123400146163 6.774559126975928 9.01831304791297
Au 4.585428647605662 4.9270392089256925 4.531738193348483
Au 6.82379967755704 5.470962654544825 6.512463860871132
Au 6.357580892678072 2.829073829555675 4.612897131611553
Au 5.879493231378663 10.881080946105206 7.099540654035321
Au 9.319259547392772 4.455565924233199 7.481655575351607
Au 8.964967165908297 2.403223192470468 5.688131697181375
Au 8.399613900871719 11.438547062505965 7.939476472064568
Au 5.503351460552751 9.463120367120128 4.670220398186401
Au 9.919207950408323 9.145912936373227 8.106640543811091
Au 5.151382008216091 7.293763009241173 3.0064906324526603
Au 8.108326365932461 9.560738544100346 5.938835147449559
Au 7.486564354443834 7.393031062606373 4.387009291455149
Au 9.474111893914001 7.11133544415002 6.340095403398771
Au 6.782982029656395 5.09646696727063 2.869670924032543
Au 8.984409152646839 5.025964680884992 4.669016366596789
Au 8.515623682929906 2.9513133040829023 2.9768160776020967
