23
Energy = -56.59100189 eV
Au 9.300949251530977 8.575441797060611 4.7605757238891115
Au 8.794623712121568 10.706168039130013 3.2440170144829956
Au 9.196885405811823 6.258498598188128 6.148701742651424
Au 8.76853272284249 6.332775103734919 3.2709386486783387
Au 6.600158660299336 10.751477511530624 7.813516043610795
Au 8.201547494635854 8.51869348327067 7.34001866283542
Au 6.563652852638651 7.886369523523603 3.936052384545964
Au 7.079951098463413 10.289916152488171 5.219186963522822
Au 4.258448281303193 6.181100567954228 7.5757617898070695
Au 7.656476116708732 6.087042651890304 8.455281189614253
Au 5.297108305192542 8.5998904075112 6.4879956089347
Au 6.183636718689344 8.410475501801113 9.188554114071442
Au 8.45272059564839 3.791702631120825 7.243671009733352
Au 6.450526994573953 5.03136387719373 4.008740146003121
Au 5.8670250786469476 3.9274708337235116 8.433443133513421
Au 4.404379747695289 6.590856277069562 4.890379366566378
Au 5.163301730877451 8.091183311537424 11.744384459890579
Au 8.984915627775347 3.9827253192047523 4.552444004588607
Au 5.557236760030487 5.870259339191738 10.216868939060086
Au 3.5367120261021765 7.794174077087468 9.567993288911063
Au 5.031853030037595 1.705354100846159 7.157527453131242
Au 4.514260414609801 4.063407183290781 5.83402243569413
Au 6.825165177335135 2.57633533608235 5.374373789838495
