28
Energy = -71.5797961 eV
Au 7.832483129194019 5.677993024581672 2.0870708880098126
Au 5.287422829508005 9.584018367932282 4.147613727343366
Au 6.97744169433796 11.724463153141023 5.136002014276717
Au 6.188755157601313 6.956542351734858 3.8363351717150045
Au 9.206593987415575 6.884010180641483 4.05498623009793
Au 5.907254597322998 4.023399800742403 3.0675691953724264
Au 8.185936881076879 4.395218516349603 4.644387272756265
Au 4.559101653607412 7.728598620154677 5.984167464686711
Au 8.492318706602942 10.459113789459638 7.018395986123386
Au 5.686285098701071 10.04105027896848 6.888915231475886
Au 4.282909781679573 5.139740102524881 5.045282329779194
Au 3.861940814869879 2.537457446429159 4.219717317286937
Au 10.126036062394718 8.540078879286026 6.017074435130713
Au 7.983098964635493 9.26169514545776 4.430629224404786
Au 9.369817727342465 5.9943912374833275 6.736938803852025
Au 6.520653090191261 5.835486109128063 6.627092664889586
Au 6.119748357170314 2.806593351928506 5.717697063432347
Au 8.172323838537293 3.590959972114181 7.280645351425903
Au 8.874662770248012 8.059116720767793 8.474500385122873
Au 5.183436523454592 8.031916504245116 8.670458852419566
Au 3.4962726597195424 3.094396916740165 6.878011412411296
Au 3.8546867681742856 5.742162239139244 7.7577565617642446
Au 7.083695705280049 9.985123151499872 9.316086647320653
Au 7.81914560816152 5.560972090167697 9.159411068811783
Au 5.79653656525109 3.5080215338276175 8.549604805193471
Au 7.015555281382858 7.672156725644511 10.733704094167987
Au 5.166270076949909 5.7079917764696715 10.263992483988506
Au 3.261712660393591 3.795409709448338 9.562320192832196
