24
Energy = -58.21532447 eV
Au 9.504909681800964 8.726801868080425 5.091277646030292
Au 7.196339834302127 12.239433361285176 6.892309230995948
Au 9.09384601391342 10.381777715326933 7.208209558113732
Au 7.331861066605286 8.250579230533914 7.101108544113635
Au 7.504782817249655 5.125559937515638 3.581387826180894
Au 5.140074719816776 11.974100843795984 5.142874190081297
Au 8.0417741486339 2.5941439532730977 4.385781122550804
Au 7.188600319590867 10.232819162572245 4.920060996315382
Au 8.878553328104575 6.174832276410369 6.054235178039643
Au 9.870888058642732 6.556891249072696 3.5139499462509804
Au 5.3927886905063875 10.163488526257996 7.204761133907821
Au 7.6570961561455855 3.9378489690719514 6.850678389884896
Au 6.448456131798741 1.4088417938872746 6.20167012539824
Au 7.17801960285011 7.807281557230925 3.796061557423411
Au 6.16671755858709 2.414402292530506 8.738729689908999
Au 5.651750846591261 5.119932882597504 8.320838356762698
Au 5.480029073486366 3.6968736406336022 4.8074387889495
Au 5.955395057243334 6.275053816479824 5.756324330710795
Au 3.9850696463384336 2.323760071381826 6.864688422104851
Au 3.785375366775542 3.3355837170173315 9.551745319340078
Au 4.725447728503208 7.71463616170415 7.934952794209986
Au 3.5579252102381864 5.007257014900058 6.2158244395118745
Au 1.7138072695561954 3.5333111267533477 7.769432019421013
Au 2.97713580269185 5.883449622955828 8.77347788646302
