29
Energy = -72.30339464 eV
Au 10.003778552791303 2.6773574315686113 4.0056183446529525
Au 2.729866769904611 6.86567914871469 7.202975826471617
Au 4.77815867380411 3.6480129280400204 3.267050022003089
Au 7.298076745224865 6.464890200359557 9.066908502511678
Au 10.737156760360941 10.239327085274985 8.893786280967563
Au 5.873044145176042 8.149757747892586 4.500202983665719
Au 9.436197475231031 8.028829288032659 8.158603641494953
Au 5.647070839020957 3.303178791785308 5.901087487802989
Au 10.989404115954654 3.565503548689547 6.426349735727998
Au 7.766229731684203 7.139889270810303 6.154015645432943
Au 4.58135170663489 10.610949031584978 4.671909697997502
Au 7.365616580153536 2.961006692935143 3.703748392238859
Au 6.1109659129931355 11.30892210193342 6.707257096114845
Au 4.046385807566402 9.080087834493993 2.564623309159703
Au 8.343652758518857 2.8484111820659295 6.42368286811193
Au 4.273772904475423 9.200686170815539 7.013720004405785
Au 2.622871753308181 5.895680332461623 9.728489032901885
Au 4.034428909681808 4.412514174651457 7.79218137720076
Au 12.9026829089096 10.450690756082885 10.195948482332229
Au 3.7675212222428156 5.329088758017738 5.1502699419389675
Au 6.476735931113375 5.587435305687352 4.239430411965538
Au 6.80184630653269 3.8112234655525414 8.35535032402421
Au 3.0661651402151278 7.955164934052742 4.793259260453811
Au 4.703859512666967 7.548268145263032 9.130948743427076
Au 9.110095662371275 5.1122145321717225 4.85900888473654
Au 5.262272140898817 5.051808606862404 10.215300034503981
Au 9.378683340163818 5.318044726265347 7.7090287441470995
Au 6.7652362927384315 9.007834171893835 8.150295703325334
Au 8.677350354730061 10.682566964066684 7.301106664752433
