23
Energy = -58.66485648 eV
Au 7.7114277100434325 7.714209114130394 7.787344697086973
Au 7.290669175796123 5.307359773314632 6.153356976121966
Au 5.304896292527236 7.2898349519876575 6.15053610413688
Au 5.12380570777803 5.125027056336995 7.812434436983756
Au 11.475362413004014 7.5294760065873785 7.317406865244057
Au 11.451264976835994 5.6853763233871195 5.318905615269946
Au 9.230434212733574 7.306544588487468 5.404582703870388
Au 9.780782313500525 5.223330348262526 7.410629351240432
Au 7.5281449706419385 11.478296556969763 7.31960701435156
Au 7.3054594200320215 9.230571030120515 5.403668866002003
Au 5.68501956341904 11.45190394895731 5.320610676424638
Au 5.22568160224818 9.778403624680113 7.411239393553521
Au 9.649968143465227 9.652581591829408 7.03720145294086
Au 7.318363603917957 7.315537107774261 10.994257894658233
Au 11.142370557832677 11.141543296006828 11.289850863296534
Au 7.70017529193281 5.134181364038659 9.114733302836447
Au 6.954061537907024 9.785080120249718 9.636000059905404
Au 11.355687850102225 9.308553281250887 9.297054052911689
Au 5.135081102788587 7.699345444205279 9.117038913074232
Au 9.785814586291703 6.953169405096055 9.63403040310026
Au 9.306853549033459 11.357435693678955 9.299625372758719
Au 5.382179163940643 5.379569004812577 10.591655203508262
Au 9.201119803684321 9.199379783436665 11.260577124638619
