23
Energy = -57.02559552 eV
Au 7.261991096922695 9.117988290887562 5.587699181605039
Au 8.677204355375443 4.3501880733463585 6.597197990699483
Au 9.212350500741287 6.948405280276329 5.771274118395366
Au 8.3303110304038 7.965996251433358 3.300621208482911
Au 4.58900066002006 8.571682685261003 6.091347747643452
Au 7.992046769077717 2.194137015841642 8.071759396114125
Au 8.09943326318051 5.181493724795714 4.014201340706609
Au 5.586372930260658 8.836885680872065 3.4866369189290687
Au 9.166896876064245 9.115733888336809 7.50860124726046
Au 8.36546319737006 6.619503661315344 8.350556077028823
Au 4.006510297067492 6.639258091204429 4.151561366652851
Au 6.561012746685759 4.513105056037908 8.603685538813666
Au 4.49070535532419 6.440034137150202 8.084426307308837
Au 5.545086407178708 4.081930590848523 3.8135283521675256
Au 6.421139557234708 8.810486510760356 8.153118357368312
Au 6.348118364254798 5.954271201850044 6.0653891995937865
Au 6.3646593835315635 6.732766645514074 10.17346957468718
Au 5.975361744538734 2.9122714557880487 6.453908653392324
Au 4.317860764860097 8.538035505307324 9.86148990446164
Au 2.3661626271952656 6.929216920649887 6.325019051283957
Au 6.167587083178618 6.353246690783937 2.5061078165275346
Au 3.8172373401902564 4.576840159224841 6.170905139512112
Au 3.9381447876492577 2.1750909610384 4.825436020725663
