26
Energy = -65.73269731 eV
Au 2.368483620177665 5.87142386921283 8.417633690075123
Au 4.929083015640587 4.881301798119536 8.955561347027597
Au 4.651971107900064 7.609636261008125 8.765322406233839
Au 5.64921430369958 2.4390796707142326 7.811012612589814
Au 3.1593440069041057 3.444511482029217 7.406810686499323
Au 8.864685491933674 6.101709687889843 7.474827319999336
Au 7.866009913124212 3.967496864428593 8.981421921362982
Au 2.5397179241752044 8.236125456275495 7.031897655691866
Au 3.3777456029019657 5.814413395879512 5.844086929803284
Au 7.08467213474936 6.477737020925935 9.50717059364524
Au 6.224233131624821 6.13965075989436 6.59454897301098
Au 7.053963642550607 8.703170986792683 7.8955083029943705
Au 8.130109974479476 1.44353158302796 7.930803102788272
Au 4.9681291868120745 3.5739501380767993 5.3373876151749196
Au 8.805257079613082 8.287978315296735 5.828686489112396
Au 8.5223453711659 5.735818727568751 4.723016611464055
Au 4.575603156061759 10.043174508483844 7.308325626976301
Au 4.659936314180352 8.268278548767213 5.2432442245964745
Au 6.680015488752689 10.277394474637449 5.600033167873347
Au 8.81592529544503 10.28755454812819 3.939193585307437
Au 9.461754728495363 7.778331783209956 3.031678577679635
Au 7.764287460408477 3.5536995160543823 6.193439714909516
Au 6.986152410931785 3.7317533710309103 3.5088036037765082
Au 5.3691117335925975 5.953591813056295 3.8875060090425
Au 6.8184977733291845 8.296785694708147 3.599291769867726
Au 7.528511805270389 6.003068571482875 2.0865958005758847
