24
Energy = -59.53758919 eV
Au 9.119615852655562 9.700846174876187 4.955006674360501
Au 6.170977855866273 8.636844032722689 10.975341136255716
Au 7.259964730556921 6.840359784688144 9.11276986759535
Au 11.219420636280852 8.64521488737602 3.5510850819144686
Au 5.588788023897322 9.04442152818764 8.39481695993
Au 7.759111292958033 8.348921973062128 6.871064501862615
Au 4.815804907184745 6.971141129257208 12.600667240181705
Au 4.027987209612792 7.263862844147946 9.967642948882498
Au 8.861417840830688 7.78185165277212 2.6037432435204773
Au 6.738596619148129 8.561762637941046 4.188248818116123
Au 5.842718657784535 5.20301495114858 10.80065451245809
Au 6.414497494473695 4.145778184115265 8.398930224927923
Au 4.754575649203522 9.235717238930178 5.854423163710139
Au 3.701720306371573 4.806105984720285 8.92829619674011
Au 8.341809301966466 4.845457760933041 4.23097703911157
Au 3.8056629850251014 7.088411541222995 7.258551038295708
Au 6.87816731329134 3.2146877765470396 5.939165979516328
Au 9.65787207807193 7.006193387419612 5.175534031107995
Au 7.231417679380073 2.5712233869324717 3.2539633201321188
Au 8.251490792672215 5.540665865936515 6.921024647813744
Au 4.61011278314109 6.7764539660537695 4.63164558726858
Au 6.621364417886154 6.3423873556911685 2.571030455210881
Au 5.288985624620368 4.310307174378359 3.7832652650388563
Au 4.4553566779894425 4.55152763848888 6.347114253309442
