20
Energy = -48.64957656 eV
Au 4.8099826581596625 6.210131023676339 0.26807929627625576
Au 4.632286955594611 4.266251098929621 2.1401168651544946
Au 7.037545980701255 5.773376973167663 1.8191657852846472
Au 6.502776480088339 3.668059051463816 3.9900917658801505
Au 8.768668259922306 5.285492795884876 3.758757174776627
Au 4.642000631769367 7.043409094968206 2.814548253334037
Au 3.9754298716351872 4.7948202597354594 4.681896680140591
Au 8.441760911409405 3.689555322014679 5.969265021037018
Au 5.709454027465819 3.852314381526818 6.6062937676325095
Au 6.96466084522616 7.307175287720535 4.2508916746593695
Au 4.42103727261863 7.656544048372679 5.372288323639376
Au 9.103001734320218 6.7625899644092335 6.008502079604673
Au 6.782205781444671 7.971861212542855 6.934536845240122
Au 3.6698810626886393 5.636415465036896 7.233530575932939
Au 7.686142962848973 5.4472233866208315 7.8833095507307505
Au 4.2174613646522525 8.3477687504327 7.957278973121973
Au 5.4194867520237615 4.522085399161511 9.18574054987771
Au 6.273194383845755 7.227474088476693 9.490547402242942
Au 3.4170322997333185 6.506769712893096 9.796181114387295
Au 5.290188047883328 5.79488096699765 11.603176585078176
