29
Energy = -73.58506932 eV
Au 6.479087038872991 5.155842160604042 3.9383289929986
Au 6.715781412118403 6.024270347831034 6.810128117428422
Au 7.6856895282870665 9.183564164793879 8.577356483444628
Au 7.077405958990929 3.356851689584412 6.016439818728375
Au 6.008019164407353 1.716532971889228 7.901235334106069
Au 6.0434045221550186 5.193448120512368 10.728972271650047
Au 10.08614958543586 7.755513669256303 8.122024843999426
Au 8.65209904727285 6.811860902736531 3.0369042425044044
Au 8.808435141589955 9.413213224215854 4.040492193768772
Au 4.383307979962062 6.83162487028933 12.102460805012855
Au 7.3973454965241325 3.895178013046927 8.769469089849814
Au 5.911816139582444 7.205330890662906 2.1797105815116344
Au 9.398803907127261 5.206683497315609 7.322260198889358
Au 5.231496307606084 7.645087393141119 5.001606019645369
Au 9.054906596367884 4.727995488373974 4.677022027340675
Au 4.609420050838995 3.9316916319625546 8.501853777299962
Au 6.076156497367873 9.723595131288644 3.4131046806571317
Au 5.862933570377451 8.123771391317662 10.287928469703749
Au 3.7716784217413704 6.401374264925681 9.444128218324899
Au 10.003214340455708 7.269796717344574 5.417189760932982
Au 3.810711453757865 5.950853285154516 3.311395802795367
Au 8.056527991359513 6.50608077204972 9.438960100202019
Au 9.462279402151022 9.888960800594674 6.574996449359298
Au 6.744393467217735 9.772193555367728 6.033231097933052
Au 1.8746110758865757 4.892688976353389 4.905727479830126
Au 2.3480753110933708 5.159512289116883 7.576142199921085
Au 7.927973412952341 8.974721691941037 1.4936644160036028
Au 5.166189747803401 8.150405886659414 7.671158302493085
Au 4.434194681316475 4.8844895105632595 5.820696169321626
