22
Energy = -53.58298908 eV
Au 8.459119311204308 7.259636274589746 3.1663967502480954
Au 6.591542655955712 5.390941258474773 2.336391428568956
Au 6.028812916111595 8.016672694018617 4.054655821630874
Au 9.572745435220211 4.797853239878306 3.0063531261789094
Au 7.411088109420762 4.7161406402517345 4.805311693539871
Au 9.92400371477814 6.168738361542934 5.309333195656162
Au 4.03554775590352 7.760964472141348 5.978350223785196
Au 8.404005456561372 8.771140307222954 5.415048402164143
Au 4.5313575528636 5.6547743513770135 4.022895075945371
Au 2.5387758238457505 5.422106527493722 5.815658861766138
Au 5.101170125788909 7.69589778556895 8.740773577800082
Au 9.767734832155469 7.706254581104544 7.501024222504623
Au 2.473991950115461 7.727867766311957 8.263196063457219
Au 6.63937778463695 6.890197758044333 6.555688059917817
Au 8.359179711815026 4.811889358980096 7.337597113388229
Au 7.3785973491606756 9.23414654836936 7.971709964306611
Au 0.7963206622261381 5.589038605839837 7.8275460040110705
Au 5.220257930373658 4.471897644715433 6.42248137609449
Au 6.0527063109157595 4.793080647476876 8.998024976566608
Au 10.099087253160137 5.6331919851942365 9.228708522153372
Au 7.713771056312326 6.910286324776414 9.356026201951515
Au 3.4559242793294698 5.177168715048788 8.481004997653226
