20
Energy = -49.24856556 eV
Au 7.762435420740939 6.1883440452149125 10.808569734540148
Au 6.725592568162203 4.8637297175224585 8.735826612478593
Au 4.0167591065519375 4.953175235756703 8.14300387585739
Au 9.110373861537266 6.5696075462721755 8.401680892740435
Au 5.180986600159023 7.022623040475217 9.629648329621787
Au 8.575596081425015 4.231287892818428 6.804288889443142
Au 5.887889712909885 3.927745348671241 6.3592679776996865
Au 11.093687994896491 5.234622888570961 7.042407711097389
Au 5.446539228225795 9.484651760564095 8.012906978562224
Au 7.485106346729828 8.531440187498752 9.456259819476129
Au 3.6116569940009766 7.607700460321201 7.458415787660936
Au 9.427401284534415 6.79919830228066 5.638292452509154
Au 7.777423754905185 8.692571679803732 6.773887451453079
Au 7.460043770897517 5.31411256489716 4.469699965192731
Au 5.117477315625308 4.100864023903844 3.710106597401704
Au 3.9858076244411973 5.845924565678392 5.4925517302852755
Au 4.994681134147751 8.65439684432483 5.376253997729525
Au 7.678673788530871 8.11115049706748 4.1333193459082445
Au 5.355910525058461 6.7998377360450135 3.291056828873563
Au 5.727004169186157 9.429722933352327 2.8250978202372545
