21
Energy = -49.85629759 eV
Au 2.3221918621694555 9.204106864811632 7.582758587140691
Au 2.2679673477046163 7.975058140751511 4.970884317951986
Au 4.068196608243733 11.148565315396073 7.796654395503591
Au 4.425528982134495 9.474243010290422 5.6016919488611
Au 0.44041407335530375 7.423924962856938 6.950443663268911
Au 2.8725115583698497 6.496488528517911 7.748674037375252
Au 4.6067652513767445 6.671105615237891 5.493953048742428
Au 6.929197679017976 5.347804680991892 5.824293723965354
Au 11.276869354551199 5.540189407962591 4.4326527152521615
Au 9.49171555006437 4.572608623074732 6.309133102161594
Au 9.033444347297147 7.029358516144572 4.972274368859242
Au 5.032419421528338 8.60753218228256 8.306854972392186
Au 11.50230919579501 7.34758792802956 6.512258664796117
Au 12.145363995759508 4.69857304465304 6.986520420111756
Au 7.850846281386373 4.739813387245841 8.557923849010429
Au 5.412660166830049 5.806107431506824 8.131057088200151
Au 10.401111652234555 3.694327538908867 8.822164278293922
Au 6.878598956356508 8.281341581822112 6.125258936619697
Au 9.315499560762412 8.709624260501354 7.24370579688867
Au 7.4511532402407115 7.535004084223279 8.91218415255713
Au 10.064844917361107 6.436101818639069 8.649389463890566
