23
Energy = -55.86976494 eV
Au 7.3313316036703 8.954893866913412 4.172856667834137
Au 6.473364082366197 6.4710908942018985 3.207034615548402
Au 4.963940728427085 8.857353812739177 2.838746317696289
Au 6.979248851525406 8.894297611530725 6.86066315966989
Au 6.702459669181314 3.7847395843937726 2.2633780320003147
Au 4.0087983648324395 4.378547995243212 2.058772202232813
Au 8.56715604675237 6.98079629646892 5.538936229271504
Au 8.37654594417293 4.6986624965165245 4.082051464940413
Au 5.107986672788256 2.3705650788628936 0.705435423165343
Au 4.65800079350682 8.364142801273633 5.447768379496382
Au 3.622277957428615 6.551427568781319 3.466691966252916
Au 5.197284499868422 4.285464090477657 4.603858774579875
Au 4.737396246324921 3.612710297682215 7.153621314025692
Au 3.4569063152345927 5.9701544727232205 6.11711646640639
Au 4.762891363594949 7.580094756871392 8.038064010069291
Au 7.170327757387088 4.705965418368761 6.533807843385784
Au 8.696839346134192 6.273132857562163 8.09951794111047
Au 3.172031233287394 5.502505554259686 8.735265064342814
Au 9.681849515474457 8.042960254439391 9.973405654152959
Au 6.9920065711377815 8.142471458604675 9.406513213181643
Au 4.162116364043275 3.2581855268485196 9.779336278199485
Au 6.0695280547910375 5.182582393569019 9.13181420434082
Au 8.059310792692314 6.0148582156435175 10.767238826769269
