22
Energy = -54.10001825 eV
Au 8.11804676347825 3.5555711140296227 6.891637321179706
Au 8.086264538945226 4.171516686477795 4.286841719876097
Au 8.33854440332143 4.944904343226645 9.15737043739587
Au 5.713053550936538 3.1227796702000448 5.6130467961363415
Au 7.333792888588827 4.918021876313011 1.7536702340040564
Au 5.7920912338110755 4.371198964379962 8.127346687542557
Au 8.70917270230237 6.107576844616418 6.233643835975886
Au 4.0021923900466225 5.24235238657857 5.995486378693896
Au 8.625511207495997 6.870171543147021 11.089427771662399
Au 7.606020182717424 6.9124874792397515 3.6139494792787423
Au 5.48125765411888 5.107725013301632 3.711706378350685
Au 9.697829175790742 8.672231540031218 6.369793633904779
Au 3.890643255257662 6.259425788982645 8.76600072168026
Au 8.3740993565045 7.706331540765006 8.492590063797778
Au 1.6612827796838971 5.780810582593023 7.341846202324706
Au 6.2099576844517514 6.547762707391145 9.993974492916617
Au 7.107506404539922 8.673204718700436 5.772669896552321
Au 4.907590560859922 7.599801168671792 4.530241519156541
Au 8.945328877225256 9.224422547825704 3.7750774166388137
Au 5.617232764200637 8.372940995563145 8.055761223721683
Au 3.1616355087631587 7.886466162922795 6.612296397800778
Au 4.75467671573091 10.022765901133491 6.027356822988208
