25
Energy = -62.45589341 eV
Au 6.101292734245438 4.221809357599299 2.970803436639268
Au 6.292959196759282 6.919064603158923 2.4722778076793492
Au 8.560977022571814 5.487736437013095 3.3826109059444893
Au 4.0173572050011845 5.902511323240149 3.785331671063304
Au 4.681852557640108 3.633023372045212 5.26824771367277
Au 5.096272123084024 8.446307700647983 4.528903803115116
Au 7.791624396306128 8.013522860344803 4.443185505595009
Au 10.149356085145266 3.948589459079816 4.964642772422872
Au 9.740397996768898 6.569257197956377 5.7117022794525285
Au 2.4297602082895122 7.7273224817008455 5.003544216064847
Au 7.454842288462924 3.4781530350516743 5.219367080508734
Au 6.180101100657521 6.067665987167421 5.8417334221656505
Au 3.5250495200440595 9.92380888984865 6.220069922727884
Au 0.4072335562286534 6.741416243917741 6.665427515169547
Au 6.064981707707733 3.648685276683057 7.707695154023444
Au 7.929342950553965 8.26367769006451 7.107941337554437
Au 2.4912778455794324 5.145241428846522 6.021715050390293
Au 8.678231964768715 4.233316458268926 7.5622388500842295
Au 3.395442363708302 3.097085188444438 7.65565176760904
Au 2.5644780227077564 7.800295145464027 7.853163895648213
Au 11.28586161256347 4.821136730768813 7.321509520433174
Au 6.89289277800348 6.202213150170484 8.68283159363945
Au 5.2325442874439885 8.19041513017592 7.543077296967144
Au 9.620616732522798 6.65982084524029 8.55939502569413
Au 4.216492537828567 5.659162801693891 8.308171250327716
