21
Energy = -53.71678623 eV
Au 4.977933532452326 9.13893289054762 7.050582685452331
Au 6.681284920644055 6.96428572572763 6.799816244053263
Au 7.000853964830311 9.129920553383077 4.975116689063866
Au 8.7059531905637 5.146225870092242 7.117723776130004
Au 8.895710391361556 7.224170776188819 5.069468320292479
Au 9.131292600979872 9.45416154480335 6.800807600464162
Au 4.876169534488592 7.275921880680666 8.970837430250063
Au 6.860011710624312 5.21311901404074 9.02669611875719
Au 5.066904480689163 11.048583400207518 5.110495578825441
Au 6.994697396745225 9.14881535996237 8.988384482388506
Au 6.992515930573611 11.243630544260212 7.023699107498516
Au 10.809880206239917 5.3074023471270095 5.3886102642932325
Au 9.2742026259327 6.840143163554889 9.430722032749514
Au 11.137086214099423 4.991210771414806 8.398411012167717
Au 10.949263793989902 7.420589975748538 7.112611367127671
Au 8.843474476035086 11.27194338846844 8.96103467261019
Au 10.886783334711971 9.26500511650534 9.021640726815342
Au 4.970669528718233 5.426573169462607 10.976134474687537
Au 8.881543046250998 9.125111043594622 11.06054372972342
Au 6.990498155045123 7.237416163788616 11.054081061878332
Au 10.681275583492548 11.15137140520304 10.972494538327796
