29
Energy = -74.17608242 eV
Au 9.818345886523097 4.113457065031929 6.081318280413843
Au 11.289499033073326 6.289891068711521 6.410643955150305
Au 8.671132599213928 6.454418786417134 7.799225280893009
Au 8.05409823755685 2.160569746901743 5.523001445998883
Au 7.182537301580564 8.458582859897522 9.8738066139692
Au 9.536474671009055 6.363510903194614 4.280633331117361
Au 9.678577865762986 8.467611435096591 6.039718009725163
Au 9.039428375931381 3.8172672873833005 3.4250916443317565
Au 9.544667729095247 8.995532124430115 8.72861474543468
Au 7.3536906126201025 4.081326118474451 7.403467028070078
Au 7.379379576618219 8.142278292056952 4.531661237653492
Au 6.335239925940251 5.816963282686313 9.214134616198747
Au 6.376817109333992 3.13054210700448 3.5781521144254143
Au 5.427437558428195 2.527034733095419 6.24835482615291
Au 4.196090531704196 4.627763407226513 7.539384532174143
Au 7.297367745314533 9.29811346031634 7.168853542954849
Au 3.9092007140658427 4.926461605959741 10.213488969008536
Au 7.231577088496526 5.87710945050451 2.9848425690290794
Au 6.108094315580598 6.53619621603447 6.456342762473256
Au 4.895133099373868 4.881986272676848 2.0857042005498583
Au 5.078392850296945 9.265544349735329 5.6962130708579695
Au 4.820365073377366 7.530680232376083 10.767694627838493
Au 4.837562109492406 7.263588129410955 3.5900865341834605
Au 3.247960867670445 6.80937973622734 5.946268909712544
Au 4.878608619654675 9.169517216923673 8.493258281573889
Au 4.462377507307006 4.678759811304847 4.799197660595034
Au 2.992328716901151 7.023645895045044 8.69458197722349
Au 2.5263148366329333 9.19537170753826 7.080590929737825
Au 2.796816177413095 9.062413434307057 4.311185038522732
