25
Energy = -64.21824731 eV
Au 5.8409875789600605 8.851161283920035 9.867181035959993
Au 9.904635536103061 8.89530870681737 6.265089044629578
Au 9.471436749133213 8.904691892973272 9.471850866979338
Au 9.28428774802764 6.398161896643021 7.7490019042203775
Au 7.4207322180882045 8.401521406325505 7.585220908093564
Au 7.585446441542635 6.5782401683531155 9.870156899364819
Au 12.004252428346295 9.254125835082263 8.150372772632794
Au 11.807066574525553 6.939435746850151 6.6834206875471525
Au 5.93214336003969 12.622675804096644 6.006928627301726
Au 9.547324431147562 13.071440605879731 9.931379310016968
Au 5.810091904679498 10.70751888745964 7.91542263538145
Au 10.077393821465105 11.278032421135666 7.759539234295401
Au 7.776079132234311 12.908616208575983 7.949024348486196
Au 7.95054979118495 10.724458336263886 5.9947080933835135
Au 7.600628902783108 11.038136471540776 10.079151829059997
Au 11.889533422112828 11.341897969520408 9.895610216214138
Au 5.807696981767205 7.049598192426876 11.895573002085184
Au 9.84027886278331 10.667936249301269 11.760502150563811
Au 7.881499716732856 8.8291571796905 11.903183706333104
Au 11.265062620648198 12.992033643029187 12.00717795972655
Au 9.67404336388518 4.679287181315506 10.00510025911615
Au 11.257004857318828 4.400044160138314 7.786305677443546
Au 11.794142756469164 6.5331057261653624 9.492966687235667
Au 9.967573833195535 6.908576314962083 11.585083852992641
Au 11.913763212967199 8.773699103850486 11.013787924384806
