27
Energy = -68.0792057 eV
Au 9.713783914950294 3.6258019263499435 7.0197525601411925
Au 8.468303158311329 4.9711992072711695 9.050953577730327
Au 8.421244098470847 7.7271318166118235 8.544311315600122
Au 10.472336573619854 6.249222446287767 7.424203367643951
Au 10.23276222149072 5.396794609102568 4.828212877223205
Au 6.517693164636647 6.493771371161749 10.337029353579519
Au 7.744780879916656 5.78640176610264 6.336154275676896
Au 7.009105213746973 3.031387869834616 6.492586065748134
Au 6.2184386213743315 9.159114150878102 9.506695670363978
Au 5.774048587632534 4.330667571452795 8.581595218611588
Au 9.21846631902756 8.115124246118233 5.793795368874427
Au 4.0008001401233155 7.569658551534041 9.916801175590322
Au 8.959817878698857 2.6873023442087436 4.560569726868511
Au 6.950405507037851 9.46882563601529 6.834216287553231
Au 3.2846358156735906 5.473221161190646 8.106706105919091
Au 5.662358561445901 7.055852895071258 7.61452570713395
Au 9.1922843702051 4.423425173566297 2.4353236733482264
Au 4.224784750870661 9.656998645471095 7.716845470458627
Au 6.856384159408478 4.44527794422294 3.953093464360059
Au 4.920265025124523 4.77659366283598 5.927477254060261
Au 7.314206056159104 9.25365022955659 4.116799837203361
Au 1.9769978740514322 7.919363816981606 8.10256237632947
Au 8.367819580725902 6.84314384782898 3.3987148556384668
Au 4.754980684632774 9.49833261478443 4.967407764413701
Au 5.710438070647189 6.946153369041391 4.283532493874025
Au 2.16078261120637 9.597329166109752 5.876619034305953
Au 3.4134950014145478 7.138089671345858 5.794362135556634
