23
Energy = -57.43269109 eV
Au 5.962802710360953 11.735589413324599 7.915347621287716
Au 3.993400476857663 9.875805240510216 7.410228837143539
Au 6.170483326698567 9.12956285734031 8.99360049700562
Au 7.13457125059665 9.134544731701016 4.150212157413393
Au 4.475267661824837 7.237996416420896 7.894490484347076
Au 8.844064358496986 8.327079864034626 8.501850333898224
Au 9.3715984176102 3.1292534845675597 7.110974268723495
Au 5.503471913484042 10.951477776861015 5.321563701467057
Au 4.091635727584081 2.9783131891952226 6.235524752884341
Au 9.233443768277233 5.788575445734989 7.803184229591334
Au 4.647721871011399 8.270240038112146 5.23987732425063
Au 6.564303257114071 6.507857204483851 4.194697880541303
Au 8.711078020308912 7.582324696065202 5.753937894840273
Au 6.099227172642033 3.839181200516776 4.460990461040573
Au 6.670881770452931 2.571432104866736 6.933092269093498
Au 6.864899512296688 6.50171105106201 9.213050027367938
Au 8.25935474463828 10.951466702103504 9.16681346534459
Au 4.30287975038731 5.639882894513406 5.633181412288035
Au 7.651172602531729 3.910546954853394 9.139016033241676
Au 7.907140104601464 10.120859482098355 6.577539064866073
Au 8.629913416182543 4.961791759083714 5.135505171739494
Au 8.319262671188904 2.2297138265379535 4.732355511089236
Au 5.129527230000031 4.634641738082602 8.17422286411145
