29
Energy = -72.95584781 eV
Au 7.167509904451785 2.640551323342363 6.3002783977879835
Au 8.72898170259439 3.8893605633751593 4.450596482161212
Au 6.8373998521681525 3.8093805735651483 8.89572211668661
Au 8.695751977513627 4.902154604670665 7.111713018513282
Au 9.932402105341476 6.471930023634413 5.169964640056053
Au 7.582428307021614 5.10195581504257 2.208744518966353
Au 8.063031964155583 6.106807015520759 9.619072301850975
Au 9.62729570113842 7.566062342444602 7.6273234875045945
Au 4.446372392369076 2.3550910057496663 5.927004204730973
Au 5.916202602594234 3.6096201707564717 3.9107564520694242
Au 4.9989099074565875 6.060809869587003 2.8517498852675747
Au 5.508070826386189 4.954052223108792 6.56754666335038
Au 7.128209025976291 6.247097961664597 4.777936244888915
Au 4.084950942274448 3.4515190456913483 8.43796416968582
Au 8.672695372914195 7.609228587455588 2.8809168130105887
Au 6.796076027472574 7.278365369788331 7.302301512856288
Au 2.9063400735498455 5.8634619869230375 7.188945290462478
Au 9.003241388227528 8.628059194299246 10.043490269407767
Au 6.088908645850558 8.58340788782093 3.5365977030030984
Au 4.264373939711274 7.338282373474805 5.245966951478611
Au 3.3744646369338187 4.700055662916545 4.655181471926878
Au 8.407551336934608 8.977670168330242 5.2550754434354445
Au 4.975875192711147 5.9258932508571736 9.317693769649905
Au 5.749780126072163 9.683998460708128 6.022213255545207
Au 6.153214297527927 8.28494793351282 9.956137039701444
Au 4.109526346822337 8.25770076453646 7.9104369017636085
Au 7.9762239362396565 9.981808421760912 7.730959389553374
Au 5.275116708816948 10.622179481184338 8.541427377298094
Au 7.343649580006211 10.780691160722741 10.313316727588523
