26
Energy = -64.90600625 eV
Au 10.484712723322685 5.386751807606203 6.291660309496199
Au 10.120677499294423 9.587685756746282 3.2683457874641855
Au 10.6421485643362 7.179002444691876 4.362017123131673
Au 9.995892475643164 7.691495489091815 7.894478157642228
Au 8.334717324632097 5.606880080291056 4.560844994794504
Au 9.784896507634517 9.535786475297229 5.9447826097843794
Au 7.903856407081584 8.354613250491987 4.333388239350585
Au 3.272982820214269 4.538990900420525 6.467839394563061
Au 5.857998171819514 4.835818730641755 5.373340308630069
Au 6.111745420487355 6.648955768909402 3.1912199125850917
Au 7.540187327469442 8.866199373056926 7.324506257105689
Au 8.040219489352106 4.195212762701231 6.9267496702703895
Au 5.575421059334961 7.894621635537299 5.719746128586845
Au 3.8135242978451265 6.610233079654646 1.7031970438915138
Au 5.437279740791159 3.644158883188774 7.752707205881856
Au 9.783094207627661 5.156400645387073 8.922789618966561
Au 1.389289180334756 6.357619227090052 2.9282474080476404
Au 7.309438978029131 4.415238988714162 9.628188316982873
Au 1.1011904140806914 6.00860759071035 5.600123522266003
Au 3.0925309765068967 7.343910015832075 6.962169549530813
Au 5.29749963880645 7.831023752144173 8.445736967659991
Au 3.6401163535422736 6.324985624351131 4.375486198063945
Au 7.866213598100479 7.206362068182508 9.54084968492134
Au 4.737505248467656 3.6813537888420025 10.373822419524359
Au 3.391354968711614 5.781213162151512 9.135713515648252
Au 5.584747753444121 6.327146398777514 10.677281126584365
