26
Energy = -65.20757468 eV
Au 9.190375049238154 5.20246060099544 3.3312467392587233
Au 7.317973915719743 7.264760705344579 10.115691376552881
Au 7.903803420172876 3.23616009817634 8.346974138608944
Au 10.102011650191555 6.616692890590696 10.099501561377918
Au 9.342526928073221 8.212862058318391 8.013106355492058
Au 4.979474816522111 9.673010237575388 6.684879121779896
Au 9.366654573551136 6.7793927131112 5.6170726502924095
Au 8.544428147711443 4.065335914749167 5.795202880077662
Au 5.353760250611906 8.905671351068515 3.983433616782618
Au 3.818019338282718 5.030373031942161 4.817714800968541
Au 5.687584382731372 4.725933210908932 9.36170607646798
Au 6.5248072089582525 4.633025124866228 4.003188053572927
Au 3.624443166987348 5.134733888408162 7.667124905921382
Au 2.78197479479764 7.2973998392997395 3.6874921723471368
Au 6.936469763382597 9.525035438801124 8.54956895526217
Au 5.029367760401445 7.435715203263501 8.52277942530292
Au 7.55280484065814 7.365467291243908 3.571131253546272
Au 5.790456448888016 6.738481911243689 5.784559122090652
Au 3.136474491720796 7.520083243666774 6.402662802811377
Au 7.572669757086046 6.007936991626406 7.683842954424333
Au 5.124444993219384 6.536922912678392 2.512230997432327
Au 2.9379925016023294 9.827317087864659 4.751779243902457
Au 5.781382445748195 3.8465654944532757 6.5679858350108695
Au 8.197888923612581 4.692157646550558 10.61738454937044
Au 7.599787916275731 8.925822908188747 5.93527743904142
Au 10.14970842342905 5.057624139129568 7.860726169942683
