29
Energy = -73.30245389 eV
Au 10.425970984756807 5.667172713192959 4.179394142755994
Au 10.174285861669967 6.706274206284133 6.6329900287223955
Au 10.08480015579389 7.630205110434174 9.14847324589682
Au 8.614639310686998 5.291083152569931 8.577988069177467
Au 8.876291161017177 4.191006054226519 6.039889070923257
Au 8.618832344904199 3.8408559451016138 3.2944909797328368
Au 8.037856430238897 7.177324030996893 10.848509714255774
Au 8.594053837006474 6.561982241466505 2.288590780877952
Au 8.886194855655475 8.122604568431138 4.472606040217032
Au 9.046813377724215 9.319098681033129 6.951537110450951
Au 6.357158353265648 5.025683442092328 2.1664001842414726
Au 7.013922848147918 6.2667881632822455 5.748433763913626
Au 7.165178942681071 7.647883438619608 8.140465119324585
Au 6.329802768086787 3.6079510776229746 4.6987943228694045
Au 6.453884246997676 3.9723655307182346 7.505616187838408
Au 6.813693527267603 10.428852391236518 8.268757180333992
Au 4.00339344663621 3.8483364234836386 6.148394715186857
Au 6.542798953485841 9.163157702502307 5.726496183548381
Au 4.710486796427075 6.285827106309616 7.270214287927289
Au 5.714392659996166 8.618536357448995 10.296850542670482
Au 6.233440351452026 7.5813423170442364 3.3902790248958157
Au 4.317208042591597 5.492816082194182 3.8387465304670965
Au 6.027582426513584 5.623077253697264 9.918147739367162
Au 3.970018099503367 4.139965297401203 8.929143049345884
Au 4.473593474076947 9.109366783625283 7.857315762638447
Au 4.119072330176735 8.018895142238188 5.157804932220818
Au 2.1591309382613875 5.994817876927528 5.347713281917692
Au 2.1997295862078894 7.7043268807864145 7.42869920130623
Au 3.576056691452725 6.927112674515935 9.724873115422351
