27
Energy = -68.14823065 eV
Au 3.106712460141652 7.048524563485142 9.70476063965014
Au 3.492043413496159 6.570235144942741 6.985413809423418
Au 2.513460038024982 4.652530827468951 8.738290645675054
Au 5.51194264048349 7.822692980618146 8.734358558919384
Au 5.3397607038832975 5.121633800643065 8.92542518185319
Au 4.407163659400906 2.7471057855859127 7.902570103765879
Au 1.7226098201514752 2.5441430304971835 7.348527830587205
Au 4.657795191547507 6.239455353759472 4.532938778069023
Au 4.8644995278360295 8.616057641099736 5.879764507347747
Au 5.340929042440992 10.418421263110082 7.896931667531091
Au 6.764528702899566 3.7269054787871116 6.953258661405997
Au 3.2780056240003006 4.128451466487498 5.66110922678154
Au 6.847073568151095 7.92245976810034 4.0662441507006175
Au 4.780865443076185 3.6994413090657954 3.3929292794811143
Au 7.943563308017647 8.853527252592453 8.248521110779434
Au 7.1739597366717245 10.043596161757385 5.710037807550875
Au 7.623094767691474 6.193445180631634 7.736706176012383
Au 8.649549512926587 5.095784775705411 5.4384055901632165
Au 7.742756669301625 11.622408508961252 7.979792739483341
Au 9.187007951719549 4.162441756893147 2.729341137078541
Au 6.74099132084213 5.537620651153755 2.8498131366675787
Au 9.274268633387397 6.8036220813742245 3.3056206119536626
Au 9.767209737685631 10.287304999145372 6.691991678744497
Au 9.08255405134341 7.771110523512591 5.877708654507908
Au 5.096427718187642 1.8809741289973454 5.443530966746118
Au 7.445583208535918 2.8339278045153993 4.473406119733857
Au 6.89969221220766 2.949759123369972 1.7907538138741408
