25
Energy = -62.96399484 eV
Au 5.663585959131644 5.392205986989647 1.8326629623205943
Au 3.191363655225594 6.449083455108519 2.541787143272734
Au 7.343986077408824 5.021605715048017 3.9938375933134913
Au 7.992036551318401 6.982407313238565 2.0982129358870236
Au 4.673279050776612 5.3748404298813695 4.55191247385396
Au 5.5036310140504066 7.899556073284376 2.9843267726917624
Au 2.7580176344952094 7.28516304741715 5.112993869839562
Au 9.70702501816776 6.526075622500391 4.1530732503132635
Au 8.96821073368228 4.878680065884866 6.229951320692207
Au 6.241877660796027 4.234623863987528 6.365979678904058
Au 4.312756664205779 6.319963891258074 7.20767630795277
Au 7.64946456220348 8.324962317640399 4.620413446445603
Au 7.9163816105842715 3.5522563653005044 8.413830689753228
Au 5.0706783714045764 8.694789615184229 5.499970051948627
Au 9.370084933805693 7.596879544176492 6.689703227409431
Au 5.313736068660114 4.4265173209734066 8.897632617358566
Au 7.170125459592891 9.214830300895844 7.181720582529631
Au 9.642919467465205 5.720918377946839 8.716192188984516
Au 7.3111758873001875 5.2462294171576795 10.523774087185373
Au 4.406083114395029 8.975820413334276 8.072206718529248
Au 8.78677382157878 8.31641575327355 9.262340848944193
Au 5.199297692729833 7.001624809863904 9.793219502568585
Au 9.610072214359024 6.5387498199901115 11.289405167840407
Au 6.435809856470019 9.651145447752723 9.783393017708097
Au 7.1583759060214955 7.771404017740967 11.58053252958204
