26
Energy = -65.89383369 eV
Au 11.337583912836756 6.598145202365339 8.26065687843315
Au 10.158036085537907 6.55636691380403 5.782901346045274
Au 9.356900783391376 6.7745577305711 10.24505308877286
Au 8.27584979196692 8.533276528662801 5.04150356536742
Au 9.274009875796922 8.28719452445971 7.827881477591666
Au 8.951056172395266 5.198310139514677 7.981320375647116
Au 8.863692549685398 6.352612655857815 3.405076436976105
Au 7.998367802116826 4.728291421330414 5.429886319864322
Au 7.191181362105599 11.000767868434185 4.832988643242164
Au 7.202903256542202 9.903457468887076 7.4080437355189686
Au 6.884950297010486 4.516964206611127 2.8317709689282338
Au 6.711621799757908 6.896781071758611 6.820095091442163
Au 7.116783988708144 5.21031524430074 10.19257836862779
Au 6.955469470134367 7.94836258126169 9.418115470180664
Au 6.0615124254473285 6.855240483269397 3.970390083169063
Au 5.3027159993082345 4.155728534876487 5.157956454258881
Au 6.458038615302547 4.057134814378411 7.668077687645251
Au 4.920149779917642 3.5402414566568616 9.844799642040012
Au 4.82115293268988 11.154009539230476 6.930720319552843
Au 4.576695194607891 8.697044104246245 8.070038430608033
Au 4.735097109634378 6.22293832422503 9.054622252860769
Au 5.28707796861311 9.033953374309984 5.294069589225408
Au 4.012938345855416 6.682688291244911 6.10818900995415
Au 2.5788909998512044 4.603459113801926 4.997164711062871
Au 3.6370579176774225 4.1831500701677715 7.473563915711199
Au 4.179530549574267 5.044757206454654 2.824126445495051
