20
Energy = -48.97820596 eV
Au 6.3610344308892275 7.481487444604665 4.2300597906640975
Au 7.175736519807154 10.09728708624274 3.94986683001021
Au 8.353368340993939 5.739126953585903 4.568329140646132
Au 8.868414687363385 8.315488149265574 5.3059041019609525
Au 3.6853996242409237 7.016777399572245 5.114934160585411
Au 4.6754268883385155 9.549364328018685 4.987160033970757
Au 10.383255580344962 4.434266978762865 5.728985362464531
Au 5.725389682759408 5.344439603914986 5.79157018008562
Au 6.899846456885538 9.934403422193364 6.654833431266069
Au 7.921383394586137 4.0396277602392425 6.762690545534373
Au 9.401276935334565 6.448448074348515 7.344385161668796
Au 9.359724541534437 9.293641477148386 7.7259565969200406
Au 5.598726130079757 4.061125688532798 8.137806916603987
Au 4.927529247841556 8.019807253982236 7.318343829016969
Au 7.798962018878328 5.266304595676667 9.338773704212578
Au 6.720890362246707 8.907842035553795 9.185865419316334
Au 9.066765887752313 7.5193910825693395 9.870387774498289
Au 8.845425049530817 10.212171047056826 10.23161555948645
Au 5.459422764645402 4.2840008573104065 10.795886219593935
Au 5.366280874670665 6.6292581801447925 9.550904660218656
