21
Energy = -50.35872938 eV
Au 7.975603124634345 3.6244853319490966 7.076931218761064
Au 7.333928107981166 3.3774899711946653 4.260913521165862
Au 9.77621418785587 4.898742203546713 5.000518068743337
Au 4.946775949158944 4.089408487276531 5.492666337052058
Au 7.536225488326647 5.413812746059744 9.251498652471492
Au 9.618008875938068 5.977197432662753 7.551260500844867
Au 8.423805936971686 6.616530906447096 3.2012272023678183
Au 5.477865919623991 3.869111161862023 8.22583025984623
Au 5.779722599407941 5.541417146161505 3.185442569131093
Au 7.238879862246442 5.756029154456396 5.618037088614409
Au 8.861083187416524 8.00421041050397 5.76811273149779
Au 5.759717097525066 7.350411010946473 7.053214041266392
Au 3.9795993597582986 6.735296319566456 4.985610222657477
Au 3.3033494885037964 5.274821481241009 7.301278418539766
Au 6.382005610256535 8.150822361312365 4.3859385078439885
Au 8.11419971766178 8.040909718011584 8.53393756103366
Au 4.934240628266344 6.374092714316944 9.43293628534123
Au 7.015435858087896 9.890662234727207 6.678726967942094
Au 3.1488740076733674 7.981927353241205 7.768147738287444
Au 4.366200299141923 9.513341870421053 5.749387049272596
Au 5.591102033633524 9.175688012122478 9.053322996610675
