21
Energy = -51.49668187 eV
Au 6.830946361371078 6.221548366811936 4.23083486482041
Au 4.92123386108026 6.363447561571967 8.962776182410565
Au 6.08181410628269 8.673102112827573 5.239388442586249
Au 6.14313112679889 3.917887521063863 5.570350177687295
Au 8.96282665470268 7.729733896739604 5.120622745409545
Au 10.054608858016467 7.163494111203804 10.582093625536105
Au 9.438504056184238 10.52072517818006 7.459491045394228
Au 10.890366809282659 9.656948998692378 5.358774855462476
Au 9.452973112243692 5.405366603943201 8.638726366259354
Au 7.37065328088684 6.55971792780032 10.248003011012639
Au 8.16469668045524 10.37569195983831 4.9994505511761975
Au 4.3497805921842705 8.750196889450415 7.419601125451233
Au 10.233214803555194 7.855886453842628 7.625398698595762
Au 7.328006751984549 7.323563548293845 7.456920516497941
Au 5.717917486275897 8.841369627445582 9.81895448997758
Au 4.235168638690196 4.0629124271771975 7.641570356770972
Au 6.900294047528898 4.499016373715391 8.231997224412481
Au 4.782472312449933 6.348506475225648 6.128530131941332
Au 8.620845250580196 5.162564100292606 6.085769442376049
Au 6.7127942555941145 10.189377071409135 7.561763178056843
Au 8.449997250677667 9.119829490784904 9.538487365427839
