20
Energy = -48.82319179 eV
Au 8.197399264761405 6.989243039599561 9.971225284691878
Au 9.568917321049287 9.330858138527148 10.160174058500923
Au 10.393969362007406 3.5875158770598636 8.326513109016567
Au 7.8239658761114015 4.679516084528462 8.689568810961584
Au 5.840155827235542 6.508030157104024 8.716466923819441
Au 9.689850447231446 8.099540230051488 7.734644300462664
Au 10.73166386842003 6.042804185849045 9.304017730911292
Au 3.1431312807049063 6.992017128000446 8.61028932348958
Au 7.317766981360178 9.37202517998727 8.64194177971155
Au 4.884693328177501 8.971332941657824 7.63845001510531
Au 6.143025320608345 7.358872318186099 4.355046178462675
Au 7.68240838914934 9.374576491591885 3.3704146802255024
Au 8.378586350091364 3.1173480464150605 6.482800220118162
Au 6.849648627259869 5.358480798424556 6.039787341968594
Au 4.410391674747529 6.5074047193904425 6.194114765971359
Au 8.864244397499357 7.732668971247738 5.17796068400921
Au 9.631304563773067 5.628496771690809 6.631827537919335
Au 2.44868344344125 8.529152072673424 6.430332237411638
Au 6.924691580882273 9.649244374726427 5.974796967277052
Au 4.376534213917127 9.471904591716882 4.850660168394033
