27
Energy = -66.77814332 eV
Au 8.173373428637023 5.556159480349445 2.60181476945479
Au 5.854858265401107 6.932790210527541 3.163691058461513
Au 6.3811277797149 4.2292975560157355 4.336082215037924
Au 8.325187682253361 8.491122078849902 3.4342570156758754
Au 9.513792487347748 4.3552442993740845 4.714758592496811
Au 3.8209544358365193 5.33262793355754 4.6351542721579895
Au 10.432356584090272 7.1651860782670935 4.590105644015715
Au 7.855737285217721 3.3982173428039597 6.611125289751006
Au 4.036215235631991 8.783440929963591 3.9486353852462743
Au 7.740256087597194 6.433696258245363 5.265528791418162
Au 5.011040116080254 4.055433166316556 6.789840357109161
Au 6.468040514633376 9.639593405714669 5.006463640192012
Au 2.6873328085680925 5.379457146171932 7.504986781256476
Au 2.4974787075919314 7.5712071773477305 5.934608521030147
Au 5.254238044676263 7.19452438853964 6.067830271276624
Au 6.415061403522372 3.3295632576009813 9.074197750669697
Au 8.800498337438315 8.729216402476329 6.358293886252927
Au 9.934168030195147 6.026440766458407 7.049086693195243
Au 9.116667435778174 4.274416038088012 8.936386112551409
Au 4.118206010237886 9.826719605123047 6.600381400501954
Au 6.945188483264938 5.903367400116884 7.802843863659678
Au 4.593719701899902 5.362614761269184 9.435090463236891
Au 6.457732961085502 9.027258317590404 7.886536610334391
Au 3.7952099971696747 7.862197680400862 8.51106544652188
Au 8.64269978889659 7.726566787080314 8.983689299607622
Au 7.295311316668571 5.613636309060884 10.539643040553404
Au 5.820886207247243 7.857289379560231 10.325754402452164
