25
Energy = -63.00637173 eV
Au 5.945791486869046 6.842857017022969 2.5311978499450074
Au 8.40310092761347 5.782037801416273 1.9669244549194966
Au 4.2563396888320915 4.636304462154328 3.0833404815198815
Au 6.835916346976335 4.482194367629511 3.871668904561005
Au 5.79794004635728 9.093414481947514 4.070446885219323
Au 8.190587997856241 7.611086778679746 4.055443151138637
Au 4.149582939344623 6.914223909745834 4.6006537373134115
Au 9.358999443121055 5.09857755432198 4.587140779138363
Au 4.932421648366524 4.391138779817774 5.7900520374128455
Au 7.661857393060576 4.422388495618906 6.625685923555
Au 5.743914587658884 11.140271941500268 5.865584128991202
Au 7.747319329199223 9.26750177855274 6.138077990184661
Au 6.702584737285351 8.870259473318452 10.717447358126707
Au 9.050019652325327 7.649326947183757 11.282757302132493
Au 6.741327779648596 6.103833563827069 10.530546740104233
Au 9.000769898232974 4.895485488990391 11.544870343017275
Au 6.259263994821828 10.07131849748593 8.350239735913043
Au 8.701216413959077 8.676804267436248 8.700872986053739
Au 4.971573249282618 7.591266032494389 9.056584715712477
Au 9.442751817045384 6.032907661961978 9.026194894014635
Au 5.530123801969294 4.916012313997476 8.36233792696056
Au 7.881650815879774 3.8141383819256753 9.27425485576507
Au 4.472007318118845 8.78582987389225 6.571041222672636
Au 9.108643168802598 6.9496756245496885 6.557794587896466
Au 3.457617862118443 6.30446684927464 7.182163352477332
