27
Energy = -68.48656053 eV
Au 3.1003973023014697 5.877824747989783 10.683905670061272
Au 2.0555941770929347 6.026573481162902 8.209908899614078
Au 0.8941294616533428 5.97781537220684 5.7440426626921575
Au 5.836177834542046 5.956556702246293 10.694964897128568
Au 4.493496269967213 4.530718594298385 8.67763465126721
Au 3.3265726421861173 4.490639795218973 6.204800722723362
Au 2.715965888728725 5.858935681528706 3.803896396739613
Au 4.461506182431879 7.432746320986906 8.682626573826518
Au 7.3056651091256475 4.725994612845378 8.755815671489055
Au 7.129636626115853 7.716835542284524 9.06996039976206
Au 5.966223489536672 3.6537924503896497 6.564309515194871
Au 3.356332539524198 7.3924484452532235 6.129000324594089
Au 8.665981971792021 5.320394902046567 3.648644591617643
Au 4.953297177886547 4.14981814486728 4.026638347218384
Au 9.555739778306442 6.178723762585378 8.142059045657989
Au 5.9051045818941885 8.295959055981694 6.521682333006143
Au 8.598721641264763 4.384868778224124 6.3330960971890535
Au 7.412260355904547 2.888078977441044 4.383145657114783
Au 9.668617409913496 8.489386762588923 9.491315877430646
Au 7.064429011422367 6.9286447551236545 2.0719071332599763
Au 5.102901692555875 7.39593644277937 3.98515679850378
Au 7.740119208067412 7.93155629949228 4.484265344924557
Au 8.601492636513417 8.659974412112671 6.914636172394761
Au 10.037852729821006 6.666485989461126 5.49834839464118
Au 6.870628924431219 4.002770993962191 1.9850437640260559
Au 4.469140493737538 5.750021377236191 1.804480716515864
Au 6.241583618025263 5.511057179049492 10.694964897128566
