25
Energy = -62.5062978 eV
Au 6.24099032808444 4.3760008598307465 2.6662759815108026
Au 5.587884700708296 6.9317271307535 3.416296084688901
Au 8.01484420388778 5.912081293514088 4.149577773305426
Au 7.605052966551218 8.559993146549408 4.624060734047142
Au 3.0777660070653714 7.7605429774676065 3.739180459301021
Au 7.148999973017159 11.140528069725814 5.31087771935092
Au 4.997141653231894 9.530126762494376 4.436895557155336
Au 7.5896956029743645 3.1516784791659838 4.746164629918327
Au 9.720795108874213 4.4727927593324095 5.854465945826427
Au 5.458450212412663 4.8170845073720425 5.30780695997097
Au 9.61327605655466 7.267875684965867 5.874016115757297
Au 4.446513488061797 7.290395722271907 6.160673207239953
Au 7.466990211381128 3.9747920052938235 7.401404578622228
Au 10.798854878179117 8.366790881297865 8.031110951027603
Au 8.439167078323678 9.592834639910022 7.250778299922196
Au 4.9338204893994995 5.193846684208604 7.882757211926669
Au 9.618653491497739 5.772926327936082 8.236791258808777
Au 5.619719568392512 9.716390325525047 7.075293219597918
Au 8.609881838679925 7.922416226655147 9.578275510881182
Au 5.842433941343702 3.192556581663136 9.527467011110293
Au 5.019372444952145 7.779906847006745 8.84013016904284
Au 7.4563750116924234 5.4070902537041245 9.807235028129703
Au 6.721925349131085 9.915655507460318 9.537887108123131
Au 4.812788375664167 5.568923584532795 10.623183326605036
Au 6.45469609804789 7.681131819472317 11.217484236239086
