27
Energy = -67.98313228 eV
Au 6.587510629813875 6.71333941529154 3.9185722966566088
Au 9.010179989362447 5.477583761429571 4.576877597293206
Au 7.276965629898473 10.187149209002493 4.654883268435128
Au 8.972689620031888 5.086182621935601 7.3574781325346725
Au 8.984434781842802 8.172232882054326 3.9770593754722117
Au 6.6162931837647365 4.7653608574746675 5.871700463147194
Au 7.610981723378674 11.64858774851594 6.945610213294505
Au 10.498801290480348 7.205563007389831 6.182812023244195
Au 4.962989731546044 8.851851667594849 4.248323175319768
Au 10.794397395385372 6.589228455104663 8.844442233083635
Au 7.7449992332888655 7.696989611467156 6.556427815989193
Au 9.616910821402605 9.899579931980194 6.107695980234935
Au 8.600680737675095 5.498319610342896 10.119642208432404
Au 5.08224764220359 7.024401326298405 6.3854296144225815
Au 6.149761546705347 6.380042997367596 11.091101121039104
Au 10.858364354457736 6.406463898194439 11.548396620298655
Au 8.14233894735248 8.162207687559427 9.196050938207568
Au 5.503775004565783 9.824901396602462 6.802000468147084
Au 11.518132701913547 9.104712937961713 7.978765130542904
Au 9.425056145215347 10.72153180802001 8.814196873609076
Au 6.376289625799627 5.584367007884451 8.46364619766184
Au 8.468306917672649 7.6968255141431206 12.026749794426683
Au 10.6697192619327 9.012161174929641 10.640642259170258
Au 5.283109080758496 8.110467964225888 8.99023990669735
Au 6.083815608841015 9.096097434682965 11.554573871571735
Au 6.578408557960227 10.616868123267535 9.284586923375556
Au 8.458831167755731 10.416959224739752 11.393630358818033
