21
Energy = -51.56831114 eV
Au 9.734299536534973 10.216693713964576 4.370820771396998
Au 9.89526092072526 6.188713887757566 7.8515387217201775
Au 10.052892321647198 8.263596276304575 6.1743053556046785
Au 9.527607305427125 4.501385324255508 9.957047959457554
Au 6.619607747286223 10.704300238092195 8.167004824119427
Au 3.3169630191277553 7.776143414328436 8.522630307022691
Au 5.893397408874888 8.376354575484251 9.601290500949503
Au 5.421941161649133 5.897381394879566 8.361529165771351
Au 7.517002293056194 9.531319153550436 5.857536749156723
Au 3.8026844122862498 6.387111680856915 6.184462041762455
Au 5.85983159227665 4.571251887971128 5.904508714519674
Au 6.119427517131882 7.177973476982342 4.937165271037036
Au 8.360518563792374 5.6099443659484765 5.460692138037699
Au 5.021820105153567 8.939923800681848 6.726179534811971
Au 8.53039746837816 8.746165398120143 8.453285263723025
Au 8.490961992931851 7.83564898713412 3.8297507717471357
Au 7.564900402138613 6.369443152223126 9.920770104685912
Au 10.058723340714318 7.380268940726236 10.302940479522656
Au 7.707012107481086 4.3263603091507115 7.897066521809408
Au 4.073075343628772 10.330609390930356 9.151565048535138
Au 11.05353051819657 5.827188816591201 5.387036838864327
