24
Energy = -58.62190988 eV
Au 4.447902845017474 2.4398778592775354 6.596070751564389
Au 4.743457156003017 3.372430792043622 9.255784695082069
Au 3.034639271437941 6.4093855519820755 5.089331686337829
Au 3.548769494057706 4.993513907439172 7.36362816287992
Au 5.4762146309376 4.562781492257913 5.2662067851063945
Au 6.926971553216959 3.261812602345799 7.484163174104722
Au 3.084344182697348 7.647422929707738 7.870007670742627
Au 6.051828655775892 5.691214728226271 8.75640756027673
Au 7.6764698212408025 5.12521819944504 3.6442185949353063
Au 5.451213967237293 6.8087488129683145 3.5488503359883086
Au 3.8912563999832406 8.92757196529309 4.395531921907508
Au 5.366115290519071 7.224653508899956 6.4151982007003445
Au 8.958594506548163 4.722822477980211 8.567435851888447
Au 8.9873367547384 3.660908358179191 5.719681859391607
Au 4.525432482098032 9.897734983172683 6.945472144132609
Au 7.709279124252803 5.990165509913795 6.398735074489736
Au 5.585027718816908 8.427279329273093 9.023454592422494
Au 7.981562252908506 7.858878502970119 3.3048528958781285
Au 8.214962455837803 7.508960083960483 8.807836464206074
Au 6.567966599091759 9.435692380733485 5.053767210520336
Au 10.015195266749075 6.105375710122055 4.738531141148885
Au 10.47537490713426 6.713398692099692 7.431037308530386
Au 7.4987888020904645 9.910590826224444 7.674278632740168
Au 8.992744865427433 8.494059825181258 5.857546993955475
