25
Energy = -61.94322954 eV
Au 6.955349352336047 5.777138208794205 2.468814394886153
Au 7.181633267545663 3.946445069836705 4.510925979297351
Au 3.4172238148890686 7.579679291391881 5.100504532857278
Au 7.35353514728834 10.076448120266573 4.084404258733465
Au 8.337566867932866 8.094013539858606 2.4521787705399563
Au 9.161886493046724 6.026762005084191 4.275867774789381
Au 2.9730269374149785 5.183418137664144 6.407929742106058
Au 8.806445141466927 4.505221951040574 6.620069290399593
Au 6.88432228834045 2.9207845209406376 7.762541860422916
Au 3.9545665675074573 2.9620851227479004 8.347382287807875
Au 6.793703103333641 6.654597610478097 5.6443230903015165
Au 4.7236674272107075 5.367158191886124 4.109165573674994
Au 5.825461919969769 3.928320190729885 10.144542299324142
Au 5.4628656797491235 5.316472510558043 7.621396469651725
Au 5.620525117438065 8.037087706124279 3.42011629932397
Au 7.873623186963381 5.597127097608488 9.002459761958539
Au 9.7364407272466 8.653332190621683 4.748890045312556
Au 2.9815101642952753 5.398089644273858 9.181086275130173
Au 9.168718702618746 7.1954553214758254 7.09156878762301
Au 4.901229768388943 3.184812946901537 5.783169355529504
Au 5.300308683990323 6.610989141699129 10.14042756910078
Au 5.476954783487063 9.208277168198013 6.013693480247196
Au 8.146425597215174 9.791069122088864 6.695714142472373
Au 3.976111058223067 7.711896433376916 7.812797391932389
Au 6.731795635102618 8.07539245570697 8.279165756364932
