27
Energy = -68.03591787 eV
Au 5.082694084429419 2.0178792033313067 3.3734716986000595
Au 5.938138930601244 4.623671938498882 3.830276021434052
Au 3.604094503599837 3.50958787989249 5.103119418986816
Au 6.439045029552352 2.5287988989247374 5.631570082962325
Au 10.286338985274524 4.630711477036449 5.480639039440003
Au 7.657247608358608 4.932273038834884 6.148830125159734
Au 11.591917119613298 6.867511496718732 6.237226839332446
Au 5.18699971670161 4.218825178074852 7.318562948586553
Au 9.192007663769656 7.067756266367541 4.863509442499008
Au 2.442587632644976 4.946455888141253 7.0030617869441505
Au 10.526190734762986 9.36550141092937 5.636943616721562
Au 9.437492616314 6.025774987196829 7.986388387796439
Au 12.076503710384506 6.349920357528868 8.858026451584776
Au 6.562476110611852 7.150948358678868 4.34444967019549
Au 8.056903153327797 8.366884664983596 8.684186486421448
Au 10.778569364555462 8.628555266653875 8.315808110703863
Au 4.073493201653132 6.294467407897589 5.1680254076573275
Au 7.739796634114941 9.318672063456614 5.5547623381801765
Au 5.061064229500269 8.828009884240291 5.8924989972579445
Au 6.790070759348 5.964928221093576 8.650853707001426
Au 9.137521822420302 10.710814514001893 7.627044860155875
Au 1.4163509271278247 6.39268766050884 9.044209210562551
Au 6.462673992856104 10.565228528508579 7.734039191425433
Au 4.0994279050535924 5.912110417102524 9.18889127920477
Au 3.7510405596687724 10.284587164953967 7.842357835833635
Au 5.323934609801852 8.3079250515574 8.927098340098345
Au 2.906834737556461 7.7646691496237015 7.2354741366809305
