29
Energy = -76.37923893 eV
Au 10.13006343103449 9.544376465517228 9.635861465517207
Au 8.671464068588323 11.814611795798502 10.929084890214035
Au 8.94307986334359 6.858150230922327 9.633201805122063
Au 9.06002089171786 11.560216150565122 7.730522245905592
Au 9.871016182778938 9.89478232716371 12.478924565914745
Au 10.509662244444321 9.411045622001016 6.789650957529202
Au 11.162069018940779 7.234287437931247 11.24566501635841
Au 11.526835383264057 7.016287790035913 8.591509928908373
Au 11.461420192913184 11.722633779142662 11.16672706152264
Au 7.114507807419261 9.812318666578642 12.098840395399721
Au 11.831567986601968 11.462858146132765 8.067446337454875
Au 7.697321256566748 9.238011662873856 6.908749979533538
Au 8.564215920511344 7.444546284841923 12.422052909938255
Au 9.281289529337073 6.928378879731005 6.800637760331929
Au 5.457776227137334 9.170381751031151 8.612862008085788
Au 10.298427921718694 13.566873402647131 9.3276496268666
Au 13.698281946505588 7.893029678840389 10.138684925913036
Au 6.4381511356298216 7.476990901612158 10.662292158657888
Au 6.7563558390062335 6.8180798219097145 7.965995389259745
Au 12.67302576690979 9.41308396653653 12.224589724486668
Au 5.924475779903304 11.576309589420946 10.243598776624351
Au 6.304383710560268 11.515543609131562 7.469319516836086
Au 13.23378924065542 9.088531423167618 7.643921559196014
Au 7.53667787590175 13.485397403114773 9.07856943889868
Au 4.533711126024799 9.420929932177264 11.215263133312641
Au 10.988182806418514 7.832779784258146 13.879753571239455
Au 13.052718836376249 13.33670466639532 9.644090837791527
Au 11.985530246433688 7.242826055213369 5.937888100824431
Au 13.795887856085596 10.645817818798998 9.93521690633083
