21
Energy = -51.84148196 eV
Au 7.359217323522446 4.94269993992187 9.56558456385758
Au 5.237204240783408 3.4609883285568808 8.98588912371324
Au 5.088461547535694 6.4482633345875815 9.052549046931965
Au 3.1596253864639023 4.852543967591545 7.866196543210229
Au 7.466926236657807 3.5806301368967732 7.139320809851814
Au 9.180185660133635 5.677435806883894 7.6919194354823475
Au 5.699040255326062 8.635642282906018 7.415423165992418
Au 3.2318055856400116 7.461148826357763 7.240745724349512
Au 7.59746938522872 7.6279278928753325 9.148015749052272
Au 3.9635248901414997 5.403473853578003 5.2795025905436646
Au 4.345690170902302 2.889252406275229 6.447176640875243
Au 4.454882309671766 8.1056896081998 4.917994799072343
Au 6.150565615457705 3.7478293123907096 4.539440028003805
Au 6.723626160211453 9.798676972408302 5.204808821132742
Au 6.533343448112301 1.4061515168848089 5.834172188409915
Au 5.953277592117658 6.1819537528068516 3.5303543844706065
Au 8.28380422167136 7.943000638446646 6.524874997179625
Au 8.013182789332257 10.352766090985318 2.853139883343739
Au 5.825666428336253 8.757952399016787 2.6465898366358105
Au 8.208298602404385 5.4607636000272475 5.131202708424795
Au 8.251697349963997 7.781647684954677 3.752661210502613
