29
Energy = -73.85502174 eV
Au 6.8668540977310455 9.813842329665095 8.959438793055947
Au 5.275814706670986 7.595106021224216 9.56376803757014
Au 9.660605363734302 9.74523462907071 9.20127177351778
Au 6.847223914206763 3.1833839915756434 9.430047694930296
Au 10.6416527761538 7.129143660009783 9.217290451918972
Au 9.061083268082577 4.856183941716261 9.606379251110447
Au 8.581654085300626 10.829169159963541 6.902358080274472
Au 7.127981513523725 8.280833450533216 6.428313785064374
Au 10.02034251646762 8.439614016726107 6.817557271615021
Au 7.123385215307604 5.979446844350888 7.779119656853652
Au 9.933723679712305 5.612921918020111 7.029537567528591
Au 8.296788963163703 3.3453814256745322 7.134865431743993
Au 6.859770064580906 11.129614216188635 4.819036520192704
Au 8.889526896250848 9.279201211055856 4.364541226098829
Au 4.9430144427522436 6.863367710456584 4.897020625467276
Au 10.31929823048408 6.8878933398370465 4.563664769061075
Au 6.415794935443567 4.520384217183658 5.310204998546016
Au 9.149469006012996 4.361502495805945 4.718036238899014
Au 6.5250518419883115 5.467800210749348 10.79844963731967
Au 8.068682263325735 7.596510909476621 10.017709319786738
Au 7.640471870196001 6.626178636309139 4.066137392834252
Au 6.19340096304805 8.888467659327196 3.5014348969051508
Au 5.731510926926816 11.631271361706277 7.228838883690371
Au 4.633237721221546 9.494626254101009 5.737618235496889
Au 4.107624884369837 9.781371887663681 8.460116971096264
Au 3.6529178822697292 7.290707322381955 7.325777981454359
Au 4.636318176276235 5.003061024572002 8.796817543237237
Au 3.755345185699273 4.7776897158617775 6.162138792434097
Au 5.366682595695617 2.801681807435646 7.194132948910394
