29
Energy = -73.29396401 eV
Au 3.52788529856552 4.592126275692327 3.032467117861248
Au 2.511388222641339 5.363164532368027 5.479539081550674
Au 2.493460799501823 3.0685584434393176 6.9466714934685045
Au 3.9188226950683918 7.2638073385779505 3.974375072355718
Au 4.74923981354876 6.663413338096823 1.4178612018877017
Au 4.555602971514892 1.1645832592197025 7.220848975721485
Au 3.394267545831184 7.76566922951023 6.619155017002896
Au 4.644548767260674 2.9857488745726206 5.093573645616933
Au 6.261893377925735 8.537736618099474 2.885982051136842
Au 5.684210570079302 2.7587746736970735 2.6020299723646882
Au 5.22762737206574 5.576610187431235 6.15335046979237
Au 2.829300688296505 5.4605921264699235 8.20991674932761
Au 8.0372178934397 3.941992761156108 1.879234566748964
Au 4.619025327851641 9.896550802922006 7.897901523749238
Au 7.5257185144034775 6.586696099981987 1.358684637144567
Au 6.143369123562233 5.450622088086331 3.5415320213537633
Au 5.368660345502468 9.379357252869967 5.307497087573946
Au 7.6413440230280445 3.4070025923355223 4.64936900611317
Au 4.0398071703309855 5.2392390612184325 10.693576081162487
Au 4.45897175448097 3.1939082251153104 9.000146406912323
Au 8.003074247881905 5.5486790761452776 6.501605271107836
Au 4.311430443294051 7.554788097721773 9.275833911856683
Au 6.437159890753967 7.795270494997865 7.436892514953812
Au 9.117889104788308 8.297728742884518 2.7527357896523035
Au 8.987315530306073 5.7445352662299625 3.8717733735473607
Au 7.833155998126442 7.958045213614057 5.128508258367322
Au 6.19450003644623 5.413275959413576 8.887636745080258
Au 6.590128344161249 3.0198912465057823 7.13303714699499
Au 8.54154463996422 4.020192632247786 8.69682532021592
