29
Energy = -74.03401312 eV
Au 3.3089404791027217 4.7163985364490015 6.037170549180263
Au 3.462087954986087 6.631416916323663 8.155731917982092
Au 3.2684751049872816 6.467133800437786 3.649817987307951
Au 3.8226692670969586 9.096100496664222 4.293396721333947
Au 5.518064128917476 4.765758334124166 7.753727409118382
Au 4.068548504869215 8.883703975592198 9.655923705901191
Au 3.9651266427033693 9.38082036466514 6.981593278839212
Au 5.2675163242754195 2.7318774683056932 5.903065600291043
Au 5.282182122228193 4.660184252710638 3.9004989797078946
Au 4.986334479484469 6.921279333916407 5.860453803187072
Au 5.957655621016281 6.8897854229108475 9.486272774287533
Au 5.9144747662292385 7.5571092613697255 3.2798966500118394
Au 7.44109346977502 2.7826487351990044 7.629420300116447
Au 6.354115758176126 9.387866134148421 5.455083778434299
Au 6.3415927971361405 10.06595379882996 8.14568109722146
Au 9.589404376967483 4.4357764301165306 7.013877513870733
Au 7.661596768480069 3.8432088312533375 5.042834984063384
Au 7.966064458372557 4.969064462272994 9.21759690686442
Au 7.485989804486207 6.795526501985032 7.01676798871902
Au 8.575028225860995 7.519439461204745 10.126971491241386
Au 6.528961503142192 9.252049624454934 10.819324329111156
Au 8.741781120772723 9.378091575466126 6.854746090938566
Au 8.408574322475099 7.753734114392272 4.482475755989035
Au 7.673710188603943 5.564468369477033 2.852100447116226
Au 8.717435792896987 10.29021206881411 9.488414985321098
Au 9.894550549340519 5.377348907485984 4.4126791304220765
Au 10.583898799809017 5.901407655336637 9.133416466648123
Au 10.724975978248002 8.645641007639458 8.694566882189083
Au 10.329155485441749 7.119481713369975 6.471380803342602
