28
Energy = -70.51389241 eV
Au 10.551887408277858 6.230967926840335 5.176973196500899
Au 10.500312477683115 4.595309624722713 7.3570524133641015
Au 10.299194675559283 7.375633110934201 7.724236425223789
Au 8.969559075806833 3.955191080791027 4.979539199143795
Au 8.86743325573343 6.333002868203069 3.068624090919324
Au 9.01060127412896 8.629562987188558 4.63028513996575
Au 8.14147470706302 3.2802461508627396 7.635210880436991
Au 7.960060204228815 6.514035645590331 6.21513267055835
Au 8.475836087679042 5.634011055624747 9.01258567721169
Au 6.601498070918392 5.043584390962692 3.9438348836317627
Au 6.557397048652492 2.651156923441302 5.480703538467253
Au 8.451877431713093 9.349540245031987 7.178588587102583
Au 6.099010264503017 4.216328441083414 9.191721104028018
Au 6.519037562049337 7.822150197756556 3.505711859104125
Au 6.604565357808552 10.006681172760905 5.3108605585450865
Au 8.42090552269889 8.323671079997412 9.700629410999115
Au 2.717903542449038 5.0165664894640845 6.284049984530096
Au 5.672888602678602 5.070286429002714 6.5837349107563226
Au 4.176172247946601 9.217647041229817 4.2859949826736266
Au 6.162339084622896 9.764970564976382 8.683410174331046
Au 5.595114768156033 7.764041651446875 6.74729475566605
Au 4.274721910410534 2.9273104671557504 7.396457078386218
Au 4.293294594323398 6.442456030197093 4.464656235377808
Au 6.004847981898321 7.0106166471371685 9.568487803076543
Au 4.088727756066964 10.111337064132393 6.880309823096419
Au 3.7575040496593823 5.666030908760703 8.749381725763124
Au 2.676643636250714 7.7454772691655975 6.349369213877141
Au 3.640921101279824 8.375773305012224 8.976439080008385
