26
Energy = -64.91141382 eV
Au 9.543527913004992 6.067875636380651 4.307936350600233
Au 7.670270954674368 4.113244058840426 4.323833836363086
Au 8.67512893387012 5.138767757769987 6.740073115002075
Au 9.855204420558714 7.655784238283311 6.507521102407535
Au 7.162624991220788 6.398456948836323 2.7911621734073933
Au 6.881363585405434 0.539541532440213 5.8360062948964195
Au 5.02396391781134 4.822949677270438 3.497774257154207
Au 8.855083122561256 6.979238298496692 8.975326885884147
Au 8.186726303128165 8.480660046314656 4.525492024300256
Au 5.610443566906964 2.324750397588832 4.31390897490294
Au 6.675510222138845 5.388961965923152 8.511774881205916
Au 7.021390536045351 8.025625315740891 7.249087171185091
Au 6.896664974615186 3.079123787557693 6.886398026997662
Au 6.083878212441646 8.870497516599526 2.7890583653713428
Au 4.504623132383093 1.4991593497434124 6.795092351174066
Au 5.553461282660559 7.084783612715407 4.989773043724579
Au 4.450754964418957 4.00881229112782 7.993196517950599
Au 3.1889078391325207 3.4621758709097437 4.9381315452690915
Au 4.654740086512991 11.062231310259918 3.5295190178434663
Au 5.885660331008108 9.788199102768782 5.575923008392605
Au 2.8825665119146078 6.216764296205843 4.929560712249879
Au 3.4715177690026433 8.7582184005209 4.320261236298527
Au 2.111290298270644 2.5999465512177395 7.307710531428753
Au 4.504752355013691 6.833005885358318 7.524517749253461
Au 0.744937583839093 4.458619641054119 5.671812811566601
Au 2.2058754156092286 5.505108008395021 7.662830042683989
