27
Energy = -69.14516281 eV
Au 6.422822556924527 10.721703871149172 9.625251216697766
Au 7.289442871144995 10.864691676461566 7.028774877288057
Au 5.102389766160276 9.11230647417358 7.839584340642963
Au 7.786494459080283 8.407201009615182 3.2067453972372046
Au 8.061179535209169 10.878903358633089 4.382178555047831
Au 5.858830537323929 9.360499852676352 5.10835649073258
Au 5.278866335680351 7.239731817923266 3.4801804221609847
Au 5.827477178707846 8.192232313240225 10.488512412158801
Au 3.9260032515080305 7.535592840679819 5.977980686743069
Au 4.268947052246857 6.557113756199045 8.629536498162578
Au 7.883858726903932 8.576934078581635 8.60267044587699
Au 3.1093044939973495 5.626688448631529 4.219194215544723
Au 8.657552710808256 8.656874467739216 5.888747493491265
Au 6.546192646913401 6.767672369046948 6.563657308049114
Au 7.802644819983034 6.1914391078464055 9.90522241557024
Au 5.29407254942596 5.612166078724839 11.068585067528959
Au 4.386976839201226 4.776993297168201 6.474321591276479
Au 5.6557371088242645 4.512359814944379 3.982962963660603
Au 7.445379065229533 5.882939438398935 2.2599847991690765
Au 8.902768188757609 6.2537405512903605 4.655585453530287
Au 9.149780311185522 6.378793154402375 7.464254842918778
Au 5.795970825209004 4.196689254200972 8.723225379439972
Au 7.272504406888519 3.6939612923984932 10.99779465041068
Au 6.99824980627902 3.774567545310008 6.28532716551228
Au 8.66225221678843 3.8559585936167897 8.624989492990517
Au 8.265040333466331 3.7293678478691454 3.7791536994020367
Au 9.75160991844394 4.027068414990932 6.136393045587173
