29
Energy = -74.16422886 eV
Au 11.68271929737833 7.1184996856454745 9.691570450355062
Au 9.852621058093925 5.2366860616099435 8.88091794525194
Au 10.671823608336265 8.048807037756543 7.371710837757725
Au 10.368910264921126 3.4986849423502364 6.677032776082835
Au 9.062178941368053 7.781161628720695 9.856750176462311
Au 7.834907310118974 3.673341381123471 7.760972897843998
Au 7.961725277353466 8.571735306416329 7.41221088806841
Au 9.414108308276226 8.455282232964608 4.995369755334369
Au 8.29153451596259 3.724206260064693 4.897911817016267
Au 7.1265624585995555 5.949629975287983 9.071207496191827
Au 9.144588445778194 5.979752554372865 6.2973055155547275
Au 6.081762148297281 2.455429703407225 6.036168156345028
Au 7.918150548102383 6.2525599822184175 3.8108816502593754
Au 6.480371831415725 8.60028897768538 9.833891302254537
Au 7.979454619213159 8.68613577317329 2.624604822979851
Au 5.141901009349605 4.392950939930915 7.721801500650188
Au 3.8677215387545005 9.385603655531636 9.642796135271976
Au 5.254373981503895 9.235729976772621 7.297221495492651
Au 6.617021258647808 8.986002710738907 4.920590954233541
Au 4.452720618880642 6.812119213330414 8.823800614566371
Au 6.197179106143575 6.55662129793324 6.296002207939098
Au 5.4597708972249785 7.2630800637453 2.9062872904858894
Au 5.777716876717333 4.595211440468273 4.133227692109122
Au 3.594245010904208 3.4851737807545273 5.3468727554549815
Au 2.4924939987907266 8.483644053965747 7.445222832443144
Au 3.957977778872441 8.269895912887407 5.021941381089759
Au 2.9896372777660494 5.783811470825104 6.7337856530996545
Au 3.3105675010127875 5.82856865480766 3.8547010477358
Au 1.3859704291048858 7.3817503115917935 5.1567109223565195
