20
Energy = -49.1259134 eV
Au 3.673769495352385 7.169403879223247 4.329345474643659
Au 8.423350618262388 6.422088061988135 3.372929071195377
Au 5.232935982176399 8.968672426503758 5.6239691247263695
Au 7.827574097600458 8.548028998589372 4.986179208427825
Au 6.076637427153089 6.0802341753227775 4.703737253681413
Au 7.066068522115557 10.194875908402777 7.124242956594524
Au 10.014994113305072 6.936238141719748 5.589873139417533
Au 4.294656756334015 6.572926348826904 6.959425327960396
Au 9.603845969789909 9.182294514808703 7.102497571639215
Au 8.263800866696059 4.689422051759912 5.520442879363902
Au 10.664386877744333 4.585333810203963 6.902722753356868
Au 5.860893660915313 4.363683040297656 6.8853880289514855
Au 2.9381393067506525 8.959829113168816 7.171339569332684
Au 7.972754348025592 8.637371195487976 9.241723367303111
Au 9.911250499795674 6.814685686586288 8.390602335635402
Au 5.203685702632068 8.755749825942843 8.613051103791243
Au 5.904092351799621 5.943946930420232 9.118631851168146
Au 8.224835349832013 4.581738254615014 8.284958358472776
Au 8.280074909222082 6.1840507011964565 10.523586396345275
Au 6.0439727995548855 7.891146589993249 11.037073883050502
