23
Energy = -56.57546932 eV
Au 9.974669790810271 3.5137157078273447 7.2225696961628705
Au 4.062888671493007 7.247407007063606 7.298448402514952
Au 7.090890693680545 5.361117727579234 3.933448043129955
Au 5.6709687143917185 5.153931006234654 8.37273587978568
Au 4.923988416669744 4.979944767695013 5.71292927521916
Au 7.143706244218298 7.619767559490222 2.395492857168677
Au 8.621662885273372 4.9964904520378735 9.087841708747561
Au 9.824037610587084 6.109079491659255 6.572921771088509
Au 7.052814189597209 9.377394872155762 4.8445137410365335
Au 7.489049658687374 4.215033876654506 6.5015257225044945
Au 10.23408105301558 7.440615436080973 8.913686946082493
Au 5.259838368182719 7.697731521170675 9.673695358516177
Au 6.6338498276682305 5.554707133762398 10.860534401927621
Au 4.779983357797302 6.930282180763132 3.787042673647005
Au 6.682160426594102 8.128490451701003 11.955583899347992
Au 6.083184353643883 9.358944807846008 7.548571206794071
Au 4.327133048839614 9.158673505719198 5.403356175750724
Au 6.761377911044828 6.950602782171764 6.304205261662698
Au 8.828953993230861 8.688864316167809 6.9243605346389705
Au 9.029824385119143 6.820596686859976 11.226108186674917
Au 9.017446866801086 7.411728954210359 4.376626371806763
Au 5.193558344312148 9.514790775847803 2.8003118216028735
Au 7.8650360171189595 8.837390210988524 9.539890675744848
