22
Energy = -54.47810701 eV
Au 7.137811165137117 9.743040402638382 7.022668723333444
Au 9.892927078793335 6.984850328007731 7.13331762855919
Au 6.6173974606798645 4.700279047955427 4.510201222499383
Au 7.154936123939118 6.659720505229185 2.5943589691120805
Au 9.337920695986675 9.167175576763299 5.505050264842573
Au 4.42772894140782 6.292553552591263 8.662584136677852
Au 8.896439548227143 5.844572690995139 9.478731514513512
Au 4.120887605678712 7.539916721661265 11.057118773010659
Au 5.6603435048180435 8.86282187600508 9.157926126557049
Au 4.826820489615996 6.892173464602434 4.1171671678833315
Au 4.950804832847383 8.197332655418117 6.542162242496857
Au 10.895054056157257 7.853273337828645 9.460242808542551
Au 3.171375199466798 6.150071735792416 6.262288538088596
Au 6.546525567668143 4.4320057322065285 9.127040281734743
Au 5.1721883908232 4.267747616053572 6.831753959836101
Au 9.359617331678862 8.200868398192801 2.924240151173565
Au 6.83697443559545 8.680337102441811 4.5037521414451485
Au 3.8571854029493955 4.336854308013212 4.32835315977108
Au 8.36810198609036 8.618537887372938 9.118821582942868
Au 6.619406646924301 6.680960674808368 10.642469369352568
Au 7.967418912738583 4.960924287518211 6.902263852540687
Au 8.88881384402163 6.296811165147473 4.760067261215309
