28
Energy = -71.87004701 eV
Au 6.1580715394931165 9.845684278954975 10.124550268657
Au 4.895828843121163 7.400792743671445 10.311041271671854
Au 5.124563570542291 8.72781617239503 7.826228096207214
Au 7.493933517504921 7.56452496506569 9.271451262485376
Au 7.643002260669468 10.065451920582996 7.816612389950982
Au 3.7088799343715784 4.938278992695609 10.455849866784167
Au 3.777714340541227 6.203266308895211 7.987868406152088
Au 4.207371024167044 7.394405518902208 5.562447752657317
Au 6.317543307402465 9.338123023314248 5.439284446386348
Au 9.479176755746023 7.937976995149129 7.526631993815914
Au 9.051551598399023 9.88932352032157 5.479623032678484
Au 6.197925796056609 5.066272947503305 9.241483459173004
Au 6.655417608643219 6.559771792982837 6.651918117937524
Au 4.092957626193046 3.421456823793481 8.211158738203025
Au 3.351811364301389 4.706271275497242 5.778782407021799
Au 5.117171596602803 8.326012597407242 3.1263003571116292
Au 8.672140808572895 5.224762066768079 8.08825343826363
Au 7.822530155928922 9.02113191438928 3.161965437963371
Au 11.466148181341618 8.50846524282335 5.775819818344013
Au 4.616937856687468 2.0738632442460023 5.956829493547158
Au 4.20304050018978 5.757905604084777 3.3180945507102817
Au 6.97117879007579 6.362078403044436 3.6970193080657783
Au 6.8027021048579535 3.337010669357182 7.139125825100361
Au 9.425226626202813 7.217941672991255 4.493009311475386
Au 10.814531220733166 5.7467825747887105 6.441669028354534
Au 3.5962920305941988 3.075839183828202 3.5980117565929786
Au 6.091492405522251 3.8792378302822077 4.445558040779635
Au 8.520754159920031 4.68759489831099 5.369253262899018
