20
Energy = -49.1864678 eV
Au 6.460454456156537 6.947105210418747 3.163998262438546
Au 9.400892745599341 6.403099400639801 2.8330175122190275
Au 8.346265956148502 7.978292755821251 4.860856002000925
Au 10.181449937121805 7.872635209323971 6.923896813896453
Au 3.6233125305096485 6.433262689792401 6.802096156385816
Au 5.4445036840439895 5.275846857983333 5.147529962343784
Au 7.775833898774884 4.573418003596521 4.00061249000547
Au 3.0864477556772445 8.835204097010282 5.800297698175023
Au 5.702627418030036 8.335316966185667 5.376358267787095
Au 9.917867028217698 5.604359992355739 5.387000472978443
Au 7.67333583514676 4.292081442676154 6.703109087514978
Au 7.606626026196435 8.817087076759119 7.369133299408626
Au 4.839285952580664 8.89424417084981 7.910438805111493
Au 5.165222697743561 4.410927431160047 7.748523679842272
Au 9.78873981785379 5.343760583837 8.097273533252505
Au 9.135454782373234 7.650931082340457 9.44203143411031
Au 6.63016764223313 8.325508049353546 9.94610637072917
Au 7.275771086636396 5.5428135419558 9.173646271983449
Au 3.987668333591547 8.754069269125969 10.52133030419659
Au 4.635027506050641 6.386991259500342 9.469698666306522
