24
Energy = -60.22857871 eV
Au 3.5782362297400407 5.5307964567408066 6.274530809792591
Au 3.1461411696091024 7.586986614939464 8.044970010369164
Au 4.957162070194746 8.085998533859325 6.100721717544421
Au 2.669463227465901 5.003144906052917 8.945452195110136
Au 5.73586869010407 3.848877124228335 5.923542811575414
Au 4.358994415818762 6.587057279759362 10.402092832732741
Au 7.109672598035458 8.24699254797245 4.392759982664494
Au 5.311348440608309 6.126395874033458 4.242449836569777
Au 7.1403510730761335 9.553578612445481 6.81517531866538
Au 5.295767638921186 9.008513073603098 8.747037587564957
Au 6.265805575500351 3.7263180213993463 3.182191238676715
Au 5.322144508477393 4.8104102395111745 8.442276742516382
Au 7.745032121012101 5.989512852389646 2.896556246135639
Au 9.593175843380601 10.123760695860147 7.865432692734375
Au 9.564706258098692 7.976094673949677 2.923660460113719
Au 7.849616885989217 9.39870403404628 9.750346199467254
Au 8.306333848823206 3.9856754094147573 4.927989872742942
Au 5.950030158306534 8.474401631018795 11.444360218329686
Au 7.8441941988933435 5.0206849776427775 7.5067786302680215
Au 7.056185989301225 6.697492196092023 9.5402487946712
Au 9.588034971734302 9.250224224097 5.3310641098119795
Au 9.06293387225031 7.43931112369138 7.8193088490022005
Au 9.568349134341814 6.524523481021943 5.2335682568474144
Au 10.352366010520049 4.376460346432428 6.619399516295297
