29
Energy = -73.61027584 eV
Au 6.4268706084780645 3.2625123715807702 8.580914344732337
Au 7.921206443942414 5.0264554708776155 10.289096276664349
Au 5.153979713595549 5.12582194867393 10.244287848129627
Au 9.874721165975044 5.655137869229754 8.37460858728621
Au 4.091633498566303 4.587793593586722 7.787755270083535
Au 5.671490644986317 3.27510866322348 5.893996692897669
Au 8.324904460578175 4.012628945235631 6.663120977669252
Au 6.254479988767273 7.536982534284772 10.890398589077307
Au 6.817729962711083 6.092540759305647 7.990650037228712
Au 7.68889891654872 3.8371620669202873 3.985158321412328
Au 4.280248001148077 7.486084096927013 8.966882467168897
Au 8.778865035064415 7.6752377222964165 9.904679969417913
Au 5.016725314066597 3.7538612500096384 3.236126674755975
Au 3.427991629485008 4.853941306505089 5.100380482584905
Au 7.363834367863683 6.344308395823228 5.309152656450336
Au 6.716093467705466 5.447558812068761 1.8918793477359415
Au 2.3701632930881544 6.640670451592734 7.171091984060464
Au 10.146022776863123 6.015857626451187 5.6936794457464055
Au 2.3738133986686254 7.408141178329452 4.528840663565396
Au 4.436107770189707 6.508929740670216 2.970415755071377
Au 4.915785440772949 7.010008740280466 6.166538024242838
Au 9.114263844767846 8.217599505149602 7.252671250741312
Au 9.089708438839887 6.1319508654259565 3.058301558238246
Au 6.736192943812602 8.995535597300448 8.527619440769051
Au 9.264364750432367 8.462100922132786 4.512548253558041
Au 4.467582563122069 9.646187121144132 7.057595631458594
Au 6.856737274763077 8.010586945892536 3.0387484452604867
Au 4.594513398818424 9.045183347176888 4.1943661377711035
Au 6.899943449676333 9.169009733254521 5.752137597560849
