25
Energy = -63.0440574 eV
Au 9.867913607142219 5.712849742187147 3.578095905419964
Au 5.53505785884173 6.578740573771195 5.395827770931898
Au 10.777772871636303 8.127767619658073 4.372287252616365
Au 7.295573647701774 4.981313837793132 4.11239551370266
Au 6.432219588936166 9.28298187308636 5.868073407785463
Au 7.915914861604931 7.658752088279687 4.261713029540069
Au 9.443578870120913 3.8197517852860017 5.563975963189294
Au 9.0276128977949 9.906660425605752 5.461779913761769
Au 2.817879374977891 6.141682934199298 6.215789065651161
Au 3.937400626495508 8.576087847276574 6.550802566505972
Au 11.199155992862389 5.930111732356543 5.979791422779103
Au 10.570392564588413 8.444518824380033 7.170190125782063
Au 5.5040572204992895 10.00972377313987 8.36196328915149
Au 7.07304081504072 4.515718660092713 6.790154169825734
Au 4.832358245655671 5.443029027386413 7.914790076890894
Au 11.77376338614548 6.444949795495049 8.570679838265654
Au 2.8778497010620154 7.236625832164988 8.771641690587273
Au 8.18118751892085 9.536528380011287 8.071440729520726
Au 2.71332527557285 10.020372394569886 8.5627379969326
Au 4.8173528253069495 6.267646765423362 10.54613471035262
Au 9.512994352158987 4.922400356898316 8.066295459020433
Au 7.190892211935418 5.583398930952645 9.342110864149651
Au 4.231727497186485 8.924191707946296 10.579172403588206
Au 9.316525867325417 7.372919087055347 9.440550776401446
Au 6.858907274675881 8.265730959173368 10.156061011836849
