29
Energy = -72.78129982 eV
Au 8.019689489399667 6.319049056016443 6.551802973787712
Au 5.69961553515011 2.218985303685086 4.039406298011339
Au 7.747025112995627 9.458346885862484 9.955829316210465
Au 8.273252191834876 1.813938448710233 4.366705335303244
Au 8.254500083053527 6.72141871884809 9.507535084948943
Au 7.8626469313248855 9.405329366491326 2.9081213671787123
Au 6.772246092275004 7.580471883993348 11.67578241047205
Au 3.8484585861595377 3.989935030611035 5.134818531397298
Au 4.17289105887644 8.62622588515012 6.849217004892778
Au 7.559096113898594 6.913082192207297 3.869649670934286
Au 7.20599456749872 4.278293301542756 8.475535124685528
Au 6.630242970358131 9.603422717232922 7.468059003585522
Au 2.73373729894263 6.187467604922347 6.195698624510802
Au 11.23408092878055 9.82019356699931 6.229008431196672
Au 9.937277768179483 5.07343211973751 8.05016060717688
Au 3.162799244747438 6.932353347370198 8.893508804249372
Au 5.399910344868581 6.316509928670238 5.465893849690322
Au 5.555508347230985 5.944929442074126 9.862585656795146
Au 10.13301866088077 7.771850459096102 7.778477502400691
Au 7.278744547281358 4.350419525796283 4.75938406354048
Au 5.115714706903151 8.687297461805128 9.608172647853944
Au 9.231405616275524 10.414244991614176 7.98351011605605
Au 10.416438262580552 9.927357468731312 3.6530828186933455
Au 5.935751088532042 9.050276881468628 4.85815807928522
Au 8.689217359876306 8.976688186764394 5.553568957395921
Au 8.839040253015563 3.042632359853365 6.703131203024157
Au 1.4673510569235209 8.307415912283098 7.213262777093599
Au 3.15029146443122 1.9934200162029785 3.543344050190907
Au 4.62976821445732 4.728762621591689 7.650706281937659
