25
Energy = -61.78151761 eV
Au 5.092292077877533 7.757216011741436 2.7116341603199916
Au 7.683153205229969 7.462668772531641 3.2961234407475515
Au 3.1670463584209005 5.791456026886916 3.2613622552349772
Au 5.748613719954235 5.51336170128138 4.339830421083072
Au 8.471150142417683 5.197525718745632 4.8446319094025805
Au 3.4908599130362803 7.9886878363892535 4.986228608102564
Au 6.721998719340106 2.8241347362902416 4.730786740214161
Au 4.055117182944469 3.318244440583384 4.298845144039545
Au 6.194168530886521 9.111874333214452 4.901051597504564
Au 9.224804493502864 2.9030263786618944 6.065743573633408
Au 10.275224698380539 6.969726610216052 3.858674945202988
Au 6.0490270755944 6.926852244931971 6.68332688174059
Au 8.723889399487105 7.810307135448932 5.95700934524406
Au 4.471233452224506 9.653745389101674 6.9651669409089765
Au 3.0988072480526294 5.365177935469535 5.995711948925825
Au 9.432770930269587 5.2750915240954335 7.6069055101325596
Au 6.929817535751513 4.25473685536194 7.013710143304941
Au 9.072295267195672 7.748888396021879 8.701302785488457
Au 2.8473204846433533 7.561523416421294 7.641843418007622
Au 4.406013090294115 3.126983588994982 7.006039557772636
Au 7.173935411662895 9.400010042517001 7.592250172459681
Au 5.248295305672604 8.042155512379557 9.189361460548298
Au 7.132181082183454 5.923321640547242 9.236073417261942
Au 5.841482419021204 3.4267339371168988 9.391533148610682
Au 4.280701864841317 5.478749423934809 8.557052082993485
