24
Energy = -59.09594217 eV
Au 5.579348544109996 11.42027623457204 6.61213708991144
Au 7.130943305801989 9.95014352215131 8.4440638945331
Au 5.035618950146151 9.471256603276117 4.796801071650376
Au 7.751035805650758 9.942010531620573 5.780517139449192
Au 4.694388051679491 8.900758147069936 7.539357518284002
Au 7.327908740691397 8.930589841322696 3.2648125327435484
Au 3.813963561880095 6.970594977955225 5.649750479643129
Au 6.5299048286765595 7.391885379302186 9.216894398246197
Au 5.1988837569437845 7.174132577005283 3.2588444452414906
Au 6.6122626810255705 7.228553190973898 6.082224492933155
Au 4.170906913348284 6.317912284610999 8.31251916373338
Au 9.320908907022925 7.8363456282914425 4.910681831854852
Au 5.92932186801742 4.746481251948739 9.9262296151155
Au 7.672348289677566 5.957532683016195 3.7104896259812987
Au 3.4363276482140153 4.318081458296514 6.506735070149707
Au 6.20989486011219 4.698221854303387 7.188820040473741
Au 8.462406814878888 5.422633739004794 8.8706142868729
Au 9.097053496687979 5.432599239870666 6.176951258760726
Au 8.856582544527319 7.890544622625622 7.67076479103568
Au 5.196984589688746 4.738454266933657 4.442141442604127
Au 6.219199557150028 2.237775004848083 8.843986907991702
Au 7.593043679631393 3.463135410106119 4.886631489206307
Au 8.442125670833956 2.9767124042080386 7.467047143668152
Au 5.38508003792144 2.302444099966405 6.125273002604357
