28
Energy = -70.54301065 eV
Au 8.981963419631693 5.042235684453449 4.585134716631186
Au 10.01971031161555 4.00418301876269 6.977855497450169
Au 7.401882342931871 6.202430577346545 2.634546495599692
Au 10.558379002919434 6.620785667437216 6.273864178190345
Au 6.567420455607253 6.279968440632605 5.312196870870715
Au 6.108047906204882 3.959093207696585 3.7735723184094336
Au 4.683238777995681 6.33062327627904 3.1470305388498936
Au 8.228104444773896 6.056709012062603 7.657168167568202
Au 9.96040492179693 9.243465709764179 6.351628484441692
Au 7.712838683458696 2.9229798327175023 5.756720837703622
Au 7.865770501564158 3.398224111803809 8.573384258963655
Au 6.251092228106674 8.650693961198076 3.6252673360040597
Au 8.918114949615882 7.8142269618699425 4.280640466019671
Au 6.206311016882938 1.4379036742061906 7.427667792380309
Au 8.04552424805833 10.42859937595964 4.763258699027701
Au 5.128009784489847 3.824876045415094 6.381196376953229
Au 7.165219928772406 8.106190122363115 9.26345759303205
Au 4.259463734979472 7.877883398475595 5.449364023439616
Au 6.749465516501905 5.460515869025111 10.081891107855173
Au 7.605383885145687 10.043039623769596 7.463597437632666
Au 5.161209583853824 3.353768712547314 9.137015478652042
Au 5.449610497536608 6.347131578675889 7.717325617857415
Au 4.641955990176211 7.295281674479045 10.16448708881784
Au 5.4595940742837055 10.481669882718096 5.574564674350692
Au 2.9211405962827 10.012514538805382 6.538574205934105
Au 3.1610082017078267 4.910081369650613 8.158702387000847
Au 5.050162929208638 9.412241099471059 8.149159838392674
Au 2.863382783084257 7.607094289600379 7.905138229158413
