28
Energy = -70.79291044 eV
Au 7.938738273039596 9.826299089248757 3.634651170903977
Au 7.672752558824783 10.010947430446615 6.398479930432361
Au 5.233052882050679 9.123193358251209 3.538842073445615
Au 6.840274856400976 7.1945971048731066 2.491980243763924
Au 9.141012455324141 8.812161310198322 8.64702642973958
Au 9.559637774029946 7.650556002147454 3.4014038127672714
Au 9.822233969316049 8.15798725637906 6.088195136550804
Au 4.8556403986665515 9.4123931931668 6.266166504945394
Au 6.392130483754587 9.188091470765102 8.67043310585059
Au 3.6865470600821144 9.684745151207077 8.731573503062787
Au 4.28293486888735 6.971049763197021 4.959787666156785
Au 8.705923938276264 5.1594562805044095 2.59966502762081
Au 6.1921460408272555 5.074934822242188 4.336964242785754
Au 7.099295041618543 7.590177862464162 5.21682773486728
Au 3.5460307519837313 7.167322299664421 7.641143871142774
Au 4.33095041054336 4.727040063723996 6.585260436556379
Au 9.242781928220024 5.5586582647938 5.29080788993416
Au 6.296493139144886 6.479363520768286 7.5696602549123275
Au 9.030827623926145 6.171853788910042 7.993339172580254
Au 7.661000430878033 7.1802600180375 10.295922035587447
Au 8.206391048635371 3.1159315405800867 4.332081882333547
Au 4.618714912837459 7.648188550370028 10.262178608552677
Au 5.780467304511659 2.5823116950979967 5.583559340922583
Au 4.272743445055762 5.069790254947922 9.371975925146934
Au 7.711358445958059 3.9470276936414472 6.973793832717825
Au 7.172235659684527 4.568704687073135 9.581555283625221
Au 5.415850457671282 2.7959195194008073 8.33562938359234
Au 5.8058973379441365 5.63416126508025 11.675765515502784
