25
Energy = -62.68383274 eV
Au 8.108931912450887 10.170305376371859 4.586482968751083
Au 7.899515958035813 3.1709025741976107 5.795532403267222
Au 10.802988916670612 9.422533345392415 4.899622717162732
Au 7.058424027688704 5.568566749426098 4.641992729308673
Au 6.162143758570605 8.190064243756968 4.976681484917731
Au 5.256242287485968 3.4785092660485573 5.14202683655222
Au 8.83633363600988 7.5526774379960075 4.317870008597605
Au 6.442525540106663 10.342918868964173 6.718532524879243
Au 10.469649406615812 7.281312674588935 6.584786666355016
Au 10.354126523285279 2.520139615497194 5.0584228210502005
Au 4.516366597183763 6.135462155258925 5.728439973706181
Au 9.888256410299947 5.125653951095133 4.9122177979523025
Au 6.965146189588235 6.019349546672592 9.488138828453785
Au 9.198713330531158 9.75390284280729 7.166574919706492
Au 4.263016687076457 8.530788232315901 6.920238322618138
Au 8.620451470044873 5.396453550949854 7.3966456886362995
Au 3.3208141318275453 4.016496646948996 7.064489282611426
Au 4.709472458787837 10.456560422928778 8.81099771618071
Au 9.218988526479526 7.630616473556342 8.98487673322
Au 4.10088032683367 6.107346993077531 8.644501905679954
Au 6.0498499042810625 4.391397411379634 7.5970830958088404
Au 7.3899231456478445 9.690505348200606 9.186450345761537
Au 2.7417625096640186 8.41603482566642 9.239803650116032
Au 7.728148582653087 7.904933290622754 11.305808753637079
Au 5.253930250334898 8.083170644432663 10.188384313223123
