28
Energy = -71.00089337 eV
Au 3.111911814055974 5.746630627049468 10.360303280117277
Au 2.4039830476439303 7.191030732875887 8.100783640492995
Au 5.760858307993633 5.218809733245686 10.007591535595134
Au 4.597172945012636 7.94183611667099 9.769209425032285
Au 4.021478604493945 4.797337977656436 7.889707860776932
Au 3.905563704312432 9.736565145880776 7.730754460597853
Au 8.433997195316001 4.957851420581937 9.489326649347221
Au 7.114265860311062 7.32554947470231 8.72699818340155
Au 6.30697010200835 10.003132760945833 9.219186185055909
Au 2.6311812715014242 5.820458976414253 5.730926358349756
Au 6.694024428134448 4.033544231811229 7.581570887351832
Au 5.141635483285075 4.6213667734932615 5.30817813608919
Au 4.876783811848901 7.284711805813339 6.718600954615808
Au 8.870836418530278 9.454726650841094 8.196149634589204
Au 10.553737339146092 3.332204574562107 4.805496022483893
Au 4.312632089841707 6.894758832087766 3.8328387546213394
Au 7.767007169089693 3.74962247413057 5.01453102763155
Au 9.558858518061095 4.0143554089640965 7.222007817759257
Au 7.372465378590327 6.425885454551302 6.033152113442095
Au 6.646156450638004 9.481239594622755 6.535322584986137
Au 9.720341231852032 6.816535352459425 7.771873483847326
Au 4.254990483623409 9.486318973930496 5.030683067170033
Au 10.311051451031371 6.027877995769017 5.191918129624803
Au 6.702629225939138 5.670113906619328 3.2079993282483827
Au 6.634044731275202 8.455815347255808 3.974577839270101
Au 9.218972855416345 4.6616075014377465 2.8087394435468123
Au 9.194771259049794 8.536149387732005 5.602290634559198
Au 8.963298877103588 7.3858410451864405 3.133340359067429
