27
Energy = -68.68618428 eV
Au 1.6490698270815323 6.525345789249572 6.230955463824583
Au 3.0749494190945206 4.483772171466282 5.043213498374587
Au 4.002103847779033 7.146731501400421 4.905792373415106
Au 5.5513178680376685 3.807944254146973 6.401476114118122
Au 4.736636596726007 2.4464368137563968 4.175812455196024
Au 3.899759518436 5.74107610585021 7.546270631471261
Au 5.427959981724295 5.023941838771356 3.642496273235058
Au 5.107731731593471 7.609329757829158 9.198354649201782
Au 3.2071251497082467 8.507719768901284 7.32445165670836
Au 4.99108930927224 10.24608426370391 8.415756669184136
Au 5.491194546421116 9.279008889459108 5.763476271069235
Au 6.324947729448747 5.0848642841324345 8.722685803772716
Au 6.539556283002031 7.506547944694277 3.7630437108076173
Au 7.340930794593507 10.832935345580475 7.083024048829046
Au 7.432777087754216 3.0150228081643657 4.478473334597435
Au 6.450791898524053 6.631786777322503 6.421968758764307
Au 8.045071867684069 9.615333401626426 4.67221367748135
Au 7.2043777353957 6.774065119975005 10.71167903587455
Au 7.421729165126866 9.20360104010704 9.3159833725106
Au 8.0165921561796 5.307763929090032 2.899861299694076
Au 8.211224691222105 3.7017148829793123 7.079319189249904
Au 8.88869140590217 4.735208763695445 9.531510025468185
Au 8.973129098928371 8.565343599431767 7.025089683416485
Au 9.124353348224371 7.032837429801046 4.746714756950786
Au 9.537483916279795 7.416115050870917 9.371667504601943
Au 9.801219647270212 4.320717431587803 4.888661839900889
Au 9.947066522221364 5.910493177383442 7.1237496565899985
