22
Energy = -55.02570147 eV
Au 5.991348415756946 4.646438428020995 9.575147114767033
Au 8.650340868760402 8.188126064362637 4.009647343887779
Au 6.323667811132703 4.1046643220695636 6.795442260760927
Au 8.380755053275381 3.6760378313135 8.716310203234483
Au 3.4959463206401193 7.411223247069325 8.127052075390841
Au 3.6076772084416815 8.697502510649855 5.778540966299547
Au 3.855396106133095 4.6168884411017705 7.830817741287335
Au 5.224885649982739 10.859625545095984 5.338472962408855
Au 8.943541942389556 3.8931833029898537 6.064315245067742
Au 5.5411860050092026 9.352466331665187 7.7102030985313466
Au 3.613925130082755 5.7881593019606274 10.317581089775965
Au 10.205317821326403 5.973712571341408 4.999564647556739
Au 9.590103650658602 6.03186102841636 7.756017980030212
Au 9.981779957284061 8.43349830800079 6.4843822208285085
Au 4.745207841803191 6.146475170266358 5.769548850236032
Au 8.17401797600525 6.2047733514155405 10.067628783422837
Au 5.777300166714432 7.490749128618043 9.688068926098369
Au 6.0184063905480345 8.292035546894134 4.508523963402603
Au 11.360429874673827 8.198315148343154 4.09130306234014
Au 7.339472599284569 5.886694544853489 4.8779665249056965
Au 7.718314779679412 9.931723733853051 6.073377327376889
Au 8.050672717654496 8.34803391785036 8.375072041256983
