22
Energy = -53.68552464 eV
Au 11.58606096122524 5.873164372938453 3.339018609995137
Au 8.837525749100285 5.805864396171704 3.6395211381977632
Au 5.216156421231136 9.738522565324663 3.7707241130794364
Au 10.687748861639495 5.944095301337784 5.896064117821136
Au 7.0300499049715865 7.767836186618883 3.623620292134636
Au 6.2865776599711785 5.150662760883698 4.342934109976626
Au 4.337076410969439 7.22001225129104 4.282765862297212
Au 10.382678245102987 3.6233145888068825 4.29424657798154
Au 7.8777320289427735 2.902253297167071 4.585379614818421
Au 3.9421993202531316 4.920183515187418 5.6664055313455535
Au 8.4574927759522 7.44400164733102 6.152872197545877
Au 8.45689595455074 4.666637211553366 6.700119040872372
Au 6.066726197046845 3.3453192508112943 6.597283744801306
Au 6.080372247076022 8.727930945270078 6.153674035690326
Au 6.6978564754593775 6.419481239609068 7.917744858513544
Au 1.8625846975377491 4.65938829042586 7.472742696807029
Au 2.788191730112899 7.253038001849105 6.515329118104614
Au 4.794081428636281 8.257797910928169 8.431996961218095
Au 4.484507093211149 4.554074508984182 8.361132980701115
Au 5.3267477144788655 6.186237131904815 10.336455618219134
Au 2.1877642348756985 9.063461774273657 8.463985346639415
Au 2.770085095257611 6.5207044126377625 9.271586049721703
