24
Energy = -60.22238813 eV
Au 8.66425615884249 6.320022627124215 5.174187846349727
Au 8.49897720026803 8.384509723753897 6.973552735302905
Au 8.734413915961976 4.878421531578232 2.6363468477047385
Au 8.097169002769276 5.7249070366826995 7.737990370054314
Au 7.456601170455967 10.366024289538412 8.670591609206669
Au 8.178943706036426 7.514935631611379 2.7894241790620318
Au 8.340769534513784 9.605869485964698 4.519404320472212
Au 7.575653939883625 3.8302973230573762 5.819105670120776
Au 7.261745880535152 5.174817726316902 10.28261619888251
Au 7.440757374078679 7.771237908120987 9.482706759276484
Au 7.019618138410579 2.9171917311505213 3.2779760325763685
Au 6.054612932877021 3.8479428112831324 8.167493060689829
Au 6.3197390079752065 10.225919947662774 6.220280156923161
Au 5.933689086969337 8.274813708510647 4.291145241008372
Au 5.034386751113041 6.350656394969866 9.213496870135133
Au 5.955003976684951 1.4733752322869942 5.278204178251825
Au 6.239394452345714 5.615559275069154 3.6575384089130965
Au 5.074503087919232 9.037972170738195 8.455978971402429
Au 4.781124481800193 3.9073699468063463 5.1635997982587485
Au 4.134120238180976 2.107140082518826 7.18251660034938
Au 4.101174678368606 6.514387820090905 5.261459995782176
Au 3.787420553627378 9.221303711084342 5.7974096926564265
Au 3.4735366756666433 4.75719253319167 7.489871830377551
Au 3.066454542443148 7.40219783861514 7.681169113970731
