29
Energy = -72.5115412 eV
Au 8.772270877220478 5.0106800902857564 7.591135734815558
Au 6.288845339488749 8.440997972507146 9.766341063481017
Au 4.255604955657384 3.0542563998612766 5.424479734041047
Au 10.51439897633774 7.091155364326133 6.663189730094958
Au 2.1803787377511386 6.966906561612665 6.448155096279717
Au 6.79677580115933 8.3230731759297 6.9622159714695675
Au 11.063012923374416 4.5489465594971925 5.981560184226678
Au 4.969313445286344 10.44195657598835 7.226331722413655
Au 8.787181595376687 3.127533134042581 5.48075766437724
Au 8.648309904993473 8.846878468746008 4.798209619411907
Au 2.4202132770035556 9.607440683796106 7.022717656666837
Au 8.229809713730917 5.736724429455301 13.40553004986467
Au 4.155630289483746 7.720725357616357 8.267797034227272
Au 4.066777734089241 5.055185472075852 7.4742538733786095
Au 7.763167888480402 6.4622612535847646 11.016345864458412
Au 1.93736983691877 4.412623670032678 5.7280303165823705
Au 4.165216630806931 5.769495855330185 4.6596038247117635
Au 6.577638710646469 1.6508296048581304 5.217873733337862
Au 7.386663765996156 10.963607655002097 6.243279477337672
Au 8.631888771319414 7.425233769303901 2.5571523864541468
Au 9.817689353860816 11.362319215832807 5.171384355929449
Au 4.411995800278893 8.4135423906502 5.408503708584833
Au 8.95567119651367 5.789095268589925 4.672548560801298
Au 6.5149778593588215 7.125523198064669 4.325922393350801
Au 6.3751972739368465 5.903597112725491 8.657525793539133
Au 8.797931322731035 7.551652550775226 8.786123365770498
Au 6.512479027413602 4.356522290127362 4.301562698308386
Au 9.679316423855052 9.583327175525028 7.224356221222036
Au 6.4403506608022 3.62767893061473 7.160883408575297
