27
Energy = -67.57168168 eV
Au 7.273268059674817 1.1314957262848655 7.420167449170826
Au 7.944828136355926 2.3622495336119957 5.062729645755755
Au 7.937947713560151 5.010589755632531 5.859290785664561
Au 8.528093547685064 4.26523114861859 3.2153113556470014
Au 6.937407561443574 3.4231353621622564 8.81928881136389
Au 5.5609344697581 2.960790008942237 6.408137936870274
Au 8.553067792259357 7.63826889068552 6.374406945611007
Au 10.506450520319742 7.425451114771298 8.331375881881163
Au 5.881238212961202 4.092611484697297 3.9369570412835415
Au 3.724371495656799 4.730455083966619 5.530413607877415
Au 8.276640501203453 5.8298385775576405 8.513136691363517
Au 2.06176194162871 6.59512763711442 4.512182247139661
Au 8.579442199749083 9.6005887873354 4.5107536427964146
Au 7.768215802438097 6.986515648827704 3.7911956988730378
Au 4.825207849906952 6.6623010563418 3.6442346035613067
Au 5.655267320724066 5.5934162687252496 7.4579385685240975
Au 6.578521882611495 5.633052650400937 1.7548697917519167
Au 8.225333685640548 8.56476345732818 9.077213358148418
Au 3.7484994739378603 7.411247695865206 6.486395212512911
Au 7.618596966247196 10.396720911147744 6.946511234074123
Au 3.5543268747967702 9.014721796416257 4.246390534458357
Au 6.064868176243367 8.752135673478897 5.226135728671075
Au 5.551525186465955 8.822891566860866 7.954496770529101
Au 6.205694405020615 5.585893394193297 10.309860808549441
Au 6.696483429729861 10.728349235150993 9.593126882721231
Au 3.9924950289372205 6.942175152352296 9.185019073166693
Au 5.955150785578575 8.26410435809667 10.71622715094608
