28
Energy = -71.44681859 eV
Au 1.929299440543999 7.105931944812542 6.497618231007809
Au 3.933999570129745 5.454316022668476 7.230369157119023
Au 7.492380080468056 4.652134414850573 10.339943372116538
Au 3.040984921961224 9.278770282877275 5.297882327162156
Au 6.677648055874656 1.637692494708444 6.646425392385501
Au 2.8818726535615578 5.181598775670199 4.6323141274913935
Au 8.361569768747332 7.202102716059685 9.77480701715631
Au 6.767378250038227 8.945271175802402 8.301905567803717
Au 4.674250185304578 3.318420541744681 5.5843603236863615
Au 5.786253195183694 6.444057219966892 9.052125898945652
Au 5.193446388703724 10.460817786575099 6.574959827860217
Au 1.4085008487296886 7.440933884126915 3.807887176525571
Au 8.169357305088058 2.3952853457969496 8.968962486355947
Au 5.9961419399318805 3.8660173455392925 8.085288469329019
Au 4.113868841421871 8.195907512073042 7.69202293678052
Au 9.358237517727147 2.6783161849879304 6.518924493464733
Au 4.016135771191188 7.497666611064001 3.276393880126663
Au 6.5650598047244015 6.072103445712858 6.198805035202481
Au 9.24937492456796 4.932189917111067 8.233839627340508
Au 7.369745555976927 3.4888398147014947 4.788072245528494
Au 5.500656924637436 5.227596052096827 3.6732836466682484
Au 8.893151082028387 7.405222212123169 7.09767804540816
Au 7.265787861435208 9.042615057675233 5.5704944291314185
Au 5.292837417546508 9.920549266443942 3.8382983223724443
Au 9.550702494861213 5.166647762229596 5.507860346758385
Au 6.704501730004954 7.690683495308409 3.135911474673972
Au 8.24118077519561 5.40307497320758 3.0737001993312347
Au 9.236656577647784 7.6537634880065735 4.31487964280387
