20
Energy = -47.50835763 eV
Au 6.0443493292895285 7.635180365290319 3.2124250517139394
Au 8.398919308869882 6.222883019662122 3.4108813672240377
Au 4.657640528762949 5.453305380729493 4.045968776398428
Au 7.012569718279543 4.055768211562446 4.272796289696707
Au 5.186155285487875 9.13569364866745 5.289309003829226
Au 7.695001631397699 8.02988667705878 5.365585712601053
Au 3.642325748478923 6.730011183523553 6.193568464704284
Au 5.800550079158983 5.067604885943686 6.514017438814145
Au 9.837759945063256 6.360840402743595 5.689365126673149
Au 8.295837856904521 3.946384874834422 6.64588115993749
Au 4.223652213840983 10.435494960409022 7.380848804307899
Au 6.637968643476707 9.249684066019013 7.6358486700937505
Au 7.326308658635276 5.327870454741099 8.831068621233783
Au 11.15855715484675 6.285817353042009 7.9761141877211355
Au 2.783025821325633 8.217508773823203 8.200815639581998
Au 8.972305250042833 7.867279480497343 7.837318572659408
Au 4.976662987475269 6.6930677533374645 8.610394923932125
Au 9.73047902863425 4.085069171366481 8.859086219354044
Au 6.460729958271307 6.891786505541566 10.813957899617822
Au 7.916537131954472 9.066199111402556 9.972084350102179
