29
Energy = -73.17118102 eV
Au 10.21905538691204 9.077081475714849 6.502584090711532
Au 8.28558775485497 8.821096469810586 4.409149423927724
Au 9.848118563047791 11.223334391434163 8.093884036836426
Au 10.296363284433514 7.576107927075723 2.2684055546189623
Au 7.719710339692135 10.42508033302212 6.5914323156455605
Au 10.463174941578295 6.984589135222929 4.963113636493311
Au 9.07188436793224 6.562904663777869 7.370022177662906
Au 7.686091410925663 8.320997555743343 1.7520588467609923
Au 7.347713213759714 6.713901869674836 9.554803254144007
Au 10.612506322847864 4.912823179641898 3.2080158507123357
Au 5.679688302133739 7.405860038465178 3.363936686940445
Au 8.864260825162905 8.84518566085336 8.928206422246715
Au 6.545087621699016 5.85124207898369 5.480611491166537
Au 9.00556233034866 4.548426936912741 5.4184307253301895
Au 5.750550032120929 8.836044250691995 5.694465492039231
Au 8.135674274036138 6.063332052167982 3.212437371191676
Au 7.34617546368218 4.338270861854146 7.6007747607775675
Au 7.726264589150545 4.073201829578974 10.274343428623972
Au 4.751581781662709 4.157160851245427 6.556673391133441
Au 6.173288700335913 9.022600577530064 8.464219908140313
Au 3.925543225818018 6.7375479608534485 5.414734316054919
Au 2.1577879038724412 4.603290978663923 5.691475443221114
Au 3.6246491010530977 8.709111508153525 7.448727271710716
Au 5.222333011476173 3.5382728972157365 9.22642670157535
Au 5.608759287526025 5.51184431780058 11.311670828114211
Au 2.6782592926748587 3.4169057907417972 8.17295157336995
Au 4.442006919412962 7.336779140172769 9.691418860886847
Au 2.607284064171092 6.228493887043253 7.856236622269227
Au 3.0703679766677996 5.023841668943642 10.344119806684189
