26
Energy = -65.58601491 eV
Au 9.57528615096999 7.767338281691006 10.830457713468745
Au 10.544035567348518 3.7372573735190016 7.237473574501384
Au 3.7002842779931013 7.222212534490085 7.129161641779731
Au 5.346612998796767 5.155076852270131 8.292795552599177
Au 9.30928671277658 6.492354950056301 3.6480194989097066
Au 8.763200627268853 8.538157370665273 5.475511389657703
Au 7.158892625863905 10.484459635561077 4.530229427261688
Au 5.200109564516057 8.856106662677693 5.490178630165037
Au 8.770859468685279 3.8891414356273533 5.154429182315419
Au 6.952329389465161 5.032463967875061 3.5369056024328365
Au 9.869075435679617 6.221538778547436 6.353367769975737
Au 5.136017322270966 7.848645086970655 9.434242343363895
Au 6.943962526829395 8.507527611139084 11.283178621674201
Au 7.2261544302257015 10.039433713429437 7.35527942350561
Au 6.036457088525548 3.80735560066167 5.798482564060051
Au 5.980302839451118 10.642315870874462 9.73105401648555
Au 7.386635568057147 6.19158967403524 9.865991901512393
Au 6.846070140487549 7.789350323005834 3.5874215721444154
Au 10.119366226002295 5.719491445086366 9.140655471858045
Au 8.673015212294704 10.285535033364773 9.939677245314247
Au 7.938229073871733 4.413390092549428 7.824176926746994
Au 3.452210027172966 4.497272647586442 6.470516725631366
Au 9.372282656439047 8.296058897007065 8.158070633006373
Au 6.932890906927465 7.140677957741206 7.142173604037852
Au 4.87340285511504 6.205618831273153 4.821612756330746
Au 4.267208271611254 9.906275093195212 7.807719363390929
