24
Energy = -59.19925372 eV
Au 8.60336983945258 7.212962160124623 9.220138198344658
Au 4.805565887996703 6.461546387398488 10.796448271892181
Au 9.203783818920757 4.735400428551958 8.153397907937569
Au 6.268414422806776 4.9317963883144555 4.583453811335829
Au 11.559757613791373 7.92714766315729 4.831206746458541
Au 7.018938211124848 5.041483355795173 9.886131182391019
Au 7.135976532378676 7.267904374730769 3.366199301120952
Au 7.96289826579794 6.608776880568698 6.3418197650803005
Au 10.926784428816013 5.546486428936349 6.132969322184947
Au 10.369240922196704 8.07960567886107 7.301870746528935
Au 8.788575341284343 4.065020063142454 5.353227648803405
Au 6.621466279032566 4.153332070489281 7.220864950427944
Au 6.13368025819767 8.963112998309757 5.383458635936355
Au 3.6002782030750944 8.78541119722496 9.585137947983986
Au 8.90871523188088 8.821656222818387 4.923096115472975
Au 3.7000609782491005 8.042489683078191 6.631664321437497
Au 5.204742194259944 10.031565819781763 7.77632818555604
Au 5.770076953023449 6.781934638106293 8.128172386759838
Au 4.521545950369087 7.067189302044601 4.158161554839391
Au 6.412628763609837 8.69429940329793 9.974277716006123
Au 7.844784358778192 9.269957694757633 7.520298597792451
Au 9.603440194179287 6.262247500619576 3.769503329203135
Au 4.197118556418646 5.283440549180414 6.362653001713517
Au 3.019407445851812 6.266945941051184 8.650060472371347
