23
Energy = -57.37997409 eV
Au 5.349947557833443 9.332578410231793 3.553951651238677
Au 4.0793713022636116 6.964603514410455 3.3186729532817623
Au 5.322249699154719 4.572110349250649 2.9271744954575496
Au 4.204942041300535 8.400340610875872 5.888496820884613
Au 6.8481332895191676 6.940568601097428 3.172542156924835
Au 1.8721717086401224 7.101187176809201 4.877106307358859
Au 3.566361577952092 4.8259988137699805 4.9897789601897875
Au 7.991485898264933 4.4373232511119625 3.5795399669586647
Au 7.08056448420968 8.472085956963703 5.465293454937409
Au 6.115008990960819 3.7256762235921292 5.4956040397260555
Au 2.832286752666405 6.210520885340525 7.246930678929679
Au 4.184551798642757 3.807349523701099 7.4723932708728835
Au 3.561758274143875 8.455611229457878 8.593574588864024
Au 9.075358597652853 6.674476822406318 4.75955073888108
Au 8.7812940834789 7.5376892011099486 7.4123509147469635
Au 6.179867448765999 8.205599500563572 7.985889457914995
Au 4.837210081060121 5.988774411495953 9.10883431991255
Au 6.803192267890385 4.301109220566309 8.156638894439824
Au 10.94370187895505 5.944070423406302 6.595547031111234
Au 8.744257869834684 4.1934559914857426 6.183252335163836
Au 9.959990062638964 7.3305954326004885 9.931263700646127
Au 7.383591910308667 6.518538503701684 9.828888954847299
Au 9.431838293869662 4.987709876157662 8.679307845216739
