26
Energy = -65.53375104 eV
Au 5.190233284282522 7.297118677512694 11.45060272060509
Au 6.452928602069566 5.410556036735753 9.900435954749153
Au 6.949222394826129 8.241132478563108 9.578802178923764
Au 3.568941398065 5.669720119723042 9.878196478604329
Au 4.203536702917565 8.176681676124822 8.944059519244217
Au 8.81279924800565 6.495927388967638 8.601303435170454
Au 10.279755811934669 4.4498026054761155 7.458072116989886
Au 7.583635176304602 4.07611115758113 7.735605095850147
Au 4.874554574355442 4.108389779749978 7.907370431658119
Au 8.074739003936573 8.722085651303331 6.999599204278354
Au 6.186150820916244 6.555076055284183 7.222552594929092
Au 5.786343720638393 10.121846502074561 7.880418891357864
Au 3.1348542260147196 6.260394375756628 7.242128098043669
Au 4.447176283976615 8.53808883295242 6.075685183575377
Au 6.9885428494313375 6.22200137633429 4.63816156518841
Au 5.9452979072811365 3.7603161877398987 5.306452012928271
Au 8.735667058444458 4.037746495731758 5.203176337763064
Au 4.1766087100325215 6.179786033267306 4.68318664863552
Au 9.662231548439646 6.717565056182028 5.967004260186124
Au 6.542734159901221 10.252670025422395 5.253613401933742
Au 8.454358097288946 8.4999847275954 4.164055831464409
Au 9.616618864849872 6.009148094021122 3.317137017924316
Au 3.2037349699497857 3.874607278936178 5.722550756534632
Au 5.5570096986857624 8.325137402172526 3.5124396506722624
Au 7.4329116499307215 4.218228184397356 2.787556649458958
Au 7.355090445863225 6.997630287654203 1.9494422843358383
