21
Energy = -51.39682389 eV
Au 8.35565664548241 5.970927115096742 3.6724390474815727
Au 9.891534018775689 4.072113258237972 4.968048590475371
Au 7.347180237202675 8.411498040023686 4.622729977931192
Au 9.476317154027763 6.950090755218345 5.981722837897938
Au 6.425071524346137 4.014611544965072 4.263118382385245
Au 8.792135638400515 4.659786163560812 7.376436464351634
Au 8.568344708431425 9.269818443851642 6.988779462533575
Au 5.608067512883182 6.524947139238165 3.4970043838326776
Au 7.872075454171466 2.4602665007209494 5.974331280535312
Au 6.619782259628754 6.102486514532424 6.178836238675806
Au 5.315297389439773 3.1517505895635924 6.607211225453708
Au 6.3774103446720405 4.708157175649958 8.680466156388217
Au 6.09763351265911 10.303914441143947 6.228065150582429
Au 3.977557367920849 5.375128001666978 5.424198363817668
Au 7.891542866339376 7.040491234266925 8.50343300287669
Au 6.556759645004895 9.428174019798735 8.84689201269708
Au 4.5474952372232496 8.205545548593367 5.343410785898089
Au 3.6770208403224287 4.730861198512464 8.145245507635819
Au 3.959168591182511 9.507246152777883 7.794340257934915
Au 5.037617469879717 7.114219655106109 8.874090563174816
Au 2.7845514146502937 7.164395814648998 7.220031505274439
