24
Energy = -59.99990099 eV
Au 9.061861026440438 7.971106459754194 4.7571316793004215
Au 9.985862016874918 5.739662236396737 3.450843156060276
Au 6.301951158857446 8.75782477117194 4.534061846776213
Au 8.39908997461904 7.093465578127851 9.708218321343642
Au 10.926896880596743 6.052102593533045 8.75400398828791
Au 9.253274005947253 4.623275025202794 10.500462522956344
Au 3.4779589722041875 6.372349781615002 6.620397382154003
Au 8.581525620195162 4.810733955897518 7.811856799320642
Au 9.831668215435826 8.236596817690788 7.481188566133279
Au 5.85322786245609 4.793706098696093 7.074682898752126
Au 3.6288268310194343 8.232102316474542 4.6107648557174805
Au 5.636692696192273 7.496286744829181 9.369718864407043
Au 6.588779688160285 4.843251315617297 9.854912236848246
Au 7.8953816843103715 5.154543538457923 5.177708075777358
Au 5.313885564847979 6.064360945176907 4.6343576306430725
Au 7.462923041578197 9.477731481297548 8.83661304585661
Au 7.360262971113546 6.696938782494645 2.917510488096801
Au 10.610760215698 5.898556783915625 6.074058378405545
Au 7.187197162475469 7.313236795259072 6.938660900063454
Au 4.039038052094804 5.243989574366406 9.099263906899505
Au 6.16247124336217 11.38273482546823 7.440932428294737
Au 8.122570385151073 10.047300705278111 6.190473133003431
Au 4.758322208021382 9.051971554378907 7.016538539926109
Au 2.989580120752182 7.871415771237177 8.835307704722627
