22
Energy = -54.48647019 eV
Au 9.307539630805493 5.258519011332652 8.897857588979107
Au 10.412721726593077 4.6781914277697485 6.420466116161054
Au 11.092803336272148 7.215757698080314 9.424021723890748
Au 9.928787045576813 7.3872045318981145 6.9388044748715
Au 7.78449306170466 3.9701623193986895 7.0978708358011335
Au 8.457680651317569 5.9663712160854985 5.0408592435552455
Au 8.50218899847447 7.580146189464834 10.04127320056978
Au 6.571841875443284 5.5511871108297495 9.02697849521472
Au 8.628079342576555 9.548425237185995 7.988439163502279
Au 6.901909349123901 3.7776752134101588 4.505605116650648
Au 7.826889062452533 8.523192195445617 5.530104694243079
Au 6.860173446697187 10.952981677488225 6.32651566020118
Au 6.0438379909984965 6.815424979203833 4.194493081768394
Au 7.577220275838096 10.091495633656875 10.47055507300791
Au 5.270834926618038 4.856332411820532 6.649273085029941
Au 5.780279241248335 7.780527751425875 10.382162407900179
Au 4.403457952985712 4.509473676614581 3.985645033491059
Au 5.081238900421112 8.909064594848683 5.840122496124653
Au 5.74230275353074 9.620643227982493 8.408027103800025
Au 3.5151105902644817 6.764920116997848 2.898517642808215
Au 4.477709069385041 7.138064166571347 8.06585765985421
Au 3.4872172709974434 6.724227533485668 5.603289185422668
