21
Energy = -51.91749899 eV
Au 4.357859618081276 5.14040406326739 3.782653363772774
Au 6.193937872286148 3.314634238796059 2.886083314042852
Au 5.89343036300752 5.783636269497466 1.6562049624857034
Au 7.834071860100559 5.625145315332122 3.6213212020699217
Au 5.524035630966524 3.3998671692598763 5.6957102497584255
Au 3.3506387052388464 4.961245348093136 6.2665247166231675
Au 5.615263152425504 8.93991165499015 5.972509139402952
Au 5.996802917639393 7.678345243910038 3.6236871268694983
Au 3.5216235288040423 7.479427288028896 4.918296482440708
Au 8.018610516613453 7.588797234722898 5.563149927308343
Au 8.115368242460711 3.042994499715033 4.744990086093929
Au 7.55644633190483 8.825784497274038 7.9278469362402015
Au 9.36769363956227 5.229065815658969 5.832008315583679
Au 4.872790309324372 9.615871484051866 8.519496085276517
Au 7.710776459713756 3.456935784390129 7.4211117136948035
Au 8.152732724712651 6.056519661706641 8.115906077474664
Au 3.977484866378544 7.210127585468292 7.617086016407965
Au 6.633017270881393 9.628320617888688 10.566948346071985
Au 8.495769057254684 7.668846487949047 10.279579039513793
Au 5.478436825403619 4.8726687955864 8.05296598524669
Au 5.878452447533044 7.080199140225619 9.580780346212212
