22
Energy = -56.32315261 eV
Au 7.085472205318148 7.085472205318148 7.334346546818179
Au 7.210246127982711 5.308424600801798 5.1331876151779845
Au 5.308424600801798 7.210246127982711 5.1331876151779845
Au 11.20287498558492 7.195762800027343 7.317232210885623
Au 10.953132020007617 5.261191091900984 5.393822602871408
Au 9.197119838528797 7.3116298804783995 5.217805354377275
Au 9.061664945004722 5.066916051337919 7.331881492127448
Au 7.195762800027343 11.20287498558492 7.317232210885623
Au 7.3116298804783995 9.197119838528797 5.217805354377275
Au 5.261191091900984 10.953132020007617 5.393822602871408
Au 5.066916051337919 9.061664945004722 7.331881492127448
Au 9.355839492472596 9.355839492472596 7.07076416625949
Au 7.232239811922807 7.232239811922807 11.314442335595936
Au 11.048027815339637 11.048027815339637 11.13128078943173
Au 7.236105455926871 5.094560692957092 9.322868279212898
Au 7.056382999605112 9.267152293148852 9.338992635814801
Au 11.191013088029635 9.110445022273899 9.208672909869664
Au 5.094560692957092 7.236105455926871 9.322868279212898
Au 9.267152293148852 7.056382999605112 9.338992635814801
Au 9.110445022273899 11.191013088029635 9.208672909869664
Au 5.302293319768932 5.302293319768932 11.211912787503044
Au 9.123203937786695 9.123203937786695 11.28148900701668
