20
Energy = -46.95755214 eV
Au 7.161053366907513 8.72889430926938 4.275361572480887
Au 6.456692798848433 5.89260871350692 3.9871014584870763
Au 8.984707406674547 5.049879225591178 4.6173598967615295
Au 9.59034355277529 7.820563435248612 4.945915926546289
Au 5.239564584676325 9.090334785696237 6.102647795649391
Au 4.442136339760555 6.190322906811655 5.832907251821349
Au 11.345359397517246 4.066350597032443 5.320526130542554
Au 11.936878120787352 6.690926648275751 5.657914888740359
Au 6.849191511738884 4.949824994092452 6.542803837644058
Au 7.845023433273264 8.579581675161556 6.967920774577652
Au 2.7325636841885257 8.837809170577279 6.977072872505547
Au 9.555092994227573 4.615305764950283 7.261409283157725
Au 1.858884974066547 6.276893789122655 6.585587143223452
Au 10.250503058311017 7.364901995145506 7.687741480932722
Au 8.296668620915552 7.80967607345872 9.49499987914116
Au 7.644942683130916 5.06336334954827 9.08176985181483
Au 5.800927443544864 8.389525813142207 8.768191989824151
Au 5.050811389047897 5.489617285478776 8.49972949231766
Au 3.3889199794973286 9.446943966709195 9.525817689114806
Au 2.755297277716701 6.832238118787102 9.052783402323113
