25
Energy = -62.48680105 eV
Au 7.4425164385279405 4.698435961726727 2.859098121337453
Au 4.643137771947257 4.159685079133682 2.750504381355248
Au 5.726730453884603 6.3527158317938 1.5606821492548733
Au 7.209764567840936 7.327589431936212 3.880182896595434
Au 6.489473017485065 3.24738736862871 4.943071039829801
Au 2.294726067226058 4.885288310421471 4.125763299663261
Au 5.0278812337891186 8.386054614923323 5.992434849173992
Au 8.621934748247984 5.090774177006983 5.2579011560827205
Au 3.7809592756728705 2.8387789427769876 4.955790395534265
Au 7.1425068247078585 9.826899009610843 5.048795064049378
Au 4.438505733207713 6.743710546291338 3.9190591267026473
Au 9.030922511753454 7.822966408849701 5.856424722667084
Au 7.798067162023432 3.4506439204075403 7.367606898475583
Au 9.215714930910067 10.47911625239338 6.689630854393005
Au 3.2846194710352856 6.243130512684283 6.353241383690079
Au 6.10816246233067 5.79943788206137 6.360168497973911
Au 9.560848193169047 8.499042505474499 8.571153912033266
Au 4.97173745743396 3.2859630739305374 7.331453491610486
Au 8.777526436240995 5.934166053419678 7.93514072100968
Au 6.927208653733812 9.293394924786789 7.790075153054664
Au 2.1203172978727243 3.802713159271851 6.934157556090053
Au 5.079237825839602 7.3907733606049515 8.571482511892443
Au 6.354555232460923 5.012254791530439 9.204210270786767
Au 7.484755365758273 7.437824537770965 9.968205774919092
Au 3.588352358697394 5.111414834360704 8.893927263621118
