20
Energy = -48.94939933 eV
Au 5.707692380427456 8.40792670419448 2.1635116701569235
Au 8.267368834563332 7.766532068730293 2.644818324929837
Au 6.400203343996591 6.033616200214833 3.5392130050371824
Au 4.381545218636058 7.680250305715243 4.6179642254705735
Au 5.686343305905035 10.024408969209787 4.471868378916485
Au 8.951618789242413 6.336152873986232 4.876173844318797
Au 8.10512592207807 8.982986162688485 5.133954297999793
Au 4.435927083851394 5.013090052987357 5.045420788302192
Au 2.628519028348543 4.583028391088423 7.003481535186903
Au 5.977931187414773 8.778344111997605 6.90379082224457
Au 8.456445269729922 7.6004444924936605 7.433718872030448
Au 7.126927325157091 4.36620973221008 5.600972543043472
Au 9.422344564808709 4.930825994488024 7.129205138931653
Au 3.9606163576119884 6.9839608515295915 7.242042184826858
Au 5.024124832351219 3.051164529271899 6.85379202235746
Au 6.172870167622782 7.087950579580752 8.976522197245655
Au 8.654246664964823 5.984406722417409 9.594063041070575
Au 7.113095516867305 4.013739648097953 8.325499196134205
Au 4.491113765733903 4.897579553940992 8.994309170664293
Au 6.4649815750509205 4.906423189519469 10.878719875495012
