29
Energy = -73.66309296 eV
Au 9.511407572543227 6.67002404276397 9.643294842126886
Au 10.065185045067292 3.8903643996410846 9.44521171659725
Au 10.266867312799388 5.44140809622064 7.130866257677459
Au 10.646013028173927 8.086456701491004 7.458197935816277
Au 10.336973563004996 2.714229646815942 6.908783473285748
Au 6.817588239904328 7.286755629068286 10.283411378254714
Au 7.598099002079498 4.670289991889113 10.339967267079544
Au 7.451734263819202 6.267852353358307 7.68775010092621
Au 8.253437954508595 8.94935945811302 8.506880934935596
Au 5.430106700697386 4.42647215958573 8.6735761946927
Au 7.837431594233003 3.3657170747110334 7.827613643237418
Au 9.145936624309696 9.753657254576849 5.96592259572254
Au 8.873741500596633 7.059371372416397 5.3089827882749985
Au 8.756369983782342 4.13174133133933 5.15801045260322
Au 6.071149943112565 4.189982899869623 5.8861549587176
Au 5.665928251692066 9.54155365403526 9.253287742558452
Au 5.944620562343828 7.279693020385833 5.711040447260087
Au 7.288317617753837 9.176047146497718 4.040340246823655
Au 4.685291247201422 7.120362782788317 8.29585509358467
Au 5.484338508439618 7.63680326818761 2.6780800863353202
Au 7.116813734223627 5.640031142012913 3.634563401629956
Au 6.468639310475991 10.016752092651835 6.59690003452952
Au 3.5358890397853093 4.8772378330713835 6.811727704806408
Au 3.8200611280434136 9.812146704650788 7.31672486321268
Au 2.8208862730256508 7.621741255593972 3.3401081182719707
Au 4.394428286080309 5.414689376934431 4.078942320627285
Au 4.526536843283126 9.5111042022158 4.596576014815696
Au 3.0014941429602082 7.543281210590508 6.117048643604003
Au 1.7456482774644366 5.483634730957259 4.814877595656991
