23
Energy = -57.26359872 eV
Au 4.496461121836762 6.987465163734081 11.796081975576886
Au 4.73081498231451 4.682558442976048 10.329908764441338
Au 4.913365680843567 6.918899383779809 6.184131612259466
Au 5.350850072457772 9.219991750418073 10.453364687063528
Au 6.617945057206025 4.662153879090329 5.871119737196639
Au 6.350084745184744 9.019119336350883 5.032925312626668
Au 4.439069880649573 4.572854913617696 7.570823074154475
Au 8.098154578708053 10.281518836707622 6.8625551548994395
Au 9.874507953788475 8.60963250175315 5.33035240711908
Au 6.950230062400244 6.823230629249512 10.65651097443175
Au 6.274920830958597 6.48540188062811 3.834726713634964
Au 9.116851517238869 4.427760340490557 7.094923098643477
Au 8.37220208069393 8.08621351363288 3.0978904560754934
Au 8.41145433466622 10.645225773625187 4.14318727893186
Au 4.4803382104616345 7.049673303187286 8.918206907464302
Au 8.905201790755836 5.984219452177835 4.784173213242056
Au 6.954377785958247 4.910892368606479 8.687257520058035
Au 10.238374170725944 8.909964139489821 8.092324819740563
Au 10.811534314320966 6.52270131166966 6.868983606688253
Au 5.6107918937755805 9.258699184363653 7.696545444836631
Au 9.236635318205433 6.487418298553181 9.18137470305861
Au 7.8669823711463716 9.14348892753337 9.384982603701072
Au 7.640901136055284 7.29496590145719 7.034828360524053
