29
Energy = -73.58216015 eV
Au 8.319371723194376 10.441578301567482 3.6716346082219578
Au 8.143016227122262 7.628346987618949 3.2612014745759867
Au 5.957751422260295 9.26458787847307 3.1727315835711978
Au 7.341898305838559 5.021477404752491 3.4066594940564934
Au 9.754797084796083 8.783114340864499 5.278540048564571
Au 7.2413652183658925 9.976191048412867 6.14917195689346
Au 9.158457394125346 5.996922088609274 5.242056029037324
Au 5.109150382282145 6.582871279637535 2.968387300042056
Au 6.336499437533148 7.321778514700076 5.406639062495485
Au 7.498398033389165 3.771781788926512 5.902145911875893
Au 3.701041708785517 8.41658778111558 4.567310855180316
Au 10.965344956132256 7.1380978806288935 7.071500794275018
Au 8.263263929821008 7.678390722146111 7.484886741112088
Au 5.024183901478956 4.3131918689307245 4.665810604590935
Au 2.728857848647355 5.838764158953768 4.169215380121414
Au 4.652649008334853 9.250214640658493 6.971472448168423
Au 6.2380882242869236 5.645034870573727 7.560390910935112
Au 6.57100958095001 9.566723088720805 8.847861769104119
Au 5.014954401668199 3.021987908941226 7.1111399134700175
Au 9.281219545421125 4.899325017851222 7.747396663039851
Au 2.6260544909680794 4.141042964777007 6.27902825116489
Au 7.405228012087239 7.297800743128415 10.18500848667165
Au 7.294345196764261 3.224045968915936 8.660205229552716
Au 3.3377817054100163 6.836441478388747 6.790728978684805
Au 4.784030190070898 7.419886088341939 9.186018547942723
Au 10.12135380202306 6.8215200106973555 9.60707074953837
Au 8.538767032624538 4.771782457444903 10.551561680870822
Au 3.638381138390735 4.906494333965246 8.698157833444075
Au 5.826140156044908 4.94012439452895 10.282403282499862
