26
Energy = -65.34587929 eV
Au 1.5322569494536902 3.482692034200912 7.936485035257499
Au 2.1000107643262766 6.0239758648333 8.516146213724742
Au 2.6435576599655604 8.37372298395145 9.571483574404171
Au 4.1775043209133615 4.152198292333246 8.1212521406495
Au 3.3271287650336037 8.069527652656298 6.9716710786714176
Au 2.63010704814867 4.974841109700928 5.918827971457807
Au 10.731864680793645 5.341068653286006 5.866716553606319
Au 12.044249290624624 5.720288183723836 8.254319597338492
Au 9.333038494997982 5.308539252322982 8.31680257753232
Au 4.900391283658192 6.813725923215124 9.01136747011502
Au 6.728325327201537 4.867991360034725 8.152350164663202
Au 8.060633602179964 5.096472808114363 5.712375450957189
Au 10.214005195768893 7.805708171087682 9.049954553167531
Au 5.871716598766686 9.110755319741628 7.682315232243276
Au 11.544762013057378 7.895573351025859 6.3377292883993395
Au 12.91634779787434 8.263023894334465 8.716143152848806
Au 8.489671958615682 9.743363097684853 7.937025830241833
Au 4.782803705453312 9.335867116537347 5.08517374077188
Au 5.37751211453888 4.890085330381302 5.662334907818983
Au 3.7876989272178574 6.8983778322799925 4.507655137983611
Au 7.543798531548299 7.353091848533321 9.067147782080937
Au 7.421429882244559 9.583507397205697 5.356132912691858
Au 9.24404855523647 7.472901606158729 4.840486817673044
Au 11.215480149402 10.247707545492917 7.963050454039827
Au 10.029167524770344 10.043988663297576 5.528228357329534
Au 6.5701043984512415 7.1004198372125895 4.434696600559157
