20
Energy = -49.04700352 eV
Au 5.689110390330897 7.201113924092393 4.5010798953737945
Au 8.092921717096688 6.250831986898187 3.7615579893418567
Au 5.4896739711295055 9.91999260055138 4.7344598477531985
Au 3.9016424149642193 5.589303006418545 5.765247918483509
Au 10.729325239132107 5.457970986189903 3.648607644557054
Au 7.934737686134155 8.79734503775509 5.157134665492096
Au 6.535739289658649 4.873025062052835 5.717037039510959
Au 3.6333575376888207 8.363250271934518 6.03803511764477
Au 10.1343029673219 7.2724761301277026 5.536497228718739
Au 9.224135689936432 4.528310090440483 5.730973867652871
Au 6.167483526462921 8.7578357033924 7.261747206610697
Au 8.685529392840028 7.86707193768023 7.773125459599379
Au 2.556948797840854 5.402897253340428 8.146982194290864
Au 5.182810095369793 4.7445704763098915 8.160170530987454
Au 7.907495385476469 4.702186190673412 8.115861868507007
Au 1.6754712073596534 7.993819317312006 7.954355149630095
Au 4.217987461856645 7.523071889536048 8.683001712202167
Au 10.520043131088716 5.812521716589618 7.841154738711754
Au 6.687245602377311 6.918869527709171 9.391253965605793
Au 9.126528925903242 6.116027320964595 10.174206389295119
