27
Energy = -68.76539503 eV
Au 2.96272759529262 7.80420083323234 10.143136644157051
Au 5.041924850435686 8.653209346758764 8.519898559977161
Au 7.015903837499817 9.449018850338701 6.8067667172407145
Au 9.456580685174373 9.987116205000268 7.8698862271828895
Au 5.504688858447114 7.139618278601894 10.818455996748742
Au 7.727530724864911 8.232476980459436 9.326551621874705
Au 7.97789481383033 6.250789821481707 11.346265392837612
Au 2.543367255746131 7.779076387603839 7.390550278084276
Au 9.237476963516697 9.52768985739501 5.108839861957091
Au 4.5804783474385005 8.624609211318296 5.736176124446529
Au 9.34343715923516 7.437955462642191 6.9734446443426945
Au 4.082752612234242 5.791388775100286 8.652284433015287
Au 6.552198647082788 6.6480935929811125 6.912213364888657
Au 8.736440169830093 5.557522288243079 8.856364901250888
Au 6.738429650128666 8.788676978644602 4.099080542375406
Au 6.257194687414169 4.601462541763443 9.787698598495648
Au 8.924474018082055 8.733252172261256 2.4467042476557714
Au 3.8392467236943912 5.945664257790353 5.79274545094555
Au 9.292574958185075 6.769820793892532 4.28332676493068
Au 4.60700805060328 7.138338570507889 3.3669800019161786
Au 5.459612871035111 4.060571401130309 7.071332450468708
Au 8.780843432470794 4.865297674254363 6.176132996529456
Au 7.790762431036811 3.0172488684108774 8.092289019066259
Au 5.895698644762754 4.870407463044232 4.355596216966042
Au 7.1494150064862465 6.534765288557408 2.442230286264405
Au 7.242602622083239 2.704194200709853 5.409463277673139
Au 8.430263882249877 4.286927557547582 3.4263372868791704
