21
Energy = -51.47777596 eV
Au 9.102521619513503 5.6542659536207465 10.122771132231957
Au 9.422167652097846 4.617982351557887 5.5869901305187835
Au 6.827810122834353 6.946659426473253 9.243409538561105
Au 9.667910545343913 8.238893151879955 9.619561354159606
Au 7.938558007546366 4.568827004755458 7.937840745720885
Au 9.539722380951703 7.367093796789293 5.057718508249948
Au 10.044565029644987 6.39650852641443 7.579643832959226
Au 9.965752206757331 9.118502983026767 7.046900094627428
Au 7.952835073380703 5.72348311844129 3.496406949910414
Au 7.553813790562366 9.557166216892805 8.517250687852261
Au 5.394189414186746 8.514376588338818 7.3072438638975985
Au 7.49304881999707 9.32171029241502 5.768623028791353
Au 7.772085402986835 8.434666380826705 3.2274226865911113
Au 5.283497149029214 5.038433664675276 7.754103252513986
Au 4.037581971769248 7.004731434299382 9.148173581663244
Au 6.694995360379468 4.378407835832665 5.486773524899105
Au 3.3647872601272084 7.454218430041648 5.951512009442592
Au 5.860103215388718 7.170388183033028 4.829695963901144
Au 2.4958713543544504 5.415757495685939 7.62342558755619
Au 4.111260641330965 4.889980992750819 5.164322101744336
Au 1.498482148209026 5.557756250925336 5.108463083406902
