29
Energy = -74.27305975 eV
Au 7.304762073327877 2.886545102539173 4.766349257492983
Au 9.84453168399474 3.8972882807334743 4.8562413636282695
Au 10.603807877812777 5.173430416526051 7.1759861873006106
Au 7.775053445561383 5.234430875205765 3.147043262509178
Au 8.200285834230348 3.5466295742911234 7.305499094409482
Au 5.178574214573152 4.229263482758307 3.7098354416240857
Au 10.382704027236853 6.164262444644884 3.405754224177003
Au 5.6360643601236315 4.388143301496056 6.432810101608057
Au 8.118472656000982 5.942382566955623 5.836447384850724
Au 5.800943780130217 6.92254413105948 4.189912858748045
Au 10.456713045941326 7.592123897518265 5.754125699550829
Au 8.381986428538937 8.039516540065888 3.854274685245582
Au 9.146828729761403 4.805086732032023 9.551475638975313
Au 6.494450556579009 5.217122503961525 8.905100475913674
Au 9.16902812620834 7.316240563457937 8.242513024638237
Au 3.973839231044386 6.0787528064238785 8.000733757022667
Au 7.847215063427792 6.9036597663221055 10.702456652956176
Au 3.455870342984068 5.69941864987058 5.254437444380702
Au 8.345587692115984 9.318396298862112 6.425225758165581
Au 6.303075726037064 9.64378697846881 4.604792498352746
Au 6.283296772238627 7.489919311479405 7.130708856715973
Au 4.00217984676452 8.529877495814334 5.66145266601741
Au 5.164253314948961 7.459681805250901 10.019759184113404
Au 7.511169369153702 9.369179958074609 9.066577689297015
Au 1.8044070987826086 7.255943477064194 6.777133104651842
Au 5.622045616412577 10.315805156881336 7.170569045372137
Au 6.596016562700695 9.111600727797466 11.680793781634849
Au 3.354422170846653 8.863044263788208 8.36627224090591
Au 5.02631953967026 10.400864839778626 9.840466462431692
