29
Energy = -72.96771319 eV
Au 8.830488081850973 7.392864035183306 10.737034189588632
Au 6.1627287028872 7.725393730071576 10.945561831399626
Au 10.472372024192676 8.638326685279463 8.89098290854589
Au 10.390171364181302 5.881566686566808 9.138176112635998
Au 7.709411956397741 9.471105097584553 9.42560530415814
Au 3.4374915908642607 7.527297701856836 10.654292702020635
Au 7.706695646804513 5.054028042986211 9.939798085785316
Au 9.10732607545915 10.341028508962491 7.286874805708026
Au 4.792896629801076 9.156668695382917 8.961148861535701
Au 6.417187154543987 10.928338898250653 7.448737389402635
Au 10.81780561268679 7.13482862441859 6.516985410415264
Au 11.331093243403823 4.516569665867552 6.928089217990655
Au 4.928803392626595 5.518268382198412 9.650773088813828
Au 8.205689511672356 7.812872415024731 5.8411554034452395
Au 10.322928409410466 9.36416442240023 5.052563013877228
Au 6.760562386591297 6.974394945132141 8.126390563949876
Au 8.654235581361556 5.199624243435986 6.690041106461413
Au 3.7763085524535844 10.541314538795957 6.8542190417217395
Au 5.508088672211735 8.535220932264139 6.207182760047876
Au 7.678759621035124 10.450393448948295 4.963284529578339
Au 5.046200906998443 10.445793973758995 4.281883023211103
Au 9.468596791666476 3.3230973952516343 8.70442166606133
Au 6.212703958736933 4.0124537737316395 7.849666121235968
Au 6.128033932025421 5.9441410541831505 5.562484612187493
Au 8.022952031323948 2.4279030755195636 6.580551502388325
Au 4.776077541834417 7.787299940302153 3.709188694658773
Au 5.888006876973104 3.307948988602271 5.119293796003015
Au 4.7021188952541015 5.019390321666706 3.450391561496163
Au 3.7070460292004843 6.644218002326869 1.5978708500286676
