27
Energy = -68.72707535 eV
Au 5.308078465941049 2.1109429501914234 4.7059167602336895
Au 5.759043525539903 4.669745969017986 3.923219316499027
Au 3.914390200021852 6.570076330262613 5.168841069824228
Au 4.458736946921286 4.050855625631641 6.392866193338574
Au 4.473330755767868 9.292267328634038 4.732724117006232
Au 6.104484488785926 7.253657202106703 3.4822051413099366
Au 8.719557523045209 8.28080184398426 3.3426592495306076
Au 7.239267073206545 3.462310660064584 6.0368428979431705
Au 6.454651595451347 9.862146481583352 2.9308877514258946
Au 8.400016153772826 5.62584225121435 4.493519535062903
Au 2.625279467757994 8.548841548761613 6.593924206301567
Au 3.8446099715713924 6.1178202425331625 7.9587679359750885
Au 10.847939960471129 6.621964755053377 3.788945701840768
Au 6.461797497268744 6.4171959629183934 6.360663032395371
Au 11.45049514790987 5.812390032088763 6.31950561086671
Au 3.1659917477596156 8.412847728743875 9.26878161456795
Au 8.936720349887471 5.063327693853441 7.307673630310316
Au 6.319606759968718 4.6285404758526285 8.499153763085657
Au 3.6475864598635463 6.123295594017798 10.74789384017204
Au 9.61072644800064 7.898368040904577 5.997734249219927
Au 7.881637379410361 8.219191263747085 8.12880580068997
Au 7.222445463301417 9.184870199868756 5.554712532126055
Au 5.252424163598992 8.934306398515853 7.491276814468633
Au 10.382563699039583 6.989016349885624 8.555971543792463
Au 5.835101287759612 7.475388497465154 9.792847249616434
Au 8.245779535127474 6.095121306162331 9.958421949630605
Au 6.078378392254529 4.963505989017199 11.184121694126697
