23
Energy = -57.21004853 eV
Au 9.460318122027239 9.079182432341437 7.254197847357752
Au 7.006208719347496 9.418703653828363 5.9758951849392705
Au 8.815968637294098 7.354139953710789 5.218667340963273
Au 7.572219906940729 8.903301108750556 3.3116901794699087
Au 5.60049478017045 10.570399919804665 8.069260917084419
Au 7.513599925758535 6.235226602028976 10.229038319202058
Au 7.1768587285568675 8.457998288693865 8.64836490637173
Au 8.561896509534254 6.219066450203871 7.706642641473578
Au 8.853543048962191 4.663546340602705 5.408079780808152
Au 4.597211100229652 8.269519546273921 7.006147234580601
Au 5.1470323245517555 8.091614245984573 4.286210220810896
Au 7.055868554275368 6.15966737110326 3.4319083408528908
Au 5.973649646468681 4.605424297746713 8.594045001545785
Au 4.925412425661083 7.001376050482693 9.432142461097788
Au 6.235099948545276 5.997951773633756 6.1611371623895925
Au 4.4701771724201 5.247964420410381 4.001381606231486
Au 8.621171985869452 1.9759813760205571 4.83839862934342
Au 3.47655073637174 5.730022440249421 7.531169185945266
Au 6.542364617178727 3.5303366067743402 4.113375177196735
Au 2.2116372090329866 4.357189555759098 5.437806784227353
Au 7.260226061453433 2.9709803879222747 6.9524000370759635
Au 4.640437383063976 3.4915724098070777 6.321568411684772
Au 2.787810166551125 7.070512941327029 5.1536762502171545
