23
Energy = -56.56626474 eV
Au 8.583475209504218 7.694079692038695 8.640313014039277
Au 10.662158516028827 6.921747170127671 4.622464712526406
Au 8.447206229927533 8.017186222138726 5.735978696692626
Au 4.2541699575958685 9.857791888032164 8.688156429702468
Au 6.4155387433498285 8.917773891006412 7.229137247905159
Au 9.6910462489099 5.796709603111693 6.906847035455376
Au 6.476280643754232 8.960272339292406 9.967245947857837
Au 7.948674196297867 7.260833331995735 3.0505738243585987
Au 8.624577421687286 4.2819728180346806 8.881025631217543
Au 5.9270847484097855 8.162700575348891 4.649740865842349
Au 3.664516438918304 8.877516310283418 6.0550713903586475
Au 8.820001546168557 4.98574620997897 4.250135795014848
Au 3.559515422467548 7.0960731246422135 3.817847055141371
Au 2.1884790763512187 10.705980296184173 7.298450631698105
Au 6.860345175005978 5.863186497908113 7.516927097880752
Au 8.283629285126299 3.3007454439477852 6.333277913525932
Au 4.385581961856618 6.178523781885815 6.212493223207067
Au 4.702420388744714 7.142324934465909 8.83178305086241
Au 5.900908428392245 5.464707899369117 3.8173963577315018
Au 7.127781598389039 2.9594647483886627 3.8462118990714074
Au 5.482828493551626 3.642569426364816 5.926278163627089
Au 6.507894314374544 2.5231897864291435 8.315684960331296
Au 4.620107659243008 4.484256731736805 8.437582067141136
