23
Energy = -56.3787968 eV
Au 9.999035278468801 7.840472234751889 6.313627873391185
Au 10.922496311590512 6.102705375933919 4.526700368716949
Au 10.60790372900714 8.374073281169254 8.867583882771362
Au 8.03138223098004 9.586548514365017 5.127298486760063
Au 8.276682438576511 6.896604431893256 4.343986787839148
Au 8.211456408234728 9.240747628930063 7.948032509050386
Au 8.656174767844652 6.433033510623903 8.50449723265773
Au 9.077879348093903 4.883647311353032 6.147732780150854
Au 5.8218704223281685 8.050702449611489 4.634085513258007
Au 6.927371243017063 3.3248963868765893 5.64036100353442
Au 6.066257568712773 7.786198258667167 8.832675612394842
Au 5.851126738377508 2.777954317690876 3.1866677337566256
Au 6.44792065179353 5.110541638934692 9.451690747993432
Au 5.991150308410583 5.393574384848058 3.87973928299025
Au 6.529223077782221 5.914469843230441 6.69037892790838
Au 4.977002527280667 3.677356731284796 7.654010384679109
Au 5.791160936787645 9.682102593151118 6.913988922286628
Au 4.043120569927131 3.5771269853435004 5.020209746437336
Au 3.950495792959621 6.048996528346222 8.781754625036804
Au 3.8295911397158178 6.3966963446132885 5.401731065489314
Au 3.469186535848251 9.103445294640709 5.696034892111315
Au 2.0511343243298654 7.346097984564244 7.394946648673077
Au 2.3979865730794843 4.658424210643147 6.881149829838994
