26
Energy = -65.74223902 eV
Au 10.150785448326042 9.557378435285125 8.502195190686676
Au 7.0305481544710275 3.9613829493615764 4.280504538020078
Au 4.431060845788332 3.4835638677392504 5.610782489088977
Au 7.029852373262972 6.162340668585017 9.500775813606566
Au 4.7475631888930225 4.8110047649950705 3.1536459725889423
Au 5.781760680574628 8.848970542646073 8.623437411576653
Au 7.504553562183663 8.523053212216086 4.545446477819384
Au 2.824301291219552 5.575721436353872 4.931836040282253
Au 5.371329131488009 9.47482478306248 6.006431572109296
Au 9.366113498260347 3.3553487913898294 5.508997800624014
Au 5.8167876456754755 7.925102199106911 11.214928534638068
Au 6.737316581973997 2.394035138172471 6.476950219006372
Au 7.715768163691183 10.158867274862777 7.153249518026136
Au 10.085485295766084 11.206144446463236 6.337664867214535
Au 2.826203680727212 4.91098479704908 7.606381149063732
Au 6.587498304142857 6.861498665979997 6.708776621007071
Au 4.2224688165566535 6.605586984208805 9.354178143798856
Au 8.935934030270909 6.091238607624298 5.190895083464498
Au 7.086320286979474 6.334801104737215 2.9935011660438735
Au 9.931223735815193 8.565453483940622 5.800527999176385
Au 8.17056940094987 4.5381189157818325 7.583417378554236
Au 8.22107832184377 8.65305870250388 10.092920072613767
Au 3.737987585214003 7.432793054015345 6.7902988931895925
Au 4.8539808032315435 7.415024508836932 4.245888216301783
Au 5.463562534095096 4.411579172729873 8.010981738902839
Au 9.235327776726068 7.033012787965763 7.974154028158962
