27
Energy = -68.7321298 eV
Au 4.3388962059929925 3.0903907414302587 6.006339137523177
Au 2.715004208444745 4.981582761614994 4.799195840806916
Au 2.8014341914522385 4.862745917208344 7.570033264042671
Au 5.492892905109127 4.6506774156634885 8.004474318180327
Au 3.9543037405165435 6.855871249480246 9.026768254176963
Au 3.8795012127598842 6.971866239230122 3.404869066361787
Au 7.017065753815303 3.3033699838062747 5.9366958574343585
Au 5.4448995295583185 4.691494643082724 4.0437060669509
Au 5.416243399919757 8.730685864546524 10.404876638051165
Au 3.6390792990341074 7.16097816728943 6.225562869390016
Au 6.7678160580772415 6.545235647786307 9.543779823802288
Au 8.215280962720255 4.804200700402409 8.150861046581777
Au 6.91913638822384 6.842089601500573 6.695193322072261
Au 9.712861058220494 3.756485539765956 6.169634265071605
Au 8.109787918407141 5.3340037877780775 4.423426088577428
Au 6.526062248591041 6.963816131376245 2.8148297423823863
Au 5.621382919274202 8.588415028323881 4.870864347313203
Au 5.150581731206944 8.956856297149022 7.613041606597235
Au 6.811798268878156 10.686622336197646 8.973251586378302
Au 10.917697500515311 5.1695448718672505 8.329475116148474
Au 8.257575953522691 8.683980501850534 10.28753873108603
Au 9.873584317649946 6.560732961322114 6.196513342745651
Au 8.408049559409191 8.114366160348675 4.4099851796914145
Au 7.561808505847493 9.79883619289823 6.466250248596996
Au 9.465497056725606 10.388949406669497 8.435682439909383
Au 10.25945087307847 9.27358474606827 6.092419095337013
Au 10.256214793553328 7.774199990944793 8.673793143793198
