26
Energy = -65.3582138 eV
Au 5.78905398487913 5.544772948699541 4.220107446174248
Au 7.657999904959884 4.368035038092812 2.6922395539535158
Au 3.9997687008637564 7.628083745789776 4.194639728408921
Au 8.862424871591745 3.79414326619855 5.038712977027915
Au 6.618321240390854 8.440310316563565 4.470125623856314
Au 4.63299944169308 10.341861601145768 4.187449879721676
Au 6.960007721717782 4.673002477743445 6.800184764323307
Au 4.879471136081083 6.496188574772252 6.58054500945504
Au 3.9984551886372377 9.134080476175502 6.579089422220554
Au 8.439427268617028 6.454978320157038 4.41154521915435
Au 4.813351658558123 8.070374568058899 8.945241796852695
Au 4.201402719714388 11.905097339248632 6.4053654940389615
Au 9.530781401446166 3.435357147919024 7.60950890286526
Au 8.560007151102981 8.460260352652373 6.358326315790113
Au 9.699485391907938 6.03732187802319 6.786577604483869
Au 5.430908695675084 5.428225518708804 8.97462528100438
Au 5.168693494135821 10.745317333654867 8.655814331050196
Au 6.675742045258271 10.448378827438004 6.327487410967155
Au 7.5949426470898675 9.480187311256575 8.814043225053275
Au 10.69753781937816 5.361722709662135 9.2993138230592
Au 7.98673495786657 4.722332823164362 9.478686392705766
Au 6.898500849682433 7.207983494147019 10.463004064149361
Au 10.016763979151591 8.043291714359832 8.614141100116525
Au 9.164237249314935 6.121939321685742 11.512135218765783
Au 11.451833506565645 7.501421121890157 10.958892762660728
Au 9.031117621896932 8.868145992897183 11.069539180170448
