22
Energy = -53.9992209 eV
Au 5.082774363760664 9.0771009505236 2.049289042451108
Au 7.611304597097078 8.551435408447102 2.918282180290126
Au 6.085461514840905 6.329203218632048 2.1373527485741817
Au 8.372567629106987 8.921215705584903 5.439895897919088
Au 5.7668783815390725 10.04972982672244 4.501760365414487
Au 6.593924108741756 10.641712551194846 6.935574370513377
Au 4.778851813401419 7.3903085482221815 4.2327405335264725
Au 7.539864090415582 6.274897009778241 4.451481557843657
Au 8.772844776885407 6.694779477511111 6.93706886919307
Au 8.67567870881459 9.227595898263221 8.110054301000893
Au 4.882163218911301 8.388234766025036 6.718385971607276
Au 7.940021520580699 4.21360441122259 6.072666100190462
Au 5.060065852890948 5.633111169126296 6.19972523916625
Au 5.827176598566663 9.208278848820845 9.16026030826477
Au 5.527715050515194 2.983705829807575 5.875332168578989
Au 7.4475658217025025 2.08012117703485 7.76948899538117
Au 7.681093829750323 7.159652174188579 9.490763329432914
Au 4.8896346920368385 6.654278793456864 8.821792875057943
Au 8.439090425965075 4.643125526506683 8.744870792305717
Au 5.558588145374262 4.035064862003351 8.426127831937682
Au 6.305819712126526 5.2595629178688945 10.807174179215245
Au 7.340722502226365 2.76308828430841 10.37971969738463
