29
Energy = -72.62536242 eV
Au 10.711620959425098 6.7718911305541445 3.449269749473896
Au 10.160908209849664 5.242982513095923 5.706211690288145
Au 9.92747983032824 6.707261562603671 8.04338089057638
Au 9.398851925232115 3.6962715400049007 7.782902643766683
Au 9.149515820642298 9.423056814878354 7.864575573589528
Au 9.81953998632495 8.126305065887202 5.602202973971517
Au 8.28562581345402 5.5835042240196495 3.747186557029429
Au 8.29770092616742 8.285469851710017 3.190791899492147
Au 7.451679549066461 9.73113957138797 5.640197817975714
Au 7.289689311518261 2.7197461473897513 9.204644140527682
Au 7.642925194102241 5.408250410230545 8.92748994573554
Au 8.359560574790788 11.289580933220952 9.513669267272057
Au 7.379712019472816 7.277087765898285 6.922004869942294
Au 7.140598951367722 10.740654414583979 3.1036530833347875
Au 6.356287450414444 9.96356048569579 8.341318422696219
Au 5.740057309296447 7.255957737489009 9.169655692436281
Au 7.344009572945454 4.397973916523436 6.078500471938156
Au 5.985082769189895 4.105549958603189 3.6132532831301325
Au 5.201465251854611 4.477838116499293 9.608100937242858
Au 6.18045979523178 6.5972159737398 2.3348640989384815
Au 5.489800666470101 8.76629594049896 3.920792122884035
Au 3.774628286854623 9.090492290265045 9.0294701464125
Au 4.818603577372978 8.516472338463377 6.5767166008655
Au 4.6597272495329545 3.726176889160571 5.953824733087514
Au 3.1342706711627786 6.61122192242866 9.963037303372477
Au 3.706453000654404 6.013172171632409 7.326120048010908
Au 5.009291948319914 6.308027805829034 4.932980286173029
Au 2.759378002024135 4.027732769267417 10.665107941954487
Au 3.099209971522302 3.4132443330271394 8.06221140247055
