23
Energy = -56.90231734 eV
Au 9.366521973384506 4.57929687866874 7.213303358326646
Au 5.830684238939925 5.793180271761156 3.618973994992549
Au 8.221676970760734 9.160494321084581 6.861279121575702
Au 8.560895848847602 9.366003485452614 10.079933804292773
Au 7.632030170155941 11.850794022160548 9.858401408432076
Au 9.449287718360779 7.20682970549155 8.499292869409933
Au 9.58688878042295 7.06841989829033 5.743548500350941
Au 9.04158920596705 6.918819915451026 11.167239226779415
Au 6.066427911400045 9.817807063368019 8.82925868931536
Au 7.96242806568617 4.906658360247064 9.589753303207475
Au 4.866234142446365 5.112042505197305 6.123921401008639
Au 5.074102018947176 5.221712615674212 8.902713697085417
Au 7.200533205082677 11.695723065866634 7.154437308569801
Au 4.3218010238926885 7.637165466421919 5.000224927221238
Au 10.425765976670105 4.700411165424235 4.683235199910428
Au 6.566686946087776 7.342458614809597 9.866055557976512
Au 8.550464942180257 6.1172184273931105 3.3052104356255847
Au 5.598929040136087 9.873627330868263 5.954286743170012
Au 7.103645682214327 8.101435013768397 4.5071311323437495
Au 6.757709843689217 3.5328939494610325 7.517882272978927
Au 7.547176229734768 4.143758199812127 5.01991088732291
Au 7.15179668252099 6.447521184080982 7.074347762645425
Au 4.738400291580967 7.71275133571713 7.709419625786431
