20
Energy = -47.06584055 eV
Au 5.7447922180003035 7.821638482729541 2.9664385624705685
Au 6.551405642362504 5.234423990601705 2.982287527097071
Au 8.224206053585096 8.747828727452953 3.6160126087906725
Au 9.122625896411632 5.86135702733498 3.6270018073099086
Au 3.910388586179413 7.325139926916154 4.929518944236702
Au 4.756177381390783 4.636893454642354 4.953456166598782
Au 6.330819613819324 8.444958496056437 5.5853908841505575
Au 7.3804286749386145 5.085358143952577 5.606659722877004
Au 8.950622549858544 8.997184561309616 6.161495062287722
Au 9.848024166961087 6.127694395585134 6.171182445965655
Au 7.1956549240939935 8.45585850951805 8.261392838691032
Au 5.504086146978378 4.703974679362455 7.512544390035767
Au 4.557134234222963 7.714314675594869 7.487451092085566
Au 10.58489230733333 6.535934499390009 8.692330445932479
Au 3.7193195407571475 4.363838218749625 9.506269169080172
Au 9.768680119716091 9.121956506190473 8.687256342933829
Au 2.889744365076383 6.978249101085665 9.477269996379988
Au 8.089664564276976 5.6164999373363225 8.275334677305441
Au 6.214695440191237 5.129802610560432 10.114399975714088
Au 5.363569633440951 7.804026115224836 10.093239399651862
