36
Energy = -94.72796057 eV
Au 3.7392041682608825 8.046826766921876 10.76427312605681
Au 5.731074509866598 9.331564078209695 12.080521423547248
Au 4.009052379356466 5.769064576888282 9.267622915649136
Au 3.3387868087525456 8.344452071325643 8.099101278518035
Au 6.269392425577262 6.889312553445718 10.725858276381325
Au 5.566156511920339 9.70264020400835 9.310664482257723
Au 3.1552931213105118 5.97307098368484 6.623083060487591
Au 4.378350533170327 3.5679578837720145 7.6669406575201
Au 3.0610890001452176 8.681503955684045 5.4355004343157844
Au 6.5959624064166045 4.5815077530859165 9.321531480552055
Au 5.28742047926065 9.913343040104895 6.601170008209644
Au 6.1190490707812275 7.272324464590271 7.862889365532578
Au 8.000493247702902 9.030086810845583 10.476261544872608
Au 5.65611040763529 1.9847787097452634 5.547380247676185
Au 4.005696346233521 4.059671031431789 4.824113099475705
Au 9.054121354497992 4.311960398944315 7.695789465688854
Au 2.9993480560496315 6.420203250577153 3.8563022353808516
Au 6.400932010769524 4.905577339047932 6.353294085902602
Au 7.092182046215052 2.413577816200886 7.783494558771612
Au 7.841292983864548 9.813884158201464 7.69167791312352
Au 8.707728569658048 6.426151298718964 9.450237522234863
Au 8.150829003092399 6.950092667021997 6.020166144692958
Au 10.136562929372822 8.777816626275174 8.86305125687715
Au 5.500317250451653 7.170762205733889 5.091632285154773
Au 5.123536379707389 9.658720451842353 3.8627574261915685
Au 6.259839728428433 3.3745849751591446 3.287920803866995
Au 8.260013209675243 3.093126022465145 5.235833067551436
Au 7.68879812790816 9.655895956104729 4.912647954458878
Au 8.052240098808634 5.408605964337751 3.304736085329522
Au 10.69267225091649 6.4696825460354095 7.48336391497431
Au 10.074363672028953 9.058518789463216 6.1473922973859825
Au 10.154239213334836 5.017921178598723 5.093789188327689
Au 5.343882518234855 5.8388670799203455 2.5735813870085886
Au 7.017451682579382 7.987912690970394 2.756196830439468
Au 9.57215423853145 7.765555257622646 3.6836812374719714
Au 11.86577375670398 7.148054892432665 5.082763523873877
