34
Energy = -89.46069115 eV
Au 10.132843185218626 8.030518568535353 9.15557365500494
Au 5.338916368029261 7.993437453662568 9.849368401015221
Au 7.900857376572507 6.892513688709451 10.317367127319118
Au 7.6471514464534645 9.44315797236861 9.158044851633646
Au 5.0759304505206115 10.40046469289132 8.718464267597025
Au 5.599492346719782 5.671646976305207 11.164132787885253
Au 9.78820249397116 5.354299605011278 8.752349576775902
Au 3.9536034827363995 5.787708865791492 8.80961005265168
Au 3.7079889190939386 8.208698765069858 7.5650526115811125
Au 4.246723409683208 10.507989623538753 6.136194182331591
Au 9.570852260754299 9.787822556955538 7.162794618549359
Au 8.246789520407331 7.23190311231211 7.238749540625673
Au 7.513787244353749 4.190898080575467 9.779068267922979
Au 6.977650166596459 10.713471558963496 6.73637548669363
Au 6.119353083669282 7.810488270182738 5.690935535189663
Au 4.732719406669134 3.432618178115309 9.943460676458757
Au 6.033036170382244 10.131941382591679 4.093181979955829
Au 8.746951596425138 10.379868577623949 4.629302576511083
Au 6.489754732534798 1.9494636733559134 8.525452406333983
Au 10.0242388207361 5.333851387059705 6.002036500334581
Au 4.356278424108693 3.4268420223385703 7.187041288541501
Au 10.015111811465747 7.954936291338832 5.092236215960915
Au 3.51231543513182 8.268031660731728 4.749259532793372
Au 3.4913907834580775 5.824907173940891 6.10054125701129
Au 8.539025414850325 3.392328516302135 7.273570690494347
Au 5.289595765519433 8.024159606767096 2.5447458855196836
Au 6.345379352895466 5.372088518023014 6.8779510619484325
Au 7.938034064546915 8.177352320416936 3.183985687552046
Au 9.395860147061606 5.884618425458615 3.378791403059458
Au 6.552352785469411 2.0168513654276037 5.838151970332409
Au 3.808697149292536 5.899991313178227 3.363174847381842
Au 5.188256641146125 3.948595811091577 4.553603204732447
Au 6.655018339650817 5.653776591898967 2.914050585786385
Au 8.033738957616757 3.8897926058574708 4.5437256662170205
