37
Energy = -97.10324406 eV
Au 5.9145095657287525 6.141664420252408 11.226203897430826
Au 4.671180602194743 4.98137643382808 9.053219873603323
Au 3.641689332113603 4.009903086054577 6.664320067096524
Au 5.182416415355599 2.4211586976536466 4.998793854908454
Au 6.10711354333942 3.016982801000756 7.603318954099581
Au 7.382759737518507 4.321435665630989 9.665866908663762
Au 7.687339141755646 1.7303481536849363 5.702662369170827
Au 8.673838026116359 6.494936784042007 10.746886012049004
Au 4.245260860400976 7.830207885518453 9.702499245433417
Au 2.908866365461853 6.614565146977666 7.595724654857444
Au 6.643897302568911 8.862542341477255 10.831209909807779
Au 2.2589980824741738 5.734108083890776 4.997308052964219
Au 8.920980490025205 3.1924165813673677 7.744597570232433
Au 6.77815745627466 7.1094227622518815 8.707306410171977
Au 5.593078909904007 5.955234404164418 6.423290726869114
Au 4.676618190285627 4.916268342769197 3.950344823148098
Au 3.4341928480323283 9.363855484065477 7.639360930546368
Au 1.7858976230077845 8.297843050278546 5.662008774699183
Au 3.60435813804093 10.195326240371882 4.935088484425338
Au 9.35144963074885 9.088504173823825 10.208578204468653
Au 8.328691159602963 5.827460503539616 6.874440199098169
Au 7.289089134891931 4.057389404735934 4.077068619995302
Au 4.1188418730624266 7.616071096587038 4.0820158541675955
Au 5.607811287431256 10.68878115428124 6.700471951395627
Au 10.355418331215338 7.048950010530737 8.62563866565934
Au 9.795120144495119 3.3208214387955657 5.057718652976495
Au 7.471928937316099 10.183043296153146 8.539687812712208
Au 7.084540847104415 8.238964492580418 6.294168105702849
Au 6.749730464756006 6.771883136249367 3.611495961324905
Au 10.909384866918234 5.016803109155265 6.899575414046112
Au 10.12011120640477 9.704675342092532 7.643710314029765
Au 9.368115351257767 5.892465983401052 4.176314832472666
Au 6.15855351522069 9.535296904043904 4.039828461111711
Au 10.716882089547939 7.60938459811209 5.904632803030848
Au 8.222545114909712 10.733101903702448 5.8158883095032055
Au 8.814392656062614 8.596736916963994 3.9571730702077383
Au 10.787878104059459 10.216146189517499 4.997951885639612
