30
Energy = -76.58842593 eV
Au 4.49226691570764 7.518065326859519 2.1742912001006953
Au 7.156524823693162 7.688429748191402 2.5622163438059467
Au 8.212433793952965 5.235506438406135 2.056460930176681
Au 5.5001880335847515 9.569639641508951 3.7812909511128847
Au 5.765220070014555 5.342504444246372 3.579080035892239
Au 4.234001750837011 7.336465721015446 4.863208002857047
Au 9.45137207954536 6.974949325062817 3.889196028437531
Au 6.195231609312729 2.8228997851655837 5.1259440701370025
Au 6.663374922012489 6.64088852354481 6.225473365915328
Au 6.646085369127187 11.281415139650456 5.581495910635736
Au 8.245789127748656 4.578655132523955 4.673815887253267
Au 10.334478942663422 8.52410031259996 5.919391236535575
Au 4.398194186901828 4.741048323993174 5.91635900557791
Au 8.250738040369095 9.435087352238904 4.431167314768827
Au 4.887590965512549 9.387311152430222 6.54104931721811
Au 7.747438954178631 4.0336486476405895 7.291574274849195
Au 9.484405714695942 6.031074361635778 6.611655176517534
Au 6.147277186775161 11.235168504408925 8.260928321091116
Au 4.032341971178992 6.9979950730786 7.5663087737720645
Au 9.989188672146637 7.917941948689325 8.568009415735084
Au 5.397821282330632 2.7277719305734847 7.733501411755678
Au 3.271056438177272 4.559819149607183 8.421546874040503
Au 7.383303423586185 6.872006982292568 8.969302380116002
Au 7.718652090421987 9.098536431488133 7.290358131101157
Au 9.597358309865538 5.230979233624779 9.265974006024056
Au 5.389214427571407 8.788325989193 9.234856575222864
Au 7.204255461478418 4.23084901968122 9.96462083242248
Au 4.715690040288073 3.218747328789918 10.286915895441199
Au 4.828289470780812 6.239564157223825 10.0924033447099
Au 5.7466802086583435 4.827069157753964 12.208069269894857
