36
Energy = -95.41549104 eV
Au 7.809489052169801 4.333756519567637 4.2649519080745995
Au 7.47696651569678 3.0227082256022326 6.759397418894068
Au 7.586100004042029 5.99237198150389 8.094967619223091
Au 7.697458800717714 6.804828196423632 3.096040528810163
Au 10.03758798160255 3.5872481088255355 5.75240109845358
Au 10.013151783666329 5.997038877018023 4.54462240461963
Au 8.744937719932292 7.872329521960868 11.36372841467566
Au 10.497811234457092 8.401389149505254 6.099834018567601
Au 5.500749464146925 2.990781906008843 4.9079384115568665
Au 10.035864533251756 8.381145927683036 3.3353447624244597
Au 4.925146586322388 3.802399796241184 7.525575722700989
Au 4.925167433980899 5.692974334421441 9.552876295769048
Au 7.549525925025854 9.563634897249305 2.954165401978264
Au 6.118104042867048 8.131682847337697 10.282459917546879
Au 9.39401655700499 10.620090116448168 4.769128788889071
Au 5.354245213766239 8.326531657910644 3.812757806935799
Au 5.331940843696523 5.550024146383388 3.811375571052087
Au 7.8034449437565465 7.641245659896709 5.979182350535627
Au 3.138236315770933 7.0546015272877245 4.713447735969434
Au 3.190699506407527 4.3296599959613085 5.255438384584871
Au 0.8947922898852507 5.770907987462027 5.743147245905522
Au 8.666884349986969 10.318355142268912 7.324941033066455
Au 6.604914845808466 10.30654973818695 5.4480532795640855
Au 9.592839195839154 3.5067474406748937 8.44230997945003
Au 4.157218123825796 9.286917495030698 6.160629703651496
Au 10.45478258759349 5.914822561899996 7.311758512961833
Au 5.393819689093855 6.574830791138879 6.560575350458393
Au 1.791005887564147 8.09110819249912 6.965844033427974
Au 2.8941367671044764 5.6616883568512675 7.715708338537432
Au 9.765043678796765 8.156718500415872 8.751018901428834
Au 5.997018650423817 9.933347361648993 8.136214376380277
Au 7.057138299012409 5.705308523204808 11.23723428430066
Au 3.897395848954053 8.170507920889309 8.726452561588186
Au 6.987882303157589 3.621487118704454 9.451472607364249
Au 9.624103891225792 5.6491732246534045 10.060846745764504
Au 8.091386228379516 10.07106186624384 9.944334989661275
