36
Energy = -93.76837254 eV
Au 2.6619376377385664 6.747335274377011 5.657555336556152
Au 8.529703674982418 3.3572951310196375 3.7887038072387456
Au 8.053857789744598 6.743858961806634 7.258740786294125
Au 3.3320944645669743 4.831897436469412 7.515726442914666
Au 6.806585910655986 11.278653395722806 9.324640229973447
Au 5.378374373457015 6.637411216834611 6.6406604800522615
Au 9.134929548534481 4.757897191394842 9.029424357857746
Au 4.668477331484433 7.794714731248112 9.937719762062882
Au 10.812588237017893 5.785211868188404 7.019009978526797
Au 2.0755831695727203 4.040695215464814 9.85586043645728
Au 7.979399700194201 10.802257025717646 6.936261347134118
Au 10.713288368115348 10.553985617753082 6.940614021278959
Au 6.949025109721585 6.173741478946607 9.989337343671219
Au 6.386156482789453 2.9889510489705526 5.5593518178040435
Au 9.19641307235046 10.444654572531766 4.530258948598311
Au 4.275679244666581 4.651438982359198 5.000101641911812
Au 8.802332175249818 8.068586116834704 3.1909321994016264
Au 5.90343671161521 4.041855134835009 2.978319982344877
Au 3.140948674185179 8.634428017243518 7.78911041374158
Au 5.824274751838779 6.789011477355945 3.66382495363307
Au 7.15538476282098 8.615534125150267 5.303317865517737
Au 9.432366854448848 7.349289618560338 10.159063582867795
Au 2.261604356237107 6.6805964079436295 9.389555233436296
Au 8.021766911532668 5.659691489464385 2.3530005793586564
Au 6.478218499272179 4.261455212746712 7.976010010846804
Au 11.692971052734933 5.906475288159202 9.602220711522646
Au 11.323563697937946 8.27968804280502 8.28812062141913
Au 4.6139610186891895 4.900942412128193 9.95269844080917
Au 8.842018750075566 3.814954035669598 6.4676983120030505
Au 5.929969099290406 9.128057984669905 7.794382710727107
Au 4.458631476818751 8.80769261681264 5.030325163269014
Au 7.160669604225805 8.834378704516075 10.457841340606734
Au 1.8760833217359567 9.379035174004121 5.536385779520591
Au 9.722125908642438 5.674806560618432 4.522426828202787
Au 9.360068254383703 9.993098573408805 9.294918968405605
Au 10.114282121217627 8.113858516146575 5.698996590575701
