34
Energy = -87.44156015 eV
Au 5.909099976425408 11.140747557696406 6.143464865413751
Au 5.947696216700997 5.30398549611206 2.5440811564486134
Au 8.930765275912906 6.67028244950994 8.513332404222643
Au 9.239761216985382 9.151367742264586 3.641841989047856
Au 8.984919482328944 7.928320401054412 6.098410585743185
Au 7.597467592726579 10.5276839975273 10.540688287247193
Au 9.205684260201181 5.142914920944566 10.749567275784104
Au 6.653224248665048 5.854574659059526 10.900051792821671
Au 8.805947133127981 9.393370583909544 8.386259338607909
Au 7.864069333635794 1.2129289483675232 4.232336186975275
Au 5.277353690892312 2.146639090281305 4.635244336493163
Au 7.868983787747908 2.643444699847225 6.483696197284407
Au 4.729843767307626 5.027496045601987 9.115050174537965
Au 7.416344498652789 4.245318002423148 8.680758432629949
Au 7.667363210176676 13.172588638344237 5.800298979713081
Au 5.846487948802859 0.16170849487737912 2.723165564968942
Au 3.3088967483868164 5.81754553675825 2.299922227442677
Au 4.647472235153539 7.242184378379907 4.180747737522615
Au 3.877926456222177 6.145975533035004 6.717918910743283
Au 4.210769946241681 7.749644834463997 8.950749242270794
Au 8.715616219642655 10.665953181218525 5.866654997887841
Au 5.784842485815192 8.560313378377202 11.095522409093347
Au 6.662569406552138 9.027000108800465 4.545954311016836
Au 6.344947896134568 2.699294725741164 2.0604809197220777
Au 5.343856458949907 3.7281614053852263 6.838733017872245
Au 3.990314680770856 4.484788920800175 4.564764194738787
Au 4.071304671834516 6.4035146580641005 11.415301934127543
Au 7.996100721069729 6.663608547962273 3.7959589366471085
Au 5.566584901392867 10.106558877042843 8.7160795522137
Au 8.502215534478745 7.9529648341940495 10.922423802806442
Au 7.914219954051849 3.950384469701213 3.9337953447518217
Au 8.489375776981923 5.28495866156539 6.227172334462614
Au 7.662305021476963 11.957265314337752 8.25471286861747
Au 4.73091249032425 8.72981995179453 6.469672228162593
