38
Energy = -100.11166979 eV
Au 2.17537207540242 5.939108715074706 7.130845419158106
Au 2.034648157388317 4.396239980251438 4.665975442633773
Au 2.314445821568261 3.1299696717920034 7.102198224144114
Au 2.741386817312381 7.088018118455599 4.732410659649091
Au 4.038784300957557 7.092911200207927 9.591082748057396
Au 3.5569233168121603 8.407009474546598 7.154583049869188
Au 3.1242779519037676 4.516811093488817 9.312916535239978
Au 4.5088304694887285 3.283275139350682 5.347021055124519
Au 3.6634150695806387 9.736083699533292 4.694621014033501
Au 4.89880387379565 5.600864491314947 7.213480438214724
Au 4.483392475019528 7.950481534320431 2.6492050801560723
Au 4.3775307363879 5.217503411594017 3.3878682962388287
Au 4.9949493425687255 2.8494043843343753 8.125215472692275
Au 6.630354256174034 7.441900015812007 10.569641394780378
Au 5.27903724007034 9.520260991942733 9.073555647491057
Au 6.8160798219609555 7.645585407211073 7.7657721896500504
Au 5.527050367004161 7.3221911738594 5.191356229964362
Au 5.740772894173118 10.287508088787884 6.414952833233464
Au 5.794607521685111 4.8549263675975345 10.01928784727178
Au 6.237324949262601 9.884234217121083 3.7138900551849776
Au 7.88960204036838 10.231710106776694 8.115084911907282
Au 7.65922410753737 3.0878761825541767 8.929443179768754
Au 7.570702023411599 5.129694704646358 7.00517735983989
Au 6.7403207250727775 6.380166460025576 2.5641447686395207
Au 9.05012781335289 8.222472783828117 9.622741195140996
Au 6.879403016796335 4.0715080445645055 3.9837940258117257
Au 8.573509778976963 5.520153697688142 9.89734352881193
Au 7.024211404852994 2.490807831256885 6.259320370185857
Au 8.41115747962079 8.499941566355954 2.861959021747307
Au 8.241445379415724 7.281305658559516 5.485327292827719
Au 8.454598083901027 10.101456264168263 5.330573137660004
Au 10.038332105328635 4.143095039932319 7.914177257569209
Au 9.333783041215273 3.7100755399240293 5.250488357180062
Au 10.990233292162056 6.611049717152827 8.57083315816649
Au 9.286059235953124 5.788214573506259 3.404644645474089
Au 10.160392342521503 8.81790531095088 7.170209470727622
Au 10.63357059662386 8.420330132123862 4.510934676932951
Au 10.816405128865075 5.980605775091288 5.878935111210442
