36
Energy = -92.81546115 eV
Au 6.69681388772587 7.739485743854206 1.5258131670706556
Au 9.418009366266746 8.210755064412972 2.1871783401854663
Au 9.068956641981645 5.219235722585865 5.781989013351262
Au 9.040781722433763 9.428151659456061 4.682532648219538
Au 3.990964153710333 4.708791686323717 9.640387393723309
Au 6.631196246388823 10.940716111877624 5.06757850167221
Au 8.371086761422545 4.146818949892387 9.630535420732503
Au 7.413419756483035 10.179864391590556 2.5908842111379693
Au 2.4879212541003652 6.835685928303732 10.365971092362564
Au 8.277237075684067 10.134581672771477 7.19923411460356
Au 3.562919092099497 2.168380649352862 10.137200884666356
Au 5.190544201732159 6.968770182858111 10.734978281134804
Au 7.533225165662757 10.94118211297895 9.811439487494141
Au 7.899070974462907 6.559765315893017 10.535527543548467
Au 10.197174150887959 8.160999490518979 6.956336865620049
Au 7.041482230002057 8.90378223333263 11.531191435719542
Au 9.271409166754426 8.774937203576052 9.524707866297335
Au 5.009999080774394 9.295037511926889 6.532138331317185
Au 5.359740067478431 8.774929544942024 3.781090167430079
Au 6.132816025602807 13.16157784715522 9.823351423875286
Au 7.429046340865946 3.351495624322108 6.909154083239086
Au 5.930264083665675 2.804916241697449 9.11830093871019
Au 11.635312290542423 5.790699522481574 6.617609500919028
Au 7.418246090702008 7.489448134392568 6.288144231746267
Au 10.110502261784427 6.188590442488973 8.939632700782745
Au 6.480154495550617 8.473649147259016 8.74987009526938
Au 3.9451998564917763 7.172101989867172 8.106270484048638
Au 7.8942239590308425 6.476805236059772 3.656982148602323
Au 4.16894726245633 6.888544748323929 5.449482767198624
Au 5.097612169631074 6.062047351450609 3.0090275520276872
Au 6.292662235431498 5.617755502897582 8.120922103978922
Au 8.566809048264972 1.6609544588112755 8.654795289494073
Au 5.973958642948853 11.683070690896821 7.589115002503677
Au 10.630092177250612 7.142761951296113 4.410980922883701
Au 10.394634322050688 3.6320756285238724 7.7503272992648125
Au 6.150642805257261 5.024709369207591 5.302393752747524
