30
Energy = -76.2146559 eV
Au 8.67435640505764 8.366055945691558 2.2728981799681445
Au 6.5537347622194115 7.549607243356899 3.822086353113203
Au 6.679115806720064 4.91010392103586 2.9000167042903384
Au 9.104326336509297 6.007915696402048 3.5250366238388566
Au 4.20269593356427 5.9740206712900426 3.5971422767389147
Au 4.078433576244717 8.668845868380316 4.313248546293805
Au 8.865047859209284 8.691280317145292 4.965290403092665
Au 5.447598575510154 3.9327967929951204 5.1231314730243565
Au 5.112690367709129 6.5663531658356185 6.2465615896754825
Au 7.782606586724001 6.557801223642945 6.461043970814071
Au 6.889026286339164 1.9035113808017559 6.3305225093139725
Au 6.360468148322442 9.136374022666358 6.214934638023308
Au 8.286781543313197 3.779565910975809 4.929275333477611
Au 10.981095118060518 4.3414110413592555 4.631412620323309
Au 10.82351733385628 6.896280922483063 5.663127498119664
Au 7.201766488585871 8.563309377159111 8.996482765677287
Au 2.8771569394563996 4.908633739588662 5.857418724431706
Au 9.595843173041507 8.398072775461774 7.617382255977664
Au 2.5021729047848513 7.761183774296806 6.392811974600019
Au 5.792578891532512 6.049610384668937 9.09380319134165
Au 4.7250874510577345 3.5631164281656833 7.712157949974129
Au 9.931524622911395 4.6949775143514705 7.178697171985752
Au 7.389914470318528 4.069703177075221 7.844905983389564
Au 2.9437757622505316 6.170628916152696 8.534587282906147
Au 5.6535039025540295 10.785468188144822 8.347879586368482
Au 1.986048096433082 3.679498728756608 8.144867141836675
Au 8.616313105073791 6.213719971731321 9.116692071462177
Au 4.3885785187790365 8.416897833748784 8.553423799715285
Au 3.703785100257587 10.254473181105592 6.493988459221309
Au 3.9467180610944137 4.285044013020813 10.215435048495456
