38
Energy = -99.42301487 eV
Au 8.209829952738907 2.0508757978304795 5.997235529336796
Au 8.380784257048644 3.184229243546395 8.551287837724903
Au 10.090483660351348 4.056506081017074 6.532538670280502
Au 5.422889957994878 2.155457501336201 6.028587604676624
Au 9.435520733369618 5.796628456385952 8.635397434150672
Au 11.265732864016025 4.908896445786223 4.157388827148904
Au 8.549248950918846 4.127688452714737 4.144377210350799
Au 7.397296114440519 4.943542171397574 10.425583255881918
Au 10.740854546083309 6.728153030235661 6.211037213314954
Au 6.857963650661031 4.400417270908191 6.494512832354257
Au 9.533119671451587 6.896365061308348 3.5054368481899916
Au 9.733342639995143 8.480721387288948 8.022782046337298
Au 5.575628596056373 3.268396044525207 8.76985860056243
Au 7.986658528590156 7.645322510911303 10.18065968915527
Au 5.42314307718878 4.325691573825437 4.091883933888607
Au 7.199919996295868 5.726421885849461 2.4553135955356775
Au 4.948306572148293 4.102625964353496 11.372681326526239
Au 9.288250541365704 9.120580716765815 5.173432795390003
Au 7.9262185520933 6.735365904239537 5.755962976456741
Au 3.8377513601449507 4.341622032315817 6.708347051276335
Au 6.285197557442383 6.3801390528924635 8.258729686164365
Au 7.189292955764456 8.3902386793923 3.4057603095786546
Au 7.024025459256468 8.870242772658079 7.210640251777965
Au 3.4691034020173688 5.089826422755248 9.274138711602184
Au 4.780653680760041 6.870991886550217 2.94218247906739
Au 8.214488265041108 10.265961750868486 9.630408817696477
Au 5.143358584596892 6.841188903916755 5.814057455118531
Au 2.894158119420413 5.570837374209666 4.500838445198218
Au 5.184838804879943 6.804665141220769 10.765956668327417
Au 9.019037449869458 11.090490363745245 6.9866462791420805
Au 8.378584085785766 12.90431248571738 8.918536931330719
Au 5.5406714211226795 9.224377940130584 9.552218277265949
Au 3.6066322697793476 7.6265565356319 8.351075371078707
Au 6.865638635390242 10.706547047858667 5.140413249025175
Au 6.2642461171841415 11.505076746299332 7.966064191097929
Au 4.706514118553361 9.294230259231105 4.203579017277767
Au 4.386878362722126 9.900862200045475 6.892170704993727
Au 2.6614329259802734 8.056875039613075 5.762890114665057
