31
Energy = -79.92555802 eV
Au 8.91299079424732 9.902101877965839 7.232899914586633
Au 10.709948205963064 8.254161362842485 6.0212766803396285
Au 9.397076730206287 9.08712699449794 9.901324994032962
Au 6.3581388848981595 10.232232984036674 6.320047596377993
Au 8.238461801838945 8.801902507481003 4.771628360821656
Au 10.520124506605457 6.986572626312476 8.45269624817994
Au 6.89514074140731 10.140843362153678 9.153306712629917
Au 5.530773900585477 8.280917811133861 4.342930211700344
Au 7.2955198043480625 6.6214763290506715 3.097782109536718
Au 9.968755030046701 6.907683996618488 3.75321576995458
Au 3.6701708742899077 9.603365801229911 5.761349839362377
Au 7.786654674916248 7.469545324881761 8.20196549997262
Au 10.446387995086498 5.474939588017924 6.091815062758179
Au 4.412221076321561 10.676460209654138 8.25380386250905
Au 7.056158310561122 7.978225285162811 10.996690614217599
Au 7.295505625679353 6.244269002297091 5.862293757850068
Au 6.4120114006015765 3.949648537869238 2.8690350496664454
Au 8.886241112411936 4.4085165061645135 4.013553512046781
Au 5.294161571654019 7.691194433258103 7.217272763780876
Au 8.53293403865794 5.688061778106059 10.266533435215942
Au 2.4671641181885233 8.720276557195165 8.099806564446448
Au 4.575431774698167 8.465735293440787 9.955138335311716
Au 10.150303092797298 4.25564404738881 8.582883905681802
Au 7.405770532668371 4.241218761375227 8.101006064871038
Au 4.787812012874186 5.496017327754846 4.4562827066232265
Au 9.191527644936237 2.976529451165745 6.36076780788868
Au 2.9780191323503686 6.7311362424286365 6.090355405124573
Au 6.604231234995519 3.475107878386921 5.5629619502962235
Au 5.783074251102813 5.88340221965544 9.682250614424783
Au 4.809072679874293 4.760271105180537 7.225308582831419
Au 3.186853623392144 6.193178898785817 8.8824357630848
