30
Energy = -76.36664628 eV
Au 4.136786627795567 3.865917972062942 8.188111310406562
Au 8.39887424317958 6.558640584802396 9.030667906089212
Au 3.2082316044338404 6.152902008176695 9.336526613115506
Au 4.131767030287429 1.434668114214291 6.887638989069008
Au 7.453746593126488 4.371100519425667 7.676904884209417
Au 8.943660985033867 3.6151723617983365 2.48438821660225
Au 5.882390348976688 5.756924208023915 9.4998196394712
Au 1.412433062728422 4.8849199208026635 7.686778522390278
Au 9.754108158381138 5.662224765676924 6.676125367061651
Au 5.5906690290097965 3.6024644988372647 5.7858518565099315
Au 10.920266848325216 7.4082300777225365 8.46102576519577
Au 2.5096998968857673 3.36081095793576 5.798530267811883
Au 6.253835212187111 3.638248996694651 3.05561488293217
Au 8.282214090680256 3.9664132108278327 5.118011834316449
Au 7.650642921276666 6.0480941139446305 2.4863732621143595
Au 4.416333064883506 8.295328792469943 8.17260674403601
Au 9.006067285363265 8.385235345645663 6.923317913589701
Au 4.207306991726341 1.9492399857926914 4.112627167936559
Au 5.513751617277392 6.1762731455648785 6.7751403810851105
Au 5.028362011925861 6.030230720982263 1.6179095341502339
Au 9.939628923087614 5.856738129330201 3.9608997859413884
Au 6.294986456184813 8.797825633394494 6.27637083466668
Au 1.6928824524162738 7.647776490732372 7.48309374616217
Au 8.2311967666008 10.488386546121081 5.4828232843029125
Au 5.641971528692102 6.878250440889284 4.162417514695818
Au 3.6765298553198384 4.60083380714199 3.5998298997520117
Au 1.7987244965639648 6.001646512423655 5.21886035328452
Au 8.266660177143612 8.054904166773584 4.22651138371053
Au 3.5982054556439955 8.12963313252808 5.549525571080896
Au 2.9393612897754506 7.162259864175701 3.0469915932218625
