30
Energy = -76.72523896 eV
Au 4.589818625503412 7.179903065458257 2.7687175196299885
Au 8.644382627783566 4.448246142327249 9.341372141481548
Au 9.435963475274617 9.220371030832638 9.549218727331054
Au 5.610429854017515 6.4914087835264676 5.486585425123419
Au 3.1266378225295393 7.739341854912776 5.1912804073717735
Au 4.093629367352923 3.4091771043819157 8.693219058756434
Au 4.711224233545256 9.328735140675425 6.857789736056566
Au 5.15997940384891 2.8610968157360843 3.343595699734003
Au 9.490479769838547 4.3058260331907725 4.1670351561766035
Au 9.058851258912803 6.312052087929009 2.2386641260100575
Au 3.186338017876645 5.840973255880899 9.53478560082404
Au 6.701842687383881 2.9986338371189003 7.870973616811951
Au 3.0338116941353195 5.387461751011851 6.8276509812649016
Au 5.924882535449939 5.16237317921811 9.628993323598232
Au 8.465750426279426 6.759833519559777 4.857566122816701
Au 2.5536991635893114 7.9394108324486785 7.88110073698772
Au 7.750750961046511 7.1228678669436105 9.7177621150008
Au 7.146102490716355 8.235357651209204 2.8469439784091266
Au 4.36417056651482 4.773394101212814 1.5733792645829165
Au 4.633266298814878 3.310041913845672 6.004152702792876
Au 7.186486151079349 9.114177078511128 5.585738828571353
Au 3.446921522559362 5.013399690348165 4.172795095572672
Au 9.062383808263826 7.93274781328003 7.236016471465529
Au 5.04585646568684 7.813146013654618 9.204311636749196
Au 9.328719776544258 3.43579869460202 6.7967874279447855
Au 6.737246563808984 5.163928291635292 3.0724101871346874
Au 4.979800813922375 9.533733998913327 4.085229679582405
Au 7.211750531185816 3.1594785281333575 5.098206357445315
Au 6.962024143845238 9.551314761987419 8.369697068764333
Au 7.50165074880795 5.600620967632245 7.142872612126566
