38
Energy = -100.24535758 eV
Au 10.998775855614465 7.112839328056433 3.6256966889765274
Au 7.566908590698777 13.00980477347715 6.18362191220118
Au 7.322252602989146 10.688378065331195 4.658528968193512
Au 9.201174471956014 8.572740696705294 5.135353737603207
Au 6.801860774374946 8.18283436045793 3.6894006328086917
Au 8.765283009078578 10.64921058566449 7.016409761361848
Au 9.915739861439079 8.318603799342263 7.836103635256597
Au 10.659377787251367 6.302891900692834 6.177154539637418
Au 8.510890595621252 6.08714571952757 3.6969423771968755
Au 7.3468789618947365 12.23311133042955 8.929503296218979
Au 10.602960299923366 4.322939786042805 4.2233704646938355
Au 10.246402187289867 5.66187231911623 8.778692635628792
Au 5.721044307825689 11.140262457953435 6.981927663882558
Au 4.722040699363873 9.646555487346596 4.916657013028431
Au 6.793521572669799 8.361561127580861 6.710434403639074
Au 8.738634950518302 10.032354816492107 9.764019508899702
Au 5.88061881972294 5.470421444299992 3.206935921078855
Au 7.4201053701222435 6.330048345663911 8.414365020826919
Au 10.111573624888225 7.8351592147438 10.524987924416116
Au 7.999979462283844 3.4644571059638167 4.5118360007517255
Au 4.127354271713139 7.51616826296851 3.2819519410158255
Au 9.593118448839014 3.8023051566793193 6.793843513677496
Au 7.323504646880059 7.813245967415864 10.846256815467525
Au 8.909193429766793 5.45358834064834 11.214092656620648
Au 8.336658493435017 3.622046531335977 9.259411132217302
Au 6.59864753637306 5.686213215929871 5.954556487953326
Au 2.5994577271135944 8.029519498463804 5.517529249646519
Au 6.953596743673962 2.8284415681066117 7.008089684471695
Au 3.6303456397465634 5.458705625912677 5.086434207922077
Au 5.316383498328198 3.300467896753297 4.821895176060504
Au 6.0055862958960295 9.831583352036825 9.417076113538513
Au 4.059838379014118 9.018810462492299 7.627066065774782
Au 6.225210381108278 5.248909357171841 10.85539213695816
Au 4.30433266484582 3.9748914326536022 7.293892208913528
Au 3.096719767499336 6.43536900551884 7.682487587377151
Au 5.71508538071737 2.946263917955657 9.429686002966559
Au 4.806500679345037 7.392310722872432 9.718446295189935
Au 3.7098425803621127 4.855367390380298 9.847350988112618
