37
Energy = -97.21645323 eV
Au 5.664750046475803 10.769431507173664 10.556521532581128
Au 6.16231554445291 10.734324541560651 5.099460673052784
Au 5.398801911187061 10.845021929380925 7.794492988868098
Au 4.282971293704181 8.762214622345107 9.062296934026874
Au 5.134564403684639 8.804560176713215 3.53691544427436
Au 7.224976591349062 8.530323228102807 10.409866691499666
Au 7.973249073792333 10.769013898939205 8.990187255383647
Au 4.193451911142607 8.997978725480833 6.174932619285964
Au 8.601394243995719 10.10823958972238 6.396248695828749
Au 7.907225429549217 8.86843943110094 4.023710190921001
Au 6.702452659364595 7.890651106918727 7.6951606653623985
Au 3.0956507405249702 6.789785088148141 7.374681729010368
Au 2.794372888796516 6.743118926334605 10.09936977762856
Au 4.125606627217946 6.731787607359306 2.060536712733937
Au 3.240696080668027 6.794574491300927 4.645613692229022
Au 5.9365247649038055 6.6657580204425715 5.437456244309174
Au 6.86826461670588 6.756357358585153 2.4578608890714504
Au 5.555139464590827 6.387540402137522 10.117682835479144
Au 9.80018002275773 7.776352042428996 5.803683837591682
Au 3.88718642715382 4.4534032222645195 6.02954855086186
Au 9.441397047096283 8.44664421709247 8.520509747342222
Au 5.175518451684374 4.681621862409646 3.545185680279388
Au 3.8542872296343287 4.552407593711674 8.898020871006095
Au 9.501023221653268 6.792964412441285 3.218865103517157
Au 6.56363744168561 3.9533529030808565 9.27652534237789
Au 10.591898059134843 5.210596657014601 5.1426753498939455
Au 8.303636815039544 6.133356891839884 9.659333961160653
Au 4.803156705525126 2.394313259426217 7.6525030161709955
Au 7.841302446293375 5.442355936918297 6.865590327089261
Au 10.534701546540887 6.012707516168498 7.8761312821977505
Au 6.313701520809676 3.1056416933702913 5.476722138828163
Au 7.96671273768452 4.663569096721251 3.937512105439778
Au 9.266329542813246 3.686693841931678 8.717227502121498
Au 7.454555927304533 1.8174516848880686 7.706956743617367
Au 11.484274306165753 3.4474795725751033 7.074605546875943
Au 9.078225101517681 2.989952091894309 5.842627479402135
Au 7.305711055860492 12.519858750537034 6.852623741141295
