31
Energy = -79.79205202 eV
Au 7.826094121442738 4.1859685581513375 5.422173439763961
Au 8.622290214243712 2.9091413158109454 9.816296549088012
Au 5.806725262890497 6.252994701490726 5.225794013627444
Au 9.356989092527192 6.5293678290473585 5.7239243030485705
Au 9.19369659545087 4.708343167114157 7.762525582723861
Au 5.112830771493844 3.3785293210504075 5.674315395273889
Au 6.3245818001976515 3.7759018714174846 3.1659110320790735
Au 5.498208346472919 6.265771462813509 2.155942182796958
Au 6.8570732757683395 4.989313106006824 9.815373595790227
Au 3.356084301293724 7.473877145609503 3.4949904559758758
Au 5.83543336973605 8.764022218106108 3.5954245774962863
Au 2.3903039852593464 3.415410855177208 5.470178120554917
Au 3.747495104587756 4.705521568225117 3.5347390528985847
Au 2.939189218655369 6.052284079481219 5.907851146984182
Au 7.4963908279699565 8.012942346238587 1.5314436241672955
Au 4.207739101646041 8.594899073995153 5.844172064371341
Au 3.1583073144367257 7.541962780909688 8.179947125920812
Au 6.897351424263122 9.437113364719984 6.0383901933192625
Au 8.66190504694585 8.631641296274617 3.9640648237673566
Au 8.07974587903619 5.954633207961591 3.312311925637009
Au 5.255731986309266 9.394171395500983 8.246961016372868
Au 7.130564927259582 6.958844424632772 7.543650905749354
Au 6.828801981978596 3.0461270564185567 7.737986029479207
Au 5.2343675747630245 7.152236728748272 9.939362421751907
Au 4.884163215963982 5.252098631267667 7.841378418753212
Au 9.659931559454636 9.228888467616372 6.405157650938163
Au 8.059934975175187 9.567054364507884 8.632656397854142
Au 7.988332581639084 7.533002330023623 10.6104702921021
Au 6.250950127959574 9.60586851677877 10.782020696765864
Au 9.860867509044505 7.363023580649121 8.42915094665851
Au 9.647451200965818 5.422653388285912 10.40116947028303
