35
Energy = -91.54237276 eV
Au 11.926085630970206 7.264340940697633 7.044385070136539
Au 8.996571977991708 3.8963587432622755 7.82056544435596
Au 11.369659232352397 4.642683741310932 6.6980959345978555
Au 10.369660953622818 8.800664109335997 5.206693927806318
Au 6.400677720756767 3.544289773368235 8.698675298581572
Au 11.903609652961466 9.992562263031912 7.121464477761324
Au 11.134574053628459 6.277095833308524 4.5083905979782015
Au 7.06276935550222 3.0100355505043956 6.072799994138715
Au 10.652796804613175 5.77796182661761 9.109255073528967
Au 9.134904033991905 4.455189507812929 5.034396407907441
Au 8.356189793256119 4.897462462031692 10.304961100902313
Au 10.554170407147035 8.532203862366114 9.094673662553854
Au 9.146537898992053 10.27214401838595 7.3668726244633325
Au 8.567820085046971 7.005052186706373 3.9515893112796032
Au 8.23060460979909 7.052112079344689 8.472857520143677
Au 7.978360990856627 9.662777651419304 4.4235813715801635
Au 4.548390695251024 3.972610894371486 6.516216948520662
Au 6.536311355486362 5.175291168718661 4.440708141448037
Au 8.174909708714685 9.481132901947582 9.952901104216108
Au 5.927350375586129 7.815373337407633 3.953806839983471
Au 5.348040856822931 10.50186102713022 4.17982703047738
Au 5.748845412454573 4.761155837117364 11.110655427561667
Au 7.090802288836219 11.577550775928357 6.155089678178738
Au 6.75024107996921 8.807355328550077 6.965771205221583
Au 7.068651650921899 7.199967530115235 11.152086478939294
Au 3.962339281619507 6.08681744944722 4.888951313176348
Au 6.105923210981443 6.195343743390099 7.098540993653867
Au 5.53284826616783 9.445749869984594 10.807557782164238
Au 3.8434451118002197 4.502999720558539 9.121102572851767
Au 4.490940354059046 7.005009145443133 10.05658315615789
Au 4.412535101424689 11.232590726117715 6.6910066958408505
Au 3.893761148540799 8.684068930562768 5.728539568417734
Au 3.2880196499231222 6.666560885090096 7.538263252435203
Au 6.283625172988916 11.070560392885453 8.745876122666122
Au 4.043875998678221 9.20219773608938 8.470283623748434
