32
Energy = -82.76779126 eV
Au 6.956610401952856 6.737928391932348 7.220179801125326
Au 8.529912029838558 5.894796033001229 3.128362500512584
Au 6.908107370979376 10.346452428568979 3.362768352799156
Au 4.336099971000506 6.207917459127041 8.294382150081704
Au 9.738034104536915 6.1535211361946995 8.08190355035381
Au 10.339463243098846 4.021121966138782 3.977609846664058
Au 6.996675498170394 7.471534263054841 11.667819499517554
Au 3.129655047103484 4.924077072209796 10.367117241265557
Au 4.149330606760319 6.620756447817712 5.6384619477161415
Au 8.903898347922695 8.498153429141945 4.007424134781163
Au 10.058651029568743 3.670658820052476 9.333337561312169
Au 4.800808888376799 3.3803066943652107 8.832443520010903
Au 10.424451593559551 3.8921639919668225 6.678178421357007
Au 8.000072486853997 4.5033909282035545 5.537979625740951
Au 4.89401427439123 11.299941046275299 8.31077476688684
Au 8.620183417445759 10.81885377752924 5.489729356293891
Au 6.046048981254723 5.079107416658755 10.564541772283096
Au 5.413417543620003 4.258985933610229 6.395565024811825
Au 10.236515881370265 6.454615018211497 5.333358626766989
Au 9.234934109083461 8.506463234324645 6.77875257233817
Au 3.8973384860391564 6.870578247748799 2.9418476741436166
Au 6.5504139186970445 7.721796114783988 2.718340209812189
Au 7.456881381480642 10.256870633301784 7.916019932654686
Au 4.669318709763421 9.048778450065974 4.385000621595106
Au 4.358290724795137 7.269450108186758 10.944815245612103
Au 8.405982953066793 8.181707253806765 9.423603799526465
Au 4.975154390252595 8.729401331239659 7.2761716180921825
Au 5.91441446240249 5.252197256949728 3.893798892439813
Au 5.863220368273193 9.338303275588467 9.982493323254522
Au 5.802075611249767 11.087248016297922 5.767122793537839
Au 7.493484467806567 4.038053356928192 8.34760233705592
Au 8.729448440582685 5.6611745325790865 10.602110453644098
