36
Energy = -94.43670253 eV
Au 6.437416731181128 6.501892525879861 10.368171934285204
Au 5.682190877375363 3.975621735877652 9.921573030563314
Au 7.309113227913372 9.040125922764226 9.993179274221946
Au 3.7091463779983287 5.825331238309492 9.408044771172943
Au 4.727896478110342 8.558025512431351 9.257340384779122
Au 9.17660767901651 9.271193101895886 8.043462170668745
Au 11.018217333753004 4.902211110380149 9.330509495664693
Au 8.305951870679863 4.349832740344631 9.187173407147805
Au 9.107153608861347 6.957214541691527 9.670103293617561
Au 6.800926633463395 2.2728286800308775 8.132997199299545
Au 5.7216374582637775 6.3998609666113415 7.6401942754293515
Au 6.470178076391676 10.104414143653365 7.603089637026122
Au 3.96413207272637 9.483780256174292 6.741021664966991
Au 4.348433574488816 3.661470202262213 7.526160828753118
Au 2.679281200562351 5.658654698552009 6.756532263417878
Au 2.209147247425236 7.892502097928277 8.406709229451142
Au 10.89202236135257 6.964207522267871 7.531843103675919
Au 9.99281202067175 4.41033149087829 6.8152147694480805
Au 8.180843475791821 7.004972383873177 6.627939038815846
Au 8.452992792963247 10.683562368194377 5.750761203866605
Au 7.1981712105998215 4.395446800582443 6.34599331720334
Au 1.7469516378260272 8.099249883620523 5.750766221149196
Au 5.714885374342263 2.071987509617983 5.653836245977166
Au 5.913709872626216 6.744105237745608 5.004148320373979
Au 6.014994541770902 9.890759134072251 4.858301107181809
Au 10.44883000696709 8.823812790566649 5.623010645544776
Au 3.968474284680671 4.046008031377543 4.787836904288687
Au 9.069025321500876 3.829845453754157 4.326836298057089
Au 10.042805523203112 6.346818150952492 4.589408757897463
Au 2.6820011302780182 6.277964635170799 3.9847298306960486
Au 3.693309945531411 8.804663607431257 4.004762587964596
Au 7.801651548938275 5.989617069202391 2.906982338530131
Au 8.359265041262807 8.565320408961204 3.872163594255591
Au 6.4753692790955935 3.630580740487389 3.567548041887365
Au 5.972812647567911 8.192786233012336 2.597828301627125
Au 4.925278588628077 5.63006587573901 2.585348022384896
