30
Energy = -76.68474765 eV
Au 6.413182924096437 7.28246491885725 2.5895073086129226
Au 3.779404026039972 6.711340803199563 2.7582151385864853
Au 8.993877641244646 7.221539442356335 3.476842038053651
Au 7.350960002329949 4.71945704212591 3.5817126463550526
Au 5.492105863038419 6.181976426690672 5.084869997972419
Au 5.347789202661582 3.371414542322624 4.802261323858877
Au 2.120024976734858 7.446983017539324 4.868924251749342
Au 7.204082990317557 9.28494550894289 4.295945259254838
Au 4.535850727776834 8.79410295354355 4.535034603692765
Au 5.996057278517327 9.341371407066891 6.867476184750342
Au 2.9855072737524586 4.79466602965351 4.554057299666082
Au 8.196461427917702 6.07420807590444 5.9222283966027485
Au 8.073078409698406 11.001978935417668 6.241184756225126
Au 10.224026558413351 4.28224854463635 6.934499502274541
Au 10.93105738857285 6.398789167778537 5.33950108178672
Au 7.616503923173585 3.4129340094392315 6.412662750911861
Au 9.519124122441783 8.696963206313901 5.813147477597527
Au 1.9154502120758559 5.749556190564775 7.00743392717966
Au 5.552529483691635 1.6527127587086197 6.954876864406308
Au 3.5290685034330807 3.5594992816401874 6.93458910239926
Au 3.7417590506321003 7.802582089964487 7.099127540964011
Au 10.101513580541452 6.961960976900981 7.980899457493896
Au 6.172203340085179 6.587530900035278 7.705859439234679
Au 8.469575510911222 9.21425873739165 8.307062484718106
Au 8.272680758581032 4.885083655989851 8.765809504222506
Au 3.7213980496953067 5.655755414181334 9.042376855548287
Au 5.744710234619179 3.8078051779588504 8.599752635615927
Au 6.06634643769227 8.65331254530135 9.557961414343062
Au 8.496052239512037 7.2257523072173475 10.204352798628642
Au 6.104794758267387 5.89398282882261 10.429004853759556
