31
Energy = -79.49581033 eV
Au 9.770910925193093 5.656999208629174 8.713674653520883
Au 9.945580569176476 3.8915132367987226 6.567709413666824
Au 6.6198065996125335 2.8628522059019357 8.251986158769569
Au 7.176805543397276 5.165543527792437 9.741566137377594
Au 10.273862539909766 8.261905738586849 8.230626917141903
Au 8.098421851783456 7.748611817570327 9.94374466294795
Au 10.215859826789925 6.61093713992317 6.003761376719628
Au 7.593712520224879 2.75700733557279 5.597517143463311
Au 7.607754251503714 5.26909755861928 6.9018892398597185
Au 8.769375024447923 4.895567594612449 4.178868225736896
Au 4.555458106104804 4.450732278405402 9.129713708687381
Au 7.005242566714294 7.911011744400817 7.409140754856331
Au 8.40641283825569 10.243589107541691 8.353836746628108
Au 5.260649410906162 7.174745410175542 9.813143139218408
Au 4.8850127162781 3.0819632621177324 6.150224762310189
Au 5.8832795458424405 9.792703059917287 9.28857099257097
Au 2.843636045491221 6.6730789454131045 8.639811840287432
Au 9.130174284857224 7.6320028127341715 3.6180863461975425
Au 6.69731800523606 6.9692217717562945 4.890946154023915
Au 5.002382941536139 6.005828416050503 6.847801842447379
Au 2.5995334143824156 4.434878624138458 7.090266895377972
Au 9.248642893812885 9.235282545468309 5.8715460103754324
Au 5.977068132173906 4.18359206160561 3.810341860916153
Au 4.019189390806297 8.879082018992909 7.499928461212978
Au 3.311972393687933 4.592642245069494 4.465232983328044
Au 6.229166134855447 10.452961666509273 6.538035279137593
Au 7.11982150460224 6.222700794768832 2.2970129571283033
Au 2.783750226713446 7.093269306964279 5.605230114010068
Au 7.236709787121571 9.713139637252064 4.0931682761427
Au 4.6310034285151485 8.950098102084437 4.796284831675503
Au 4.483961517903777 6.624646878758692 3.1501251084736497
