39
Energy = -103.61511534 eV
Au 8.543855657042162 8.571863678338925 10.415074238156148
Au 7.309779010513074 8.111600000888213 12.81710307159551
Au 8.889455200077212 6.104958403874178 11.77492577764944
Au 9.858363118539396 6.34474583014123 9.211364938122554
Au 9.475708966678441 8.869738093560604 7.876397490867833
Au 10.59906617093589 6.590450832306836 6.624167371373985
Au 7.112922018979684 10.185614638985925 8.67540970974595
Au 5.692199055945721 9.020931824939085 10.762621961657967
Au 10.221604418168086 9.078682633193761 5.258116277548427
Au 4.125722910381748 7.14163932756238 9.334536678871869
Au 7.904478067294612 4.386127658725252 9.881205305236062
Au 6.153999600464233 6.276955648154078 11.034831624244047
Au 7.96105786602449 10.456264487189927 6.055547999102988
Au 9.470047959406095 4.8598049762501345 4.714351963316745
Au 9.205067893171522 4.255415772843228 7.416848311928359
Au 10.474838332106115 9.000831321979955 2.527320989686643
Au 7.103923909074998 7.09548363631475 8.409866744123828
Au 5.560161780481975 11.492376375371784 6.8172505436879
Au 4.2660102755631994 9.82059532555306 8.56500328370197
Au 5.1997837093296955 4.601057837708638 9.076403476657031
Au 6.956015513299958 2.6151967610195066 8.053923551870469
Au 7.844341609632732 7.531726343039779 5.727926626999494
Au 3.16629250114238 10.432164292505151 5.987126371575347
Au 7.929203650077418 9.5081524913838 3.425554356578993
Au 7.836938262695952 2.804110884150935 5.367574086504838
Au 11.25481018608811 6.793549951150727 3.968026727055647
Au 6.602851127983136 5.151189401446937 6.440001765350877
Au 5.190046664160859 7.572645516870251 6.519248213552334
Au 5.490132962022544 9.935200602953689 4.535413255103688
Au 8.637182460197957 6.875013873507797 2.919076150084014
Au 2.48201098613884 8.118193754833726 7.256106188436869
Au 3.231757790477253 5.521050425412626 7.215714886858297
Au 6.911766184221075 4.85092927128698 3.489898733692994
Au 4.440671379035016 3.164078813921038 6.843031947162497
Au 5.895864068728059 0.9449734951013767 6.093079059754611
Au 5.922552775589272 7.427181219446184 3.4256619334966505
Au 5.2294598568627935 2.854647748932619 4.215335307440145
Au 4.285526884188302 5.409663759130014 4.5843760666830615
Au 3.3818435830786373 8.032035009806654 4.507043532632232
