35
Energy = -91.36875867 eV
Au 4.784024027997921 10.413805025859634 8.511408925797735
Au 7.499824513905543 10.25471232374975 8.102385833848142
Au 5.058011478245929 10.093717544434538 5.795861242958653
Au 2.771116529326703 8.929331357987879 6.964345468595218
Au 3.9352589828100206 8.52547440171118 10.345260165513885
Au 7.672904490304297 10.565860071641827 5.243130852192844
Au 6.694947432645979 8.528646623867775 10.134304440293752
Au 9.820194585474859 9.586138758446829 6.709643956202109
Au 3.6489046520955353 8.192179470299516 4.3693563988643405
Au 9.130353041083865 8.024538688787716 8.95897914029556
Au 5.122295810023142 7.728755730738083 7.869046102388007
Au 6.282129921215977 8.695240163570759 3.6419995568227037
Au 2.5735930901193806 6.695933135525426 8.742631560639472
Au 4.904572581717912 5.914755044276887 10.165433620482613
Au 7.434691094919887 7.98540855442774 6.399844587254791
Au 9.118339164113 8.403622804541827 4.1916425340114385
Au 2.5854523981273525 6.257415256237491 6.026288695385071
Au 10.446114102320518 6.952970450205452 6.643723595471109
Au 3.8455866947923676 4.422978257086602 7.83994061441024
Au 9.752376780487435 5.358459162172329 8.8284100953926
Au 6.9669891412100355 5.661710112484382 7.91868253373808
Au 7.662514876161612 5.953183491074461 10.549115479517656
Au 3.791150831998438 3.9877587344114644 5.039498971882018
Au 4.921950604328916 6.22805513721181 2.9143657375025795
Au 10.391560086588445 5.950431551697145 4.026325420078735
Au 7.692633003777416 6.4662227310399905 2.7634527471813484
Au 8.056341108771782 5.461413340945154 5.396455559214682
Au 5.391899214738753 6.173868127065871 5.6161532023127725
Au 5.9927064362849025 3.5292293605184093 9.38266961762623
Au 8.3281582202648 3.151339404338619 7.960280464352243
Au 10.360802903936895 4.193887218460692 6.309210458015378
Au 6.208795404365848 3.9249912748737685 3.7584653625048996
Au 5.871413022269007 2.9671660646697813 6.581084928189038
Au 8.850814901707238 3.943975266632589 2.836991583745425
Au 8.24734164515031 2.628731089380585 5.22565868684625
