33
Energy = -84.9975926 eV
Au 6.073692766378508 6.940285502585741 10.2239097319213
Au 7.887492790127443 8.91148984735817 9.662777510362393
Au 3.843794720082381 6.1515164848519115 11.58586215523462
Au 10.540581459493986 8.281079790026395 10.52872251443051
Au 8.710245398294175 6.29886028671728 9.977967235856067
Au 2.6938244911543743 5.845365073035925 7.242374294325435
Au 5.484001211422565 9.159747099779679 8.432094979863045
Au 11.328257434048234 5.679282570125755 9.68885082125755
Au 3.452430906832049 7.535439473002101 9.326476830845293
Au 7.044435493814672 4.900109375072884 8.409466455063901
Au 7.689402651811097 10.338879202251361 7.235494999661742
Au 10.024510926442412 10.255747231277576 8.671762051206944
Au 9.741650543059052 5.385213923048213 7.481205321610309
Au 4.405183168078107 4.823365766966874 9.243718663767584
Au 11.344140884839616 7.797365011396983 7.92628891592475
Au 5.3645936898507065 10.148188098394762 5.841349622510813
Au 11.990878270751121 7.530509582789501 5.399754109600672
Au 5.352072744388712 3.6907466523157435 6.677713475187527
Au 3.266242674592427 8.543650393138941 6.869351625334134
Au 7.732897250219865 4.6452917455792715 5.75711641951769
Au 10.065906170407384 9.454722458003351 6.084584740321718
Au 11.841971836311942 6.521065293334273 2.893693429865618
Au 3.1108415923851647 9.531662524824391 4.339704223840952
Au 10.053215386783119 5.639460501832692 4.811430147399732
Au 5.413542530871204 5.358545038920628 4.388760355192631
Au 2.863209618278261 3.1452645503752192 7.7601810332010634
Au 3.706166727720828 1.6396157036464862 5.653800276321196
Au 2.9923485606847438 6.806955972613403 4.639471292030828
Au 7.7207058288989705 9.45742718756214 4.612921239472785
Au 7.6861531130224785 6.72905714157222 3.856947448902447
Au 9.923594893472583 8.290833741518533 3.5733930264330143
Au 3.04206460073876 4.154904135476642 5.034153993298524
Au 5.376065357417895 8.08040403366172 3.8637869026943523
