35
Energy = -89.64213677 eV
Au 5.360393224831739 7.560877822180143 4.880232968520796
Au 6.414457414403558 6.97307643307869 10.360481777969936
Au 6.946295272659525 1.5570638165703667 11.354999930883855
Au 7.854316243182419 6.996577517113978 0.9290478139273793
Au 7.540066063227052 2.0555784340291154 8.761853472751227
Au 5.130815460864019 6.692077748908732 7.414771714861512
Au 3.8093600825356173 8.5222844446784 2.7413981729783177
Au 5.100332995350808 10.288124026535062 4.501832324849791
Au 3.914961000506651 7.974047961502989 9.563014976460439
Au 9.66610110753283 5.025019965085768 4.767239591926494
Au 4.249196314878157 9.33736227235271 7.175140045942604
Au 9.359947922588859 3.9992930191476166 9.351980239702788
Au 8.558174787496924 9.59164641619378 7.657596599526184
Au 8.530140748593775 8.825174566998156 10.371797977900258
Au 5.297063068745641 12.821093393400533 5.2196865287530745
Au 4.9856184198755535 2.705000919636362 9.87075856349273
Au 6.131236181816478 4.2004013864508485 7.762756358962493
Au 7.765557110745663 9.443687810107084 5.034791914497669
Au 5.290462423950606 7.492973379659689 0.6109032650026709
Au 4.320570896106121 5.271340694313298 9.695177292217826
Au 7.214809933507889 5.817370681356413 5.8070468356694205
Au 8.617907852977297 3.4473845240534007 6.700442836139831
Au 6.228524467983332 9.415105317117789 9.074709442861558
Au 10.971647880613926 7.9819509249888565 11.304050563102289
Au 10.47511221339664 7.8843964720946325 8.54477319998388
Au 8.952031803222441 6.1435498917465265 11.09845187021778
Au 11.458397640729157 5.661581040070192 9.872662298542222
Au 2.6216160313136894 9.07416024914807 5.094506540236397
Au 6.459729115512787 11.146808786622804 6.91742071777986
Au 8.557422265796074 7.1586533925053475 3.5391315026949406
Au 6.993442806728935 4.30636000153504 10.874084661796326
Au 10.633270488700447 5.379101983215961 7.281236148498008
Au 6.621912607398615 8.835520504572294 2.6182795958890765
Au 9.64917681270548 7.6644424075261135 5.984476877728571
Au 2.672793978151745 7.739583935877035 0.5003637924891233
