38
Energy = -100.26038595 eV
Au 5.172233870193581 7.9884206797852135 12.822848708410516
Au 6.569237448958262 10.044734518869335 11.445745389664166
Au 7.195875183944278 7.294534814058674 11.11816605567814
Au 9.188600020537116 3.8244323902832216 8.82142037266987
Au 8.338688032334993 9.191311937157863 9.432804110845629
Au 9.131522728797274 6.519236237976893 9.335955483704232
Au 10.128820507128655 8.406500568073568 7.52820518188624
Au 4.612988475503595 5.975226553658478 10.987297633746584
Au 10.721459228961193 5.430626597281481 7.2280103514700595
Au 4.581682079554577 8.619333404659452 10.21431715474183
Au 6.022095805240502 10.467376747938552 8.65496342209711
Au 6.915606808226324 4.857001525586584 9.935311556967132
Au 6.312786023452476 7.806176347934848 7.708099507013557
Au 8.040076819844243 10.185183880169156 6.8141616981401665
Au 11.192195465748581 7.286304509686461 5.271791102116665
Au 8.803193188688807 3.373679089600831 6.166971820624767
Au 8.335699414989497 6.412816656692563 6.418164769192737
Au 4.376350458972269 4.1846978529731915 8.864276212774271
Au 10.082678369530793 9.80279052537243 5.076254855278596
Au 6.703959050655311 2.8089967327764067 8.103981850900789
Au 5.367838328226178 9.972825397942648 5.8991468239904
Au 3.566852581850021 6.805570631425564 8.437082429807846
Au 3.502343288333514 9.589277941952153 7.901632884413507
Au 9.837488974096924 5.134028829409496 4.321411589925495
Au 7.458604506649397 9.724673849708088 4.129864473041164
Au 5.926670863981523 5.167889380509547 6.8056117977120625
Au 6.20538210040855 7.107049536238803 4.9099621625181635
Au 9.42038510161502 7.835307305391158 3.228006532285515
Au 6.48543974508448 1.95409076133811 5.581472883034842
Au 7.5318096098723855 3.643527560661214 3.697366755776391
Au 4.582118668583231 8.734476857051636 3.490447720765931
Au 3.286417774141172 7.8884969547787644 5.8383231529587185
Au 3.4694711583986755 6.0876998458348295 3.847933255930529
Au 3.1458215606191535 5.023354613721303 6.418909155969166
Au 6.852033206070658 7.929701382129405 2.159447015161676
Au 8.391581827459897 5.639218558724335 2.025569170880089
Au 4.748733521117029 3.736978688492671 4.558546382980436
Au 5.731047180139127 5.400860359789728 2.5472954159841765
