37
Energy = -97.56779912 eV
Au 7.2848221495146435 3.9858804030112354 4.120431394647449
Au 7.677086548297431 1.9506373908656431 5.8904543549723725
Au 6.912914176131153 6.102249507970761 2.490988637526269
Au 9.34641944696969 4.072597903651159 6.199774478493115
Au 6.310949822897844 8.529176123400827 1.1763250236023555
Au 4.311902143509803 7.17217337685088 2.500335823466176
Au 9.075530532267265 6.146055241920359 4.315999334144098
Au 8.138916421552217 8.583598856493985 3.162495091867749
Au 5.4014672676948585 9.467489905974544 3.711956391513435
Au 7.625206586584882 3.0331280650422174 8.52703894410503
Au 10.771996999101958 6.332354554971935 6.617972860980547
Au 10.041549618867407 8.676928439148947 5.054208659065871
Au 6.2533642631569455 7.217266651402506 5.1487214410850255
Au 4.6203453757950825 5.001868416509287 4.095454921742389
Au 11.953678162656251 8.842322313823713 6.990198389758268
Au 8.211618216701295 7.4992533901926235 7.069907131223382
Au 9.50393562728239 10.107546085648698 7.4092777429663315
Au 5.050364330091394 2.9476440022924857 5.817059886605037
Au 6.720106676251429 5.089638565875459 6.799413527101081
Au 3.4205880316488537 7.498040055765902 5.052238564484783
Au 10.353891271702247 7.7802132801235375 9.017767088982774
Au 5.848030105384136 1.0334164707920237 7.735903494745133
Au 4.8037125699719105 9.628102172148338 6.3813183546828585
Au 9.12338634451244 5.295912641985213 8.80004723592968
Au 7.479562009883593 9.992446936496494 5.508652809795106
Au 3.5907926362638265 5.182131740654742 6.684609124767434
Au 8.899292557057333 9.95172404819439 10.087648841114087
Au 5.6235360408543364 7.334214489301849 7.9775896093915435
Au 4.750697214065594 3.368498210569525 8.592442949615931
Au 7.90233584017076 7.444283782816344 10.220494173628188
Au 6.464497934491636 5.140046240786765 9.90080952036587
Au 2.781894378554795 7.726420385352142 7.66621063871694
Au 4.349381325588502 9.639988631814546 9.10547023399284
Au 3.611771115357727 5.647559128034075 9.447877444839815
Au 6.859131241050662 10.131602154259946 8.256933352461193
Au 5.279889570711778 7.518525266915987 10.802913419187373
Au 2.5726846157367604 7.996199348186551 10.444174220001543
