35
Energy = -92.11318482 eV
Au 9.891370218507173 8.759303098219876 9.04924488296942
Au 8.523803796866465 6.761960517871856 10.397266393273483
Au 7.242692094427394 9.114592212737907 9.647104243749002
Au 6.057390970749624 7.283458320709651 11.451968192030712
Au 8.231421841684872 9.874900180156832 7.165596977167092
Au 10.421268604600009 6.120964431046434 8.493009353440259
Au 10.176911279644754 8.037365192165616 6.412668511840508
Au 6.315353962978594 6.460223381445328 7.997207827086123
Au 6.347062920184752 4.8162450207432075 10.288240361446942
Au 4.542227744168244 9.149883460804654 10.130760504882495
Au 6.388973674826764 10.519791528671112 5.243203314396831
Au 4.037418171875695 6.414104355913607 9.747588338165265
Au 8.815143525296312 9.379710775082025 4.423937368909786
Au 3.275338602525995 8.38276532953903 7.856295205197604
Au 5.52006425252826 10.183656937328587 7.78873450909045
Au 9.039293363082232 4.133925980978224 9.90755061352469
Au 7.072211352118679 7.4840986282943724 5.669672331089466
Au 6.989111917651764 10.439001481308383 2.5651531061841437
Au 9.428035759844876 3.777183602648396 7.24531451954842
Au 3.696687699111095 9.981086229030876 5.704596647440868
Au 6.959610293110769 4.728405146630344 5.94613632942193
Au 7.065775707198216 2.988129540869244 8.338796242303127
Au 2.5054331121785838 5.8077124506650275 7.512997925185235
Au 7.2931846787414445 7.716263769487352 2.66443776057063
Au 3.3133420571746766 7.26333211491803 5.283229547482967
Au 5.097748580764182 6.052175913948551 3.5447206422454345
Au 9.45394425082672 6.670127029655665 4.076986479720793
Au 11.134824133638828 5.492713139813489 5.921359878167644
Au 4.921490728915179 8.76685818198569 3.5842275682142954
Au 5.354461115103849 2.3395202193601152 6.345412412364617
Au 4.496460467713388 4.079484027716829 8.305901943763198
Au 9.296997238811878 3.888420822659428 4.5588081189261445
Au 7.564939608931709 5.033406752338856 2.8166200606247536
Au 3.870893627386341 4.558221633310649 5.542911119492894
Au 5.70022410487638 3.344932080260769 3.817047498740531
