35
Energy = -91.04630408 eV
Au 9.324227001151195 8.824679947160869 4.178044105523225
Au 9.228962628040854 11.587776162168723 4.533216672364125
Au 10.494201929609789 10.06038842512916 6.433385883843823
Au 11.041660590342664 6.179264957037765 8.3271550863629
Au 7.7200415200761165 10.324803779251104 6.558524908782175
Au 10.912548294762985 7.432891533034558 5.942197461257884
Au 9.425523934017512 8.473088501938053 8.340468621523398
Au 6.973122439556771 10.354581619718926 3.7740601339540247
Au 9.353875963704434 3.94756455084324 8.126146741903051
Au 6.799553362901111 7.799819678615923 7.30829500959889
Au 9.083378834000905 6.097317307841418 4.199911085318184
Au 8.782244590059268 6.207005426414652 9.839311261777585
Au 10.699858840127643 4.717775231571371 5.914717390893676
Au 7.1918614764286755 7.598630530329841 2.9319138641809293
Au 5.043420013910132 9.846107240707845 5.648005768625294
Au 6.836875904790043 5.0842441462023595 7.774744436811443
Au 7.224025631423447 8.490490963511402 10.00456023175065
Au 6.4283728864526894 6.172580086614316 5.235201071145718
Au 4.756697352271856 9.015957747118824 3.003862585571085
Au 6.172621864672328 4.001578899375792 3.5957099487257107
Au 5.633462900759488 10.087331128019203 8.366167101400139
Au 8.176294055471214 3.717119328389477 5.482930111313528
Au 6.1497319392559975 6.086851005743684 10.785668460733518
Au 4.453167661650649 7.924339744849174 9.628944843503305
Au 3.366077755630138 7.659457831763432 4.936136027304327
Au 7.561396134687162 3.6809496895407645 10.115613982036326
Au 5.149467100109322 3.6005453932645977 11.442491455506369
Au 4.3392515592915055 6.356166456950673 7.233988776845415
Au 4.756622829415696 6.282709540288913 2.8294657942888572
Au 3.1510151702898157 8.891665186434459 7.388037062316376
Au 5.5101670186168645 3.1232228164849283 6.114209606099163
Au 3.67180402094723 5.261341353421879 9.699786634800882
Au 5.177893150978725 2.952682503368968 8.790875844453685
Au 3.6691789797667504 4.862933143637933 4.881446565832631
Au 3.0117086406526328 3.9076976905163043 7.347628599573266
