39
Energy = -102.56898752 eV
Au 7.001704641688607 3.200984972698095 3.9125017030554674
Au 9.704738063079146 3.8363559111288006 4.453194611120935
Au 7.317895400615981 1.6459998425730245 6.195700315801333
Au 9.886916900994743 1.3297042914356936 5.359204316496069
Au 10.221878377432265 6.500568859383268 4.642197158437105
Au 7.855762274565975 5.771103046816676 3.4193224577324965
Au 5.06220956060174 5.070139882788332 3.295990258111125
Au 10.550216349931452 5.324931196966697 7.263169344037056
Au 7.855658594975051 4.882548473488164 6.3429817641318245
Au 6.511226445291137 3.2493076259326976 8.337521191444099
Au 5.090856977066466 3.1593684395092065 5.912776043252804
Au 9.344675163909464 2.9035600854832944 7.621807398018353
Au 3.044506843055984 4.828218980769246 5.335755745644142
Au 11.113097817733747 9.160925518697168 4.405519934075592
Au 8.582127070064857 8.474076980382037 3.574505451803358
Au 11.660066574597968 7.728992825168334 6.704321412754456
Au 5.914565652347386 7.711022966662865 3.0608818636720905
Au 7.800552374343093 7.628669476149763 6.234974605761402
Au 5.544057724514175 6.175199805445064 5.7200590296089135
Au 6.789403355427589 10.365395755668057 2.880449315676978
Au 8.501819875772249 5.100380153763777 9.173833639323252
Au 4.142852453866713 4.669092811538224 8.032750125355784
Au 9.660654924913967 7.640699433412862 8.641956468289159
Au 9.685398874560432 9.710721917814151 6.67070756030947
Au 3.405743916283708 7.408802363221422 4.345123630710349
Au 5.75625797550343 7.308589215877786 8.125827068479117
Au 2.831468268581479 6.941915416697058 7.1414780676285075
Au 7.257585581825839 10.393020030607737 5.634252564175727
Au 5.903454672921639 5.1534791653865115 10.187945664792123
Au 5.064327473451667 10.136138903383989 7.340199787506499
Au 4.75038717586652 9.838916830196506 4.539155156720185
Au 7.53337089724665 7.479093462016838 10.340742938916597
Au 7.598385822671662 9.61476028439577 8.400069237071826
Au 3.49473577620912 6.719407320925046 9.802181759099822
Au 2.6008927465029164 9.442317595027669 6.098436520029746
Au 5.408583107537171 9.39607142409203 10.031684326702335
Au 5.222008859546424 7.226390075084519 11.88333665792125
Au 2.8229994248020733 9.327691247453211 8.797093840192357
Au 3.090407159672453 8.995179496732336 11.464533757964842
