36
Energy = -94.10437412 eV
Au 4.532380917416557 9.45455258405898 4.675396353161802
Au 9.880056664656575 8.099318595510333 4.217588410001488
Au 6.9490664405089 9.590162765790115 10.947112132737564
Au 5.447615480513246 10.842214133404156 9.05373552901381
Au 4.683883249695666 8.242441374175325 9.744775414596177
Au 10.788987008202247 9.806029833576106 8.340837287223266
Au 7.036416545281632 4.189700854150634 10.666552929718964
Au 11.804206599802265 8.74274469738895 6.029198798319707
Au 3.3547663722640846 6.801755228797739 7.811364408871544
Au 5.264466889636377 5.898708075695954 3.146500220097839
Au 8.136857805065622 3.061328846954845 8.437454528090385
Au 8.257857280862385 6.1078045218872425 5.316090030672128
Au 9.113768368384813 5.543760825003897 9.483506343649193
Au 9.232000756557538 8.262305546276394 10.062145562343986
Au 9.170969693903446 9.981933735982722 6.090798527550434
Au 5.037488230722769 2.756453461022374 9.46493472612086
Au 8.104786051132788 3.2208054623369695 5.659353158042971
Au 8.147659515344115 10.505010926259459 8.630410541272276
Au 6.704011820842878 5.293272878776314 7.5901472671741566
Au 6.896224283755475 6.887398159504213 10.725355147409747
Au 3.4152120280897185 5.80480872699808 5.256033751342321
Au 5.528546058806719 8.507113395232853 2.2936415913864128
Au 6.424107583692316 10.423817890756746 6.453638512187167
Au 4.639495195478398 5.472726714231991 9.859873831729972
Au 8.035927094149805 7.749469465574379 7.5337751575103855
Au 5.942627441554209 2.073411383851314 6.99297997288617
Au 5.709719623781471 7.359234809535046 6.127995074557154
Au 3.9312544952610184 9.384642621497528 7.310113178802094
Au 5.444325511875556 3.861665256461824 4.964502246545561
Au 7.84996996172404 7.067547580397811 2.6928753376840913
Au 7.592387284749864 4.388343296244252 3.2428081568422336
Au 7.365141659823772 9.411866875371208 4.104401028864761
Au 10.801362649119001 7.0631711824256 7.920787887099878
Au 3.0610519453047234 7.573299488621424 3.272944249027563
Au 9.989543672072257 4.664749177861849 6.999726285233784
Au 4.018803375691527 4.165425519670402 7.3543280671862385
