31
Energy = -80.17404054 eV
Au 6.8795040318013445 5.527567881798319 2.7391126964584194
Au 8.952666585320207 7.318892280088569 2.8313486597880253
Au 6.5130227520390065 3.6992866148684755 4.713377311992121
Au 8.669287003965872 5.449117463887138 4.926156271878147
Au 8.632579611662562 9.771901461867412 4.050805492096176
Au 6.420199049276613 8.159107416218129 3.642751516098048
Au 4.725900862248813 6.073066601713746 4.370741505723644
Au 10.272142720942108 7.648733919468794 5.216343943890501
Au 8.133968909382423 3.7375198719828804 7.12292408864313
Au 3.808807064507525 3.8382344549306957 5.68303245028648
Au 7.431098182033729 7.859932163281024 6.620358696386292
Au 5.737750074485323 2.284162690225948 6.89496077285164
Au 10.81472371169536 10.375503688675424 5.563309306124093
Au 6.179983214751203 10.618414078184996 4.9310844211773315
Au 6.05147711534784 5.581948442742782 6.92108628388526
Au 9.685578776857483 6.042629549936 7.4196380962440545
Au 6.539553439330083 2.989863019702998 9.38258126139586
Au 8.306616168680353 10.60444107365148 6.77907380760788
Au 10.339229604440353 8.804087825247798 7.724201489978472
Au 4.1219148250753594 4.089417369547634 8.438543535000143
Au 4.433311260581893 8.577562008584136 5.500056352108872
Au 3.264408624122583 6.3179530450649475 6.739583054043705
Au 5.628357252115964 7.622280427580071 8.953239443676924
Au 8.23351812455433 5.0619515927997085 9.607276759879916
Au 9.78970470425119 7.292526948811097 9.872233956274288
Au 7.911911457751162 9.25181063806052 9.181085712664977
Au 3.2864904215888227 8.802450698860488 7.981707141657845
Au 3.1655596632184966 6.444643597250805 9.504528510459313
Au 5.71362780480519 10.085341430702023 7.589499155045236
Au 7.330231772996069 7.2820294567043895 11.131802442293605
Au 5.524777811428813 5.287859011197264 10.527453252116322
