34
Energy = -86.96787711 eV
Au 8.634939489948257 4.510094539051248 5.9060237799757695
Au 3.633830139907411 8.84155348308652 4.239251635093602
Au 6.557718981505862 7.964419236705448 13.217559409993067
Au 5.54187883666664 10.821195322862721 4.762140418487365
Au 4.734369883630939 6.863052635199058 2.6673946350834
Au 5.738975947746147 5.083020633194402 6.372236218655855
Au 3.856308542416259 6.63294900953988 7.674640074148793
Au 6.622153966017505 2.77067104539787 5.015301409164699
Au 5.3828358618716585 4.942139551897177 9.104043364777306
Au 7.153152590082569 5.619759275278091 3.8882778188438056
Au 7.691070647685908 8.284658675384806 10.859069514222902
Au 5.249433479924667 3.5153632006079722 11.432609315415903
Au 3.3660862800021953 6.141230705430681 4.996474599205253
Au 7.891919736548531 9.205449134410808 4.080465589274428
Au 7.673798695960492 3.6681300411826023 10.261653513828726
Au 11.259512812800812 3.997636353469633 6.35130301730605
Au 7.21026348972006 9.826953560878188 6.837379520917686
Au 5.627764974322409 9.473646343494176 2.4847682947130387
Au 4.650177054905433 4.243967050745607 3.673518787570297
Au 5.3651172600192965 11.87945998833437 7.179816086239387
Au 7.625035292108318 7.153282593931621 6.0640082297812175
Au 8.954420064883545 8.478644589916398 8.514668562450515
Au 9.002675884287019 6.065571313017328 9.834394270100594
Au 6.283984439554601 7.622617685675502 8.54040928652276
Au 6.3068579463250884 2.58007257884313 2.330002091866942
Au 2.0416786101494138 8.158083581683146 6.3581693624214335
Au 9.60688720941513 3.7811600279704978 8.452726214368743
Au 7.034709381498429 2.9128963114098143 7.682746074970743
Au 10.32183043169904 6.387039484809897 7.328942217610193
Au 6.576352218737324 5.8556413484521785 11.608419617600722
Au 9.858743914585604 8.786301476250028 5.972864340941907
Au 7.455482001876394 7.555781362285379 1.893004555573657
Au 4.488230968231934 9.273978894491897 6.976028923423709
Au 6.376801386014605 5.102839327938907 1.3129794601189115
