30
Energy = -77.20498328 eV
Au 3.0647128514648925 5.149069255472919 4.219635434404435
Au 4.677916238774641 3.2237184365902842 2.954727215471546
Au 4.984300573157317 5.881637663845804 2.372543393589922
Au 1.663685200423203 4.143642919655326 6.406083836727202
Au 3.893892882081066 4.026565118846795 8.064796299685607
Au 4.4019603902918 7.570815990416861 4.483860892031123
Au 6.335413256991364 9.511440271713429 4.96112879038888
Au 4.734565537991555 8.570164711938855 7.066474441725818
Au 3.8163345394267787 2.7245488110781326 5.534266495368725
Au 7.00294826182578 4.495824405526528 3.7547441879526144
Au 6.352270756370172 1.949266682522358 4.706609689866004
Au 7.070593359718793 7.288084445540826 3.463134773827891
Au 3.151517043260992 6.379042240483921 6.723898225235744
Au 5.779950307924951 2.1110047594309003 7.401706872364991
Au 6.507990555714213 10.594908517796743 7.579016169830468
Au 4.677149364561872 6.48698147600917 9.090757488298387
Au 8.356447234542582 11.226887618856031 5.628305015771909
Au 7.880395712937238 3.573902568249999 6.275394907371349
Au 6.029698231755039 5.9936926387367775 6.263151157498996
Au 7.717184918747146 7.923174389773574 7.185652961074084
Au 9.106188556807666 8.681573401212717 4.787419913202871
Au 8.791550019812961 5.951178037613462 5.241174241137316
Au 6.5656488240662965 4.440835726043264 8.641371232754906
Au 5.471927655536832 9.028264765745874 9.694568046519636
Au 8.143894211605062 9.547397131918967 9.588887465555889
Au 9.102092104255442 5.355230873862611 8.03639237851048
Au 7.350577611977692 6.841802256754988 9.815516648387604
Au 9.839151679677327 9.7512597771775 7.382813176120991
Au 10.753747724608825 7.225486163265037 6.632864496747932
Au 10.036128143749279 7.596536828791384 9.28215190141129
