33
Energy = -85.4586463 eV
Au 7.141492260480408 12.027765960050893 5.956316545754874
Au 5.410355311687711 10.346119094478585 7.146069748765292
Au 8.48484270214644 10.331492074748757 7.704502592053409
Au 6.407413325874326 9.8685080851002 4.334680479537962
Au 3.601607354351296 8.789705568709747 8.4238058341288
Au 6.631664480094539 9.027889387097112 9.311292922889894
Au 9.120419866003019 10.394241081618992 4.940128212685146
Au 4.217611191598088 8.499514246739826 5.335452481093783
Au 8.669636207738773 7.959874075498433 3.8125979304091846
Au 7.340601259229508 8.129830660713266 6.3966532760658525
Au 9.317084896822138 8.11943694039971 9.003556579967444
Au 4.830622155559038 7.37322483272079 10.542807572199244
Au 5.841116874743776 7.431570975037445 3.29567863668112
Au 2.4415628167736783 6.858547866088964 6.66809497822053
Au 5.238715242295919 6.791957989532878 7.54675886953865
Au 7.385994800508489 6.601812416905477 10.653773486162015
Au 10.197363428476908 8.246471961293336 6.217736303264859
Au 9.87816078871472 5.681476192750223 10.145065846781035
Au 2.9702577121182347 5.935399653936679 9.183851566804902
Au 7.834747491856392 5.86533039193393 7.910828965974105
Au 3.7503631578654666 5.741170772770098 4.611263446477565
Au 10.78173990711447 5.98562368615265 7.576440758008323
Au 6.5748764704269504 5.642862043974256 5.424451666228017
Au 5.445136301702462 4.761958970784137 2.721097667681269
Au 8.064963151280537 5.483141674640504 2.9165546795199493
Au 9.728403321716026 5.624190133817986 5.076595933564429
Au 5.424115283720355 4.676038178476818 9.565485608965158
Au 7.9750553790142416 3.6754184852607246 9.627702450027709
Au 3.8528444837665483 4.272340200553646 7.145240538607364
Au 6.490504351679849 3.1800388770414894 7.346430918524143
Au 5.0959348158306055 3.1826897705799904 4.980194547976996
Au 9.313986157388177 3.6295939418499166 7.086456520977625
Au 7.891067161709419 3.310189289869843 4.7549076861143735
