30
Energy = -76.18680429 eV
Au 5.414263723556861 5.62335390690274 7.820054042551059
Au 7.546016057919461 8.8118046115891 2.693179479891578
Au 4.207950850081102 3.1194580685546187 8.73251448183706
Au 8.878563200181725 4.239559342319951 3.2386359486834295
Au 10.118129239885889 7.655509500761516 7.310073506857593
Au 9.487932983098485 6.948779502065313 2.637610894243911
Au 8.227923057402984 11.141293038285406 4.044382452617636
Au 6.405241815575695 7.300655924008209 10.139837662049986
Au 6.960616344379957 3.140899222455195 8.022146827580801
Au 6.113797640977451 2.5335554939501543 10.594225032176045
Au 5.097504247366485 2.5482344893221067 6.082578425103788
Au 7.145680220734833 4.224976953938575 5.447476769236556
Au 5.538769332823272 10.529275315629139 3.620682522849064
Au 9.321725960501775 8.771499692083976 4.918851924522919
Au 3.137020895617434 4.440074753816415 6.640782914029077
Au 7.034632309073479 7.1524458843740994 6.15627577581485
Au 4.036217915648137 9.07273141842578 5.379580702919171
Au 4.914566718435784 5.045213212193458 10.664570317415487
Au 6.759854448939407 9.952194838564955 6.026968172677992
Au 4.948521451648301 7.9035655080167135 3.033559899560801
Au 2.9905572446327318 7.153229416208018 7.020569455032549
Au 3.6644331959631673 7.244991703762472 9.66952568866511
Au 9.50987774846533 6.018399249739661 5.197696300381445
Au 7.656563821305748 4.813674627197964 10.310565697199898
Au 6.886971643218999 6.066401764159025 3.3141653961188817
Au 9.172057182567062 7.053504402994548 9.832196927212463
Au 7.870442894711212 8.895631370651417 8.280483203764529
Au 8.581356996110678 5.315783053600059 7.717949229804245
Au 5.152768323714893 8.699349129499291 7.901712954384505
Au 4.64177547097958 6.0056875404488235 4.972880330336404
