31
Energy = -79.22063998 eV
Au 6.318320082001741 7.881826949416498 10.90415966498953
Au 9.329172275312368 8.154946917206944 6.558250435446548
Au 8.08350619703825 5.808405698377414 7.387949323355244
Au 7.39708497588604 8.337976140468085 8.412905543281726
Au 10.977533225825482 8.11121461720918 4.429646382131747
Au 5.522977178079639 10.438342962964526 7.704050662539724
Au 6.988291457722282 9.346458133094696 5.690945896512807
Au 6.249826197915678 3.604647416881584 7.68259496315741
Au 4.45907062259094 8.301335308358167 8.980085167503265
Au 8.384026816725362 8.161238601731595 3.6617751777970824
Au 7.813512949608451 3.823051055952702 5.389252203398927
Au 5.881124730271866 5.894479959372692 9.113736824548274
Au 4.4711488298336715 8.343352178893895 6.213267174087088
Au 9.576684384112857 5.818203701876886 4.961079463532445
Au 3.1398662075220747 6.3685401211561015 7.603031350174435
Au 6.987368930430812 7.474292618741824 1.392160543416657
Au 7.581203229511242 5.417044500116284 3.135281418253554
Au 3.7790038186993837 4.0918378720089414 9.030664102539362
Au 5.668179971411831 5.763338161060055 5.987560226778657
Au 5.662403215848689 7.613544239707202 3.841284788141709
Au 6.191346305562846 1.6760874072328664 5.69406396494848
Au 2.4764450959740696 3.951568073866339 6.556293647495621
Au 4.013063780692511 1.8826948903214993 7.52574538560666
Au 3.291582262773855 6.284114852112344 4.71907845367001
Au 5.89108444853079 3.2555404401956665 3.4697693764701953
Au 4.221252536049781 10.438342962964526 5.890356779006904
Au 5.109902278267735 5.568976535751041 1.9134279549807633
Au 3.5057407471295337 2.081542541591236 4.622695289349536
Au 2.401747520326866 5.96162912503061 2.112438633681767
Au 1.7080028141043846 4.131376192589451 4.035083908447566
Au 3.546958651258134 3.3503269789181536 2.157934561782034
