39
Energy = -102.50945714 eV
Au 10.247334341423468 2.977451493225001 4.4344538507538465
Au 9.354143374775829 3.3302228183830622 7.023726225846936
Au 10.667742046956674 5.55350902330719 5.147112321853031
Au 10.495333887022545 5.676940854731372 7.994016176450617
Au 10.760820219885574 8.018795524312726 6.244831814825302
Au 11.472824359870579 8.072700809485747 8.87423573728878
Au 10.409089877749006 10.412064501210859 7.702183852235223
Au 8.726144402582193 5.05338597378559 3.1948063507729585
Au 7.506221422852957 3.1541626841935573 4.848252706200241
Au 9.16901665676026 7.732908756384252 4.044986527929521
Au 8.305168738009412 4.510535348415794 9.311930736662667
Au 8.030830353130991 5.696728371360729 6.216964278205125
Au 9.471872995563663 9.568356636551684 10.175950247299491
Au 8.667236078143933 9.919194398013921 5.6899232549228955
Au 9.5408049146316 6.784768537628161 10.435353459555735
Au 8.383144209429 7.840680874815729 7.97029964910929
Au 6.535929813175007 3.367839971903133 7.530744313397176
Au 7.2648001465091605 7.150767914102777 2.1412070543493065
Au 5.999447488512706 5.327915174500169 3.752524405927574
Au 7.6147891713155476 10.581517994832348 8.287770499251321
Au 6.428427646331619 7.872746048832694 5.871341623671443
Au 4.852827764385753 3.4733467765389863 5.33052773801562
Au 7.077220936179624 9.541249743225086 3.5024617665634694
Au 6.024198060780876 6.291978338684727 8.067669527460371
Au 6.9342961576123185 8.765949218953224 10.430116190487007
Au 4.517848536950072 10.569664648038996 3.6937515669797514
Au 3.8297870821085427 6.067393440132861 5.41596700152609
Au 7.041339560985879 6.099317233895326 11.20283948982575
Au 5.985062944431542 10.70940510626952 6.055363180792458
Au 4.833246045690486 7.806547001406995 3.4922691970501725
Au 5.414096198820651 4.29114593144537 9.948826806733749
Au 3.82343775983446 4.246798275575813 7.678998085786583
Au 5.181004748271237 9.244528790916464 8.329957282813188
Au 3.7185961189668886 9.027612986937232 5.848853806748219
Au 4.659745253410937 7.256050085157068 10.357645490130066
Au 3.156727570599622 7.450802792599104 8.04958986683518
Au 1.4356635703237652 7.451415152514553 5.766739836722037
Au 1.3726823029341042 5.462145285115705 7.567748122211171
Au 2.7483309508601206 5.338107467186422 9.996790772692805
