32
Energy = -83.05076651 eV
Au 9.490371934715588 5.3213811980951 8.8327942520989
Au 10.710204375614095 7.6541022546510575 8.037024719150278
Au 8.25916011580004 2.9145841355665207 9.403369121566529
Au 8.006932251846408 7.71757598284951 8.9170697388567
Au 6.773317279398437 5.306357050354005 9.371953769031983
Au 10.811542398892112 5.489176001153034 6.288705243710291
Au 9.121494196950827 9.84180708176131 7.492529470042093
Au 9.717390719949286 3.0880849164305455 7.091436297146902
Au 7.037846835012051 2.5516267042933096 6.8264082691487
Au 10.25668296709746 8.316584432726746 5.441690502094327
Au 5.208288838514034 7.565015788333524 9.121510133195143
Au 5.559959013186396 2.815019752789797 9.42528272122782
Au 6.5408557805989656 9.956133562111503 8.312873973327752
Au 9.829462805704106 6.127354324538534 3.822840663974235
Au 8.431318461041505 3.9769599508854716 4.86640433545883
Au 8.148399610467553 6.32540823690471 6.43025265563
Au 4.069312549360415 4.972846115543136 8.634699007639465
Au 4.315402188977925 2.7131384168530195 6.9769133402491
Au 8.590222120786104 8.518775978549767 3.2916175081319268
Au 7.087834139426556 6.076278895409975 3.599636758723575
Au 5.6529148654507955 4.04256609840087 4.949880978028126
Au 7.0726812450084635 8.909012628225549 5.722355678026758
Au 5.4756586157822715 6.507111020026635 6.5106850618061225
Au 3.8962645141831294 9.732840029543297 8.065533043077627
Au 2.8411992339143692 7.166054720976287 7.617367422482676
Au 3.038125052890392 4.863129532245578 5.936351185098946
Au 5.923521227183233 8.538581762561066 3.093794107131698
Au 4.377587214853715 6.170935917446458 3.8031099900609338
Au 4.311476220528807 8.962916060187998 5.388543436170637
Au 2.0197833124514406 7.190909339173029 4.910912326178739
Au 1.6996652944980584 9.400392416483506 6.478632780024957
Au 3.241299635095744 8.433535478311347 2.786497556600528
