34
Energy = -86.21218912 eV
Au 8.108753675333162 11.332722440557976 7.744817893803772
Au 8.463573805945089 5.602203615244713 3.1931135605232317
Au 3.744192683557362 6.217130681179469 9.236174574280874
Au 8.454254399751528 6.865813037031177 6.938903706416761
Au 4.513610342927525 8.241248697946128 4.783763689598345
Au 6.8665698487543505 3.7415393243587025 4.416068227385315
Au 3.8803505299143826 10.544636505446253 6.164198784337254
Au 6.497149095388005 9.710258441866799 6.12509086321695
Au 10.320000716787147 7.204267727814435 4.8465736525419825
Au 9.470989550800391 7.980245271924112 2.431280061863708
Au 5.489227787883822 6.002614015596795 3.53493848232334
Au 9.457946965585187 6.869419180503094 9.571555571008647
Au 6.6044894814831725 4.213243194290798 1.776535042603857
Au 11.977256528863334 6.10407705464428 9.761175113500917
Au 1.4036425044334861 4.575361612365214 5.381536582698947
Au 8.619848277845318 2.1056803042203978 5.710381309007885
Au 5.816409267490663 2.139299758741454 6.330361598330729
Au 2.8146584388594813 6.400688033378679 3.8318763037789636
Au 4.0974703789798 4.199374350627596 5.463343311276625
Au 7.760396624040744 8.893499716580402 8.968279877873897
Au 7.605687939892501 4.213463179950875 7.187150751770658
Au 5.299571885184932 8.317697662180663 10.089134851779534
Au 9.804776841744651 4.567867635196813 5.562475189244293
Au 11.170794425398004 6.398625534111022 7.269679789558353
Au 0.4902338359699967 5.381490587484844 3.051799171377231
Au 7.4689906074354475 7.882367067979168 4.413259229347293
Au 3.3336569725664296 3.7223078714360947 10.257626404077314
Au 6.783627400010496 6.197391487266572 9.089400354401958
Au 5.79025906774907 6.292122450899429 6.372557946086877
Au 9.250197388694165 9.40061502150193 6.224247942914447
Au 5.556138119464045 10.614505163513291 8.564112867677371
Au 4.073114855767263 8.277715869851338 7.599057862705227
Au 2.392950498398685 4.135124585638609 7.75989365937414
Au 5.132196568968776 4.071415525569204 8.22603528028921
