37
Energy = -96.5710708 eV
Au 6.272442425837528 4.0134621128179795 9.867394850073628
Au 3.581616625004365 4.235868592832596 10.719602628883784
Au 7.75496118857931 6.386089827988629 10.166316467634887
Au 4.996374806454804 6.552225922844067 10.41779149807589
Au 8.662155257838462 4.212528624990016 8.552371602793626
Au 8.977046580714369 8.851240349879513 9.901984007617001
Au 8.952933037305053 3.011849634698781 5.848634419465817
Au 6.210853576628626 8.91757588034652 9.883520103515751
Au 4.12798336115788 2.839032666004702 8.38741123444556
Au 10.169566874541932 6.620959698796212 8.82681784040368
Au 7.678646084937048 11.241466286228329 9.515046223200622
Au 10.888983945615113 4.647583627029059 7.009713041612604
Au 6.16298453567573 5.827416429497251 7.7296450929590215
Au 11.03714263134495 9.271005726822988 8.150215133154633
Au 3.324359587568936 5.504906815425516 8.282038814881053
Au 6.5738180602512095 2.9142259385077516 7.1873605924174635
Au 12.093853407999339 7.138133998168122 6.834894589195264
Au 7.795507882732025 8.039030123411466 7.4086889567329575
Au 4.34045977996476 4.152782255736099 5.948716047819085
Au 8.4742234276172 5.773395883760096 5.999237182048694
Au 4.2997334518364125 8.096486677117472 8.062260061020782
Au 10.977912941868604 6.171915678514645 4.548461244201846
Au 10.093102282234902 8.657884453079621 5.5431820321514635
Au 8.880339549372076 10.63979576408159 7.0769034784608555
Au 6.64629365827479 3.900876267163267 4.489765504145297
Au 3.18866706037798 6.714399269125006 5.859517069873095
Au 9.107492629727693 4.533683421189489 3.4465058467763696
Au 6.125034811009386 10.427582746752229 7.35255544221258
Au 6.114351139956024 7.065556259539734 5.34384007268057
Au 3.4101630800091236 10.552874096917558 7.418661343733861
Au 4.653765724244486 5.495329626751949 3.543716912811426
Au 8.631678561423165 7.323276828592767 3.531632679187552
Au 7.581562317040106 9.61299638596268 4.8511089599996655
Au 4.853285804895116 9.718479575202762 5.034015569911069
Au 2.164543188607739 9.244812235132777 5.376337271869748
Au 3.4502951576605763 7.926744312862666 3.350753658913066
Au 6.149435239752572 8.20446817131902 2.8736628095132506
