38
Energy = -99.6769646 eV
Au 7.12542792787531 10.561988624787901 6.635371016912075
Au 4.643827433561382 11.688408069754798 7.060640260892633
Au 5.716992250581457 10.4394173133158 9.252984860780126
Au 8.358307670552255 9.698990101844055 8.971481669840102
Au 5.772702202387006 11.582772620119858 4.444992247662629
Au 3.341292060212545 9.320843606446502 7.680144821657996
Au 9.56317404228429 7.378006317119954 10.361032761245786
Au 7.597599997087836 9.535022985042271 3.9617405300448367
Au 5.8712813562058495 8.098115538858176 7.906712705157642
Au 3.619475655386961 10.06494253103368 4.997464460367721
Au 6.8585922433203 7.700628113735299 10.554343318533686
Au 10.893381694895142 8.75205968243101 8.381711174085547
Au 9.472623294987345 9.28838047490532 6.036583498566987
Au 8.451313085924793 7.142429135077693 7.7463881668212515
Au 6.848173399123088 7.435354111495856 5.497970253144279
Au 9.28886548168875 7.193433140193958 4.084471318927224
Au 10.567672822644182 5.484032560145232 8.5524990285129
Au 4.1729076306795 8.208360064003028 10.154069597135267
Au 11.047305271926794 7.021210256152299 6.244909194288501
Au 2.956584846541814 6.616055534549569 8.226177679547
Au 5.035630587826112 8.218268717148751 3.5657798600454997
Au 3.0364666572181136 7.515025969363379 5.502869546570525
Au 7.9809526245067195 5.137879158757924 9.849378042127366
Au 5.214043824176674 5.550252789895319 9.91356417170475
Au 5.235862008577916 5.647874857161526 6.859325573773775
Au 10.657818712006101 4.36208890159888 6.004431947477956
Au 6.897342451782593 6.2242254822091585 3.0084257785078066
Au 7.823830709298453 4.956838118173267 6.205519577272673
Au 2.4924735952797343 4.900051476452162 6.020012388761823
Au 4.395043739880752 5.491221056296751 4.05848520108649
Au 9.004554813823239 3.208168807893585 7.985730698655868
Au 8.966434357373227 4.45928593654953 3.679488730370055
Au 3.6238655930588424 3.854568808068245 8.395422971159661
Au 6.300649233638501 3.3753936727287135 8.445802664634062
Au 4.627068695309981 3.09666363878373 5.80704322418191
Au 9.656248831056887 2.0635075882660217 4.931666554701027
Au 6.357063904666115 3.541134437657619 3.7030236085855655
Au 7.194849142619385 2.214887908665953 6.067344831805126
