33
Energy = -82.84992751 eV
Au 4.882907094984061 8.604605254296981 8.973825908588873
Au 9.170283835304186 3.8601857930004932 4.489314616572894
Au 7.304349624924622 9.540938841062859 10.05631516111583
Au 6.856241344027162 6.8523343334414974 9.834317766387782
Au 9.148399124219962 7.921127316247816 8.352240606719086
Au 10.31552862259771 6.12149833592132 12.788897076260346
Au 4.304529511376167 6.023514846733054 10.218455094093777
Au 6.588097180653088 4.935217494484793 3.2585611492933992
Au 8.013731169026284 7.44193546229324 2.864304393479463
Au 7.425430665544063 4.496017554874504 8.66873077396232
Au 6.06277454744416 9.433224504502308 6.545794104149312
Au 8.934090543072855 2.9341545836711744 7.017431240065846
Au 7.057289748621614 5.960707098516598 0.7680529406955344
Au 5.107819602709934 5.977151983568357 7.5396156892259665
Au 9.293600005742112 5.674399278695028 6.797257473974475
Au 9.219618965726568 5.049995881175214 2.111782852062685
Au 2.1915298461798507 5.837518384843945 6.114810885485124
Au 9.218448267358054 7.891116726307851 11.153656753570736
Au 2.5403401089961206 7.096240505075466 8.592554475717577
Au 8.592593333550619 8.321747593162193 5.594394119529903
Au 3.6552036431123582 8.238960717056328 6.24700143824965
Au 6.7567969170281845 9.521017107130303 3.919263256771044
Au 9.936552248536152 10.219489899278479 9.819810070357933
Au 5.933865239032426 7.08196098053939 5.04752825089405
Au 8.370456169410911 10.489679670196624 7.508145613678207
Au 11.154968148014133 7.677455019097332 6.450164945080135
Au 10.298225758828892 6.446668417014847 4.18711348980382
Au 0.9131888214209289 8.120326200566241 6.739568024577044
Au 6.866692537235351 4.480240509437356 5.958734779867729
Au 2.0275028180993804 3.557844250944548 4.830113545140008
Au 8.616612564133147 5.157959234828532 11.003482896005155
Au 4.385957966378573 4.760227268455382 4.87195032229159
Au 5.80443718251057 11.22260210938059 8.624873442133651
