39
Energy = -103.07840168 eV
Au 7.913474959217305 7.415312654290008 2.336142808134738
Au 8.760153212450987 8.035985687779332 10.332189940452473
Au 7.6530638355098874 9.650748007365339 3.8426498578669
Au 6.168950722814145 3.735005485720523 4.331407027726568
Au 5.497571756648375 11.672088554075833 7.501216571462542
Au 5.355706099567378 8.13562683276581 3.2501836651256775
Au 10.014792056418388 9.816743673886975 5.216591709172322
Au 10.170620934625815 7.361234097661688 3.8371583109910707
Au 8.611500247598762 1.3360223843396766 7.712095713472065
Au 6.007539676929991 8.270901133722463 10.897165606231727
Au 3.1013680027404993 10.746928289605277 6.612456075022247
Au 7.199495154148169 10.166385733688267 9.098120559213168
Au 7.213013274650683 3.295597298734712 9.269427643111852
Au 6.171382945945423 5.525005949673103 10.479688519911853
Au 8.497064866920253 5.063426605324399 3.680726538685479
Au 4.102593560396801 6.935290034769284 9.246260549343049
Au 9.674211590142539 3.8591362354355843 8.155598494009878
Au 10.220957322947754 5.356697932228065 5.858609451181717
Au 7.738050046136605 6.646219596817466 12.487794027170477
Au 5.280537541307345 10.31637215031062 5.0410074391855
Au 4.819686646740137 4.429447797664687 8.355892660087093
Au 7.781090212868987 10.788899949221708 6.410556988443291
Au 3.0386817835802487 6.04325960915237 6.816533098832596
Au 11.427232441823808 7.781766404938743 6.384057330817859
Au 10.209463655888213 6.516438463359637 8.472316136751685
Au 3.940215950837271 5.793921984447459 4.151719632801268
Au 4.457381304112467 9.689438035972978 9.096514982910403
Au 5.988233097847922 5.547424955989031 2.3492475341613095
Au 3.206655886338569 8.401803644608076 5.09636213925517
Au 8.95068739074994 5.144740437930793 10.51880284211203
Au 7.254334758250109 5.203787577371393 6.751328234485446
Au 9.580344661705732 9.224463867751853 7.990183336168377
Au 6.195002898447493 2.4229192352060265 6.833346396872264
Au 6.86806586108572 7.436220331230383 8.310675627507209
Au 8.277146483733071 7.644545709966197 5.901713047746014
Au 2.317157392188533 8.45983398169402 7.834783234761198
Au 8.674876706632231 3.067427649877998 5.580393217437029
Au 5.578192759946326 7.265300745095182 5.935303727974411
Au 3.936603471663171 3.6507324518838997 5.876880494961427
