33
Energy = -84.87506206 eV
Au 3.4564857500435564 8.279904231600856 9.269934536418482
Au 4.804029058891027 6.148792657579796 4.358102371316377
Au 7.082536285924541 10.642216395184157 6.23540572340738
Au 10.571311680315032 6.116326395311581 10.145255134030307
Au 8.191597144647748 8.091687462950155 7.094274929887608
Au 10.532258594996486 6.0288794903918 7.368886931045327
Au 12.089907186852317 7.89969535868892 8.69907794810322
Au 6.259690817440505 5.44258898126456 11.380907822538182
Au 8.477891165300848 7.230585838495282 11.680084871463627
Au 5.836625067772078 8.950936633553106 8.101610763954998
Au 9.07327471560656 9.208053074617693 4.390129925432166
Au 8.164116081436756 9.313611869684909 9.746611137541002
Au 10.579573965261087 8.755557214218337 10.936249235058238
Au 3.8163240041977295 7.0722435439031015 6.831783078244953
Au 8.094702444889814 13.174598252076366 6.239887287800819
Au 7.115202637840147 7.451463895110951 3.4581323827891204
Au 5.778244557914736 4.953850373731325 6.653588202445717
Au 9.259532577000503 6.505857913100072 4.99147355013007
Au 7.1279600804577825 4.367503715314473 8.997067354515186
Au 9.9490837496381 11.14730139374682 6.091497626333456
Au 9.833414781702292 3.789963365015802 8.843402329420783
Au 7.155413808868622 4.845479805825605 4.247755635369193
Au 10.871921910944398 8.588247656800677 6.342263183321241
Au 10.699395202186778 10.26454833908117 8.667942308081479
Au 6.746753679403022 10.135979144966646 3.4198530407471455
Au 4.978535552606053 6.017605849674918 9.044346942382894
Au 8.500564816525069 4.281925986769126 6.537262426479683
Au 8.769742090054473 4.432977119630828 11.300417389372546
Au 2.8427043329556256 7.968286675953084 4.41787969279793
Au 5.85625829411345 8.203728117179956 10.74402556689425
Au 8.419268015953362 11.697841666108085 8.471400758738149
Au 6.285532109946119 7.35675596498341 13.29995210012853
Au 5.190114808976205 8.960160957267279 5.349615969262434
