33
Energy = -84.85755804 eV
Au 11.732942834120223 5.8722259182638235 3.713275121314746
Au 10.478621710887472 6.574591502441966 6.016011844636083
Au 9.9799184410791 4.263294149838189 7.364647617423626
Au 8.585205037839197 6.731303378910184 7.9807591916250775
Au 7.170682425776861 3.139133090320372 3.6534368597212836
Au 7.241275819068207 5.773516814962632 2.8089050148183627
Au 9.435120290551236 7.258990695080768 3.472587311314179
Au 9.483821764768907 4.433436275341593 4.307775104814023
Au 6.537611908752327 8.552588843370275 7.758385680905711
Au 7.8460562596614665 4.281078129062194 9.06000661664482
Au 8.513968997934512 8.481486403508633 5.831075531960003
Au 7.52050847577093 4.487851306327685 6.215365878289986
Au 6.382592619192443 6.5940355402380115 9.703652393424639
Au 5.503286063955614 6.0907410424117 5.000589929020221
Au 4.841068885463411 4.479246482848221 2.6635325072671936
Au 5.324255872564776 3.875491819733162 9.971695769499213
Au 5.213725298398534 5.243980326005479 7.576104188685723
Au 4.161177650125862 9.7112930562707 6.962101579963164
Au 3.5748190744956347 2.886217923654629 8.171350335471013
Au 7.041746602616482 8.433244951780926 3.3685576073274803
Au 4.002123934274754 7.52357541573825 8.610590857729497
Au 6.3715486883350465 10.166259546007769 5.503592326104128
Au 5.142791966164732 3.261085817278854 5.740409548070097
Au 2.3676426781175364 5.4503763983458855 7.887777905324961
Au 5.585932616741175 10.653532655878568 2.928108708849795
Au 3.1999960598977744 1.3439360705602075 5.768444186935655
Au 1.3635887225278214 3.189209126280674 6.5865869847446765
Au 4.264286804077881 8.65396091258717 4.172256060880098
Au 4.752373513481486 1.8076973756922887 3.4852807442284726
Au 2.657774184969507 7.594090033225598 6.1171842680265085
Au 3.046418994675529 6.307969308410625 3.6248219664546513
Au 1.0577452372033496 5.5565415824306355 5.3447785248440844
Au 2.623762104216821 3.607489057302713 4.074355605477179
