35
Energy = -91.5811998 eV
Au 10.748094333135125 4.550802951194441 9.036318529461953
Au 9.18834556252362 6.70932015423816 9.536914607356465
Au 7.602199710660929 8.843281282626815 10.072376915804073
Au 10.743669240231789 6.730677540526462 7.173315437675675
Au 12.05211427619683 4.323193152989037 6.654284207832874
Au 9.037270094812763 8.84232436465983 7.629665902584473
Au 4.360994667943383 10.194343393050902 8.870164835818809
Au 8.08759215109811 4.025732477421979 9.305858109223946
Au 6.603812091781305 6.079073575821359 10.397796476918286
Au 6.937785177865654 10.575813418135349 8.006146668951386
Au 5.024937683068437 8.22359377561976 10.695968462832884
Au 9.432696888489716 3.3920907875718167 6.84930572540082
Au 5.337550090882119 3.9284743372846425 9.192610861782574
Au 7.981373967479444 5.962258632573248 6.872200625706148
Au 6.037020667632781 7.731170482921823 7.969720976257936
Au 10.134682166416633 5.251843908375705 4.840258602884142
Au 9.447248312904113 7.952161802762287 5.008219100134233
Au 6.354023454378545 7.50715488773703 5.259295037739919
Au 3.752253378132506 6.128714055566901 8.958663415624072
Au 5.27743557664168 5.302909815839082 6.676129371602499
Au 7.81682857816606 8.760571129544363 2.946737673352206
Au 8.150854689370115 6.08799892058407 3.157516153810481
Au 7.799730424595144 3.73201339339781 4.631195128710476
Au 5.108862908542829 3.1045923373760163 4.94733607419098
Au 6.754319981058783 2.8726961667294297 7.120918255072897
Au 2.4387133771248006 8.314346761753995 9.91241455236319
Au 7.6672202049952585 10.086814763263947 5.410692771712676
Au 5.987128125550174 4.473353102296297 2.6839127938025076
Au 2.920783893590591 8.462363423384454 7.23961345377578
Au 4.879692979498312 10.108576406849574 6.1681445840571385
Au 5.365186217606944 9.792254244696048 3.5379979652329947
Au 3.5397513168409835 8.001619463031306 4.628901400426935
Au 5.4506024196362555 7.1574563800073 2.612413942690127
Au 2.5823769366257476 5.897773188876996 6.408994588262636
Au 3.780653962578116 5.3457009315389135 4.041676615097826
