34
Energy = -86.93034808 eV
Au 9.287333245514825 7.588404927070367 3.675807870357023
Au 3.9640968494546622 6.5738413905578925 8.266468138793932
Au 5.2198913885131955 6.999769387308319 0.3720672620429101
Au 6.277612607766378 9.755175593330238 6.501773079047638
Au 9.070824158054007 5.09820382299433 6.966561434519196
Au 4.09719566242407 8.278567002814377 5.454606877133161
Au 10.125365202578998 7.7170459454073 6.402922933830094
Au 8.711386174151455 9.580876537826425 7.836682221498478
Au 9.821408694232515 0.47897376882169035 4.7877260190311475
Au 8.036339007256801 5.196353236736329 4.220391980023355
Au 7.218461382425473 6.6672146108012305 2.090660151461449
Au 1.7767557587698943 8.1505723165662 7.019329720040358
Au 4.563284634939007 7.4002112984825965 10.860900219882874
Au 2.2803756328583034 8.274177142881033 9.76431125204642
Au 4.78320965978018 1.943606900095925 5.476548075416526
Au 8.639180916347279 9.807870199956673 5.1099538040536325
Au 4.3477080809402215 4.071370199440221 7.2048362175510485
Au 2.696802056774493 5.8772485240095875 5.821307069348989
Au 2.314171678220378 3.053587997817253 5.645274728798557
Au 10.805072877580168 5.570967540984928 4.848555661716465
Au 6.568703740043499 5.537197656684301 8.161563289786297
Au 9.510821034637257 3.0578364744443274 5.151440407491732
Au 6.450744281496393 8.408235430010064 8.961465294493692
Au 7.27141133349029 1.1035613721498867 5.1015655135665705
Au 4.080789984211701 9.389920788094496 8.036550762959935
Au 2.646453841633458 4.552670912462145 3.457458710910726
Au 3.0068078435995558 5.668449704393685 1.1183385944159918
Au 5.682534500297402 5.933549138236424 5.489326892401199
Au 6.530582505461333 8.334942101551555 4.150643962251774
Au 6.92887704099743 3.504500211494511 6.243602226334866
Au 7.156573744718756 6.3284968719703985 10.73510196899021
Au 5.837316851593399 6.462797854448902 13.003610892720541
Au 8.90026559897424 7.022374961856447 8.807250161830881
Au 4.5243190847858195 6.680221452046705 3.1104317853941166
