38
Energy = -100.38947052 eV
Au 7.768966119747772 2.5127535024406273 10.773101577423144
Au 6.786350551728839 5.239166948645204 10.84181781178039
Au 6.282650121495796 7.876876165055579 10.188513725367878
Au 4.559971509365718 5.7366539127829075 9.306351243912975
Au 5.703012421966723 10.428730202245255 9.18598995863441
Au 5.910823267192246 3.233797838535983 8.941314704329722
Au 4.024854645030636 8.410528128762047 8.601972690615073
Au 8.539267712700545 9.850336000670005 9.389974611907022
Au 2.5853408328326073 6.285069622943902 7.496966326372807
Au 9.035074543701025 7.256257931190256 10.000013541852027
Au 9.481177118717289 4.614770383596539 10.43532962286828
Au 4.09196828589576 3.9228501857057023 7.101304020885227
Au 8.666208859601113 3.112489348086866 8.186363435323317
Au 7.308851456644309 5.7845406722683945 8.144313438031089
Au 6.925599592038533 8.557018409117344 7.444632667121033
Au 7.565418088422348 12.316402474961693 8.424130559090711
Au 0.7609981979879408 6.886640021803399 5.479268583246098
Au 2.3900252854272805 8.890805563274109 6.459927948644995
Au 6.094397006751488 11.117057393604972 6.428732848546963
Au 10.039596246561054 8.278834626725486 7.562652170471516
Au 10.260772816537617 5.544486027605864 7.998989069486602
Au 8.906027429307024 10.686214970892406 6.665577186469689
Au 5.263514102052969 6.617123620951172 6.443927556549766
Au 4.68280635006547 9.290087600632726 5.062759194992531
Au 6.709133802858162 3.4770500252450796 6.197031005955339
Au 3.2892309733220735 7.02032043340602 4.377816813805534
Au 8.032909894501225 6.745937184903317 5.708574648658735
Au 7.3562929860087065 9.47768807500426 4.501223993814815
Au 2.18960788673506 4.552122105381472 5.253310949125929
Au 9.42043012718952 4.00218866074431 5.7529653716849705
Au 10.098405248452657 9.135644641290373 4.82399427493508
Au 10.93789709317187 6.543065841924587 5.581562379532033
Au 4.835190330839902 4.595734416439893 4.4174815383548065
Au 5.903897327521202 7.167315027333517 3.5981226858913864
Au 7.472120419123007 4.7386480497484085 3.7607002248684407
Au 8.544775939017068 7.406847022982279 3.026772166026895
Au 10.17143238327597 5.039031793742633 3.355030937612679
Au 11.299383309940017 7.543295453083623 2.975868799538641
