35
Energy = -88.81371384 eV
Au 7.4271841158776235 11.179112634138946 6.821036284761745
Au 4.547374877668091 7.088949797290041 9.265938472706498
Au 5.261928410004551 9.393821265319913 10.74142594343268
Au 2.9499371546587745 9.329656903332104 9.087018170223015
Au 7.742715492410481 9.900976204974544 9.223613229117483
Au 7.656278240660789 6.612480797696467 13.611941387631518
Au 8.362640505185789 7.649119580703488 3.882186903401536
Au 11.161170860274593 7.10228771972962 7.594487498600001
Au 4.818413847197416 4.999841316596302 2.543321035296766
Au 6.434943388593911 8.511576307897405 5.7221198183257425
Au 9.947511613156593 9.387814228681934 2.363739836476231
Au 6.557225603325643 5.025032659212638 9.358031723656861
Au 8.58785576617374 5.744447671950994 11.190896759263433
Au 3.1835811739047326 2.062754853634479 6.348529788264175
Au 4.498711457614465 6.844606265784961 4.526236171380233
Au 9.958869420073192 3.4837582445055864 5.772425054961538
Au 7.904603099764254 8.579332123660645 11.573174134594456
Au 5.85813665631236 6.513927685946361 11.5165289946984
Au 8.603457855162818 10.260417844225511 4.512550738774234
Au 9.44575825892394 5.139942094284715 8.687734752039988
Au 5.593099066657355 6.010346405090204 6.944012222593949
Au 4.45804326971478 3.9744530926264288 5.021641856381033
Au 7.602759541564991 3.911490424365362 7.040678052089834
Au 5.31555180018475 10.10447465271207 8.038656533611288
Au 9.690621087745786 6.838781810759862 1.6135927075950043
Au 7.334007035483655 5.577224027268828 1.8499336967070794
Au 8.48264486198789 12.835197490287836 5.049406159869465
Au 6.891445302255267 5.267106222606481 4.585079761916628
Au 9.466080363766563 4.839269290169001 3.4933073546796427
Au 3.776811431166375 8.176703807905184 6.754600060754053
Au 5.794539993051276 8.660547235578901 13.301132387504143
Au 9.188202699184863 6.106292662647512 6.031845746917217
Au 5.002579715926386 3.407838252697973 7.692840454201749
Au 8.92792868520928 8.689434105397265 6.914849337748912
Au 9.50815760022331 7.845396113621036 9.572897992417223
