36
Energy = -94.25189794 eV
Au 9.603156915329892 4.334276242497582 8.802599123037607
Au 10.510393530300389 4.69695393862518 6.196547134518166
Au 10.368185648668867 6.949179971215175 8.164574559965095
Au 8.273651496301161 3.0488356348015695 6.373601784749534
Au 7.283847131140979 4.126433385083319 10.13337432616794
Au 9.992992131993573 7.141076718187273 5.102295977909444
Au 8.322221592350004 6.676947103870192 10.07059461222677
Au 10.446115420479304 9.298496033094342 6.798627838373141
Au 8.774171394219042 9.195105957632016 9.05041148804389
Au 8.053144915444422 5.800545859275797 6.9875365112325065
Au 8.50203285658549 4.94739459152023 4.143781379370268
Au 6.5011209792300235 2.2163171446098646 8.328009423120909
Au 5.649508995358691 6.283988702533496 10.80052475808161
Au 7.669692708605172 8.45537194910096 6.499511255246084
Au 9.117175221189491 9.738974683393932 4.406415501520504
Au 4.63534181633548 3.837222934187305 9.657871663412125
Au 6.205157033504237 8.900192416389954 10.01907762280658
Au 8.294880120935309 11.114774712549288 6.885395283592432
Au 5.650995798794094 4.5061176511625325 7.006530190976713
Au 5.775991231954462 10.300651194395327 7.636618845226953
Au 4.567913256305068 2.1104034302260866 6.247056743211159
Au 7.5151676931760685 10.156148988728349 2.269584749258026
Au 3.3079442456091783 6.2237168198077475 9.271642076171634
Au 8.02028196839185 7.4573354528217095 3.120334317126336
Au 6.375829382714665 10.516742657959497 4.865383184411136
Au 5.87472639876249 6.761849618902873 5.344176618515652
Au 5.801218497922029 7.028855917921974 8.098633045384
Au 6.323441965802064 3.30068160716757 4.406484539430091
Au 3.6397216002834494 8.803532136827153 8.38040914072558
Au 2.8833722398334123 4.11638085964153 7.450739320161547
Au 5.462674581515205 8.551162873723415 3.1143355492955016
Au 5.877941490241417 5.599377907947409 2.91356110107351
Au 3.789055175772733 4.445036062502841 4.78436644778867
Au 2.8396537498369687 6.7355303188173075 6.565541871901899
Au 4.105073021849944 9.100943895370673 5.6425124014670365
Au 3.440032256078537 6.959934417820632 3.8938220509111554
