31
Energy = -80.04237163 eV
Au 6.109040100679437 10.784715248624398 7.457530911064146
Au 7.80456732653074 9.615789803455392 3.254497483656131
Au 6.510694395399965 7.993972402652057 11.171745141189733
Au 11.634502265182961 7.619853150080472 6.514644256303981
Au 8.092542338627037 6.838885141713251 3.3812203210526324
Au 5.750639241784292 10.680778947830904 4.784227039143673
Au 7.566271346830707 8.437865108762507 8.491399968432109
Au 9.886866985381172 8.645220938577095 4.68569125629835
Au 10.782643621431502 10.242934857255742 6.770475897643394
Au 4.575605376903912 8.653019503190546 6.279905007055715
Au 5.488392153435964 8.13808947482959 3.6492040639064607
Au 8.340812135011657 10.868641313430977 5.683077426896298
Au 9.668362669530051 5.954488155164542 5.515918607514942
Au 4.621705780334338 6.024002209823308 5.116497204996518
Au 6.643768654433934 10.549640935614823 10.165968302671434
Au 7.177764840081402 4.8009579940913465 5.050950637052462
Au 7.23944125005892 7.712454338091078 5.896171015332633
Au 8.766400278597661 10.991430310065144 8.43798063861424
Au 8.860930441339615 3.7421588780725505 7.058832049676351
Au 5.230284662549555 3.97349597036639 6.805872191661796
Au 4.729440258323675 8.83076825449237 9.009768293191785
Au 10.426728226684412 5.861720247639909 8.20868917420157
Au 4.224330215805639 6.623688251823468 10.549784555840324
Au 7.258581598835912 5.831062402394955 7.911727140923648
Au 10.348693735228723 8.577143352218357 8.890890805363288
Au 8.947193220164408 6.839730806638544 10.46859480687704
Au 4.095960811231806 6.37582511337438 7.81019463889035
Au 6.836254139725035 3.0898107434263316 8.874966829267457
Au 6.687145665404802 5.2439271767942275 10.772668383278587
Au 9.122857920281731 4.163212943820711 9.875170494190822
Au 4.403663124202691 4.15582730203002 9.467619561460078
