36
Energy = -92.80036158 eV
Au 6.509192927906449 2.8682828978700927 4.564633221692031
Au 5.618813220886719 4.36068833277924 9.709637381199641
Au 11.363829022287186 10.285145892067344 4.859138504015247
Au 10.971406731371681 9.184025195532943 9.419318905922522
Au 2.752923730582107 8.813591251779474 8.36426235809483
Au 5.566865349909202 5.448358778977558 4.59160456157306
Au 7.080030841784822 10.125884439929939 6.859549551682024
Au 3.5330629432260094 4.279460365447379 8.045553120278733
Au 6.5573174979497155 4.87969873321317 12.158374555997613
Au 8.211602688198278 5.114569764852355 5.379574302667513
Au 9.910457788334536 6.737254192228713 9.43156610662114
Au 10.491433472878866 5.677981032745698 6.909315075604531
Au 3.9417908084423043 3.1727830705095954 5.468956004645139
Au 4.414768324096669 7.826875229339602 4.287674905356866
Au 3.2937282684633757 10.294761806978084 4.0440262236604365
Au 8.236561506496306 8.881219242348957 9.039760601550224
Au 7.504082042228003 6.473835754505209 7.668878274246943
Au 4.333411985314456 10.080425685450406 6.568311522502344
Au 8.803147856060873 3.432221592949828 3.327212127940123
Au 2.8703698987928163 5.737475854359848 5.105630732878869
Au 8.354541821302 4.6362762040122245 10.17234433235958
Au 6.714655202629466 6.971602953283665 10.316716613195442
Au 7.160576189063299 7.685130813092521 5.114402844715447
Au 10.749479576485571 4.144095117693517 9.068769090310077
Au 8.681881541386616 9.977979982404515 4.56328476540091
Au 6.132125062334433 4.131552453976548 7.043411442882226
Au 6.025843858227354 10.115109841988913 4.245402813637485
Au 2.0989946964671047 8.374813077874434 5.702837189953979
Au 1.3724876685347245 3.8706262489579615 6.49006995973511
Au 10.747757170994118 5.318175192303585 4.237109558205145
Au 4.034072341926363 6.636932916840096 9.404359703196002
Au 1.7551343113227214 6.393032437012531 7.600376855026078
Au 5.493289477844813 8.909594498292494 8.752033419382544
Au 9.86781889241434 9.939764689984987 7.092264129781689
Au 10.41186189689455 7.788294057376037 5.244646982197718
Au 10.994359328850583 4.036836055633653 1.9583923496305078
