37
Energy = -97.44676473 eV
Au 6.771762686187743 10.429801037203395 5.896575568035397
Au 4.149909972585031 10.126336346783182 4.653089654504013
Au 8.917067656368474 9.42323028124718 7.31311362497324
Au 6.296922931258577 9.098112208052271 3.3447815275576245
Au 11.095613329035423 8.331142210528615 8.669351621301569
Au 6.428807317766261 9.17626846566721 8.602003000637517
Au 8.841309519633946 8.910077422647543 4.595716063814793
Au 10.443340686590728 7.311028038147688 6.224813068760356
Au 8.579795765810054 8.060037908332562 9.829184016805522
Au 3.622077131178481 7.853513605409863 3.282932296216183
Au 8.30658311659287 7.625271497132585 2.1599803550816996
Au 9.945707491173383 6.201526727069586 3.8142039319661856
Au 5.499827803022328 7.980790986063752 6.09644666249242
Au 4.16392925472282 10.138866920288171 7.384542609645405
Au 10.12037713760486 5.6714161112421 8.4744751448733
Au 7.63443716598741 6.678242017498312 7.3773507688329545
Au 10.818754187189725 6.871839595340758 10.97836787320418
Au 5.884753689729667 6.4827079769090235 2.066210637980759
Au 7.177731626913916 6.450501915851971 4.597849154318637
Au 2.695683496024148 8.056200653308045 5.982052443773375
Au 9.34443406304821 4.614059977353724 6.011184983879804
Au 3.3802353794176683 5.473427014621854 1.9551119877597407
Au 3.9165837613353642 7.676402927978366 8.618750475403289
Au 8.127705487612406 4.103755841858977 3.51320492331516
Au 6.135959457307593 6.734858224406256 10.002979452284496
Au 3.0095581789478016 5.484985227698931 4.636908689638259
Au 8.53585820383952 5.391219752695242 10.747020679241224
Au 5.344308673160353 5.335844212382128 6.480423068836476
Au 5.376607828942857 4.168646131921099 3.562823699513558
Au 8.012178379980107 3.8429288185263144 8.293364703831648
Au 6.940655214848546 3.058332153175879 5.762814628413687
Au 2.4467735870897296 5.659832879187122 7.276375153479605
Au 4.055949599262849 5.0504658076954865 9.429334504327617
Au 4.024286221473618 3.0372036456522298 5.665767807428657
Au 6.305663939985985 3.9262932114568816 10.484347866996021
Au 5.455593115417037 2.84522012901948 8.089188544616555
Au 2.690511837870664 3.0429730335669607 8.089782164832675
