33
Energy = -85.64386918 eV
Au 9.811751203927065 7.183758528569065 4.9020616503842005
Au 8.056487169352227 7.242254839189534 2.723632159123262
Au 9.711404457125456 9.144390281050168 6.899467862161256
Au 8.03764676988404 9.315046878658453 4.5707093867376205
Au 9.757024574699217 4.522713362489508 5.59150195090862
Au 6.376187354641155 4.775365804344131 2.697668815011267
Au 5.655284479640366 6.95358095511779 1.321270991262831
Au 7.8279733606629405 11.184579975698997 6.488107245570098
Au 9.858587114326216 6.429252487982627 7.612927551561644
Au 8.54799373407581 10.662826383790302 9.088133710635441
Au 5.57859973470282 8.303023641464126 3.7137788451489064
Au 7.3026462387933035 5.909367383349477 5.099639400132655
Au 9.550494045453059 8.224232734791414 9.623908106486136
Au 8.97394617417727 1.9417585091004592 6.371502302715645
Au 5.442684683461816 9.890611623339773 5.889301585079245
Au 7.237348772938657 7.821927596301859 7.085048676005024
Au 5.864718278223476 10.902569590893668 8.440365793612957
Au 5.487669435348635 5.78940055107261 7.097887598226802
Au 7.841244271026377 6.115690824650721 9.661409269415676
Au 3.72966511495165 7.720835956661461 5.715582955747048
Au 8.472317581862066 4.040299570355702 8.055326395125956
Au 3.91874940718621 6.113289001603686 3.3445210948977877
Au 4.892966962316032 3.8270842964291325 4.85239908009142
Au 7.544698630325389 3.1325061754493784 4.429890568268769
Au 6.049342424007185 3.9909396389943534 9.333034266260169
Au 6.763159187311324 8.69106431163886 9.91266603528144
Au 6.328916757835817 2.543124238663812 6.949377371597001
Au 4.449854971792599 8.598444302145655 8.252099622169213
Au 5.073862640955057 6.569651692540023 10.07389917681397
Au 2.915937210649605 6.285686496756696 8.076860860662496
Au 2.607118863855671 5.208433166724704 5.535126865513219
Au 3.4561457745933257 4.36834606466981 10.071403131087045
Au 3.8161755900206202 3.542287097082598 7.43388844676602
