32
Energy = -81.77970625 eV
Au 8.314819561788449 3.2981322915960645 4.7656119586369705
Au 7.942981557626039 3.7157246198212737 7.424141578854117
Au 9.492647598604762 5.544519951029375 6.007295597465165
Au 8.485209589121414 5.710567366281519 3.423297103716842
Au 3.975429345169352 0.3346784695454328 4.556058946357017
Au 7.18490466780975 6.047685988142438 1.038467246257763
Au 9.489849828568426 5.648910788304434 8.737444772209338
Au 6.1101017195716985 4.289196069463154 2.7934062431141484
Au 7.982303192367598 7.730140341852791 5.210954505287234
Au 5.79382937329895 4.190684384617675 5.58740832919532
Au 9.562050344121735 7.992843653555436 7.41295931953103
Au 7.149422731706536 4.608623717868239 9.925643510808364
Au 5.339520562862543 3.4072522784448975 8.303111438224347
Au 3.7517669948832273 2.325085691455748 6.329547141127896
Au 8.786424950275185 6.3154102308091336 11.263896084826898
Au 3.733420809398647 2.832382304504689 3.427581650146565
Au 6.21000785410554 1.8020647107199028 4.016133706280887
Au 6.0362749815012435 7.166065793812745 3.2383233925355137
Au 1.7471045026022833 3.9719663544026425 4.990483835721516
Au 7.4479565013224205 7.661433096374039 9.317352009583248
Au 7.339601547801903 9.550705181930551 7.179708350403752
Au 5.104233096811087 6.113104277507565 8.799787893496113
Au 3.7635636851372682 5.509959462132373 3.780508410315778
Au 3.2928132325790624 4.91805725746321 7.116872312579751
Au 5.9185827796033825 9.55576765098203 4.767251438597276
Au 5.223041589958203 6.876029611832972 6.029579422853157
Au 5.014246794901085 9.577935639992436 2.196026006193105
Au 5.093648171011538 8.738271403612226 8.51013612022348
Au 4.834206607448032 10.902318945338108 6.877545244306355
Au 1.8566729002052298 6.66292479169783 5.504157235538643
Au 3.4692223487810185 8.26038943391026 3.930490741657751
Au 3.100341774634224 8.775248842423675 6.616995650509731
