31
Energy = -78.34862488 eV
Au 4.227853316988103 10.262112868663989 6.736481306955931
Au 5.196353708148116 3.342928660822106 4.279085802504626
Au 6.850799378554746 10.576837485217682 6.422641494362631
Au 6.089788259923641 4.774844655981049 2.1799220572196827
Au 9.54292439044784 10.259144759301961 6.953002547033374
Au 3.6807768773203575 8.248567571846507 8.701450386704694
Au 8.427077379465226 8.845307974997388 4.862595967364002
Au 8.704690091329532 6.107933070747853 9.043146397897763
Au 1.6856141857589069 9.494181135056513 7.276626765060653
Au 8.0621531245965 7.479657507171623 11.320938887445271
Au 6.121505187819537 7.185577211472861 9.442215312826841
Au 8.96069649974451 4.750346391521064 6.621306083744777
Au 9.828551795148101 7.5327897065029505 6.813930249078255
Au 4.778714806121856 1.4093143764039946 6.143575954557567
Au 7.153714554708135 7.095641517246758 3.201178497159395
Au 6.5684749907272995 4.476098596814835 8.450092599507096
Au 3.1753455250719784 7.778010230767755 5.801523567655839
Au 8.801610334253192 5.230084274657113 1.8758616832680346
Au 4.692416423298535 6.080861246879026 4.2137969654550504
Au 8.02774958973291 3.9705540853611256 4.125460074447807
Au 9.554955802114536 6.333055950943301 4.330587149955415
Au 5.67149272551729 8.625728017518574 4.942851489638266
Au 11.165522005414806 5.544444702046355 8.03651996263729
Au 6.1035112874732285 1.7462184653596315 8.522738474834275
Au 5.403418187264299 6.516340663328932 6.839320794356162
Au 3.905933915427805 5.543077847617396 9.023593397796636
Au 5.805142791401364 9.931540169909173 9.07935907959593
Au 8.47749097020941 8.904492389774163 9.058129453375178
Au 4.255728749819056 3.986039971528588 6.806336516594386
Au 7.226468716010268 2.722205286105137 6.308647229927069
Au 7.8856279159229565 11.623408724314062 8.767363152279394
