34
Energy = -88.74855659 eV
Au 8.943301409701833 10.177791368153002 6.71742279349363
Au 7.6277695567230035 8.987422247465028 8.829513163847839
Au 11.213972166980193 9.071531202619095 5.6714288549450025
Au 7.408232929891072 10.710641577313188 4.457710551674161
Au 6.267503983942058 7.604027268703672 10.694245994981172
Au 9.619256290086895 4.94978140394043 7.227486543918551
Au 3.9694856940046446 8.96424981447296 7.264461971801068
Au 8.384849770356324 6.31005234713988 9.384558792905011
Au 7.026407861486982 8.143167642846146 5.821243685594327
Au 9.191471495458446 8.660999047896812 3.911860432631606
Au 6.209276569048513 10.556087418530922 7.053674317659241
Au 6.283440008276645 4.825710464797965 10.49731804612041
Au 4.197327827058758 6.202441021140424 11.811696922996706
Au 9.885916507591137 7.638952682885126 7.584261830144334
Au 5.857303388437101 6.857052140675533 7.951700900012355
Au 10.424777436786357 6.464967503777595 5.02998107158692
Au 3.571032577679874 7.553606981675446 9.5384977623179
Au 8.305368754437536 3.548796842964172 9.154962462743837
Au 7.843854370764978 2.8497497399994067 6.501322546637093
Au 4.753363661260834 9.951269219114703 4.742049800203562
Au 9.374419319154597 4.002413004540948 4.550755655625137
Au 5.733897979180083 3.1100076289833027 8.37007238298243
Au 3.1791525881568736 6.120898602328445 7.205092998328584
Au 6.934590946691038 5.480523637212098 5.8822264528600074
Au 3.666278354235229 4.67106493925655 9.562697720129753
Au 3.9977104448457275 7.308218645077123 4.951797004507941
Au 6.67442500013585 8.483840392705073 2.932514391384384
Au 5.286210152766004 2.2314301014533147 5.738799987595274
Au 4.031491140967393 8.417203926125651 2.4891483042374962
Au 8.171524467121035 6.116720793397748 3.265785313423834
Au 3.260046534478784 3.3794568382018273 7.206875948942166
Au 5.432386248516262 5.976520316150574 2.871561867477995
Au 4.17503972474222 4.615570078530258 4.939919006369703
Au 6.716600223061527 3.673802526520132 3.7934827018331823
