39
Energy = -102.57158435 eV
Au 6.5088851968414145 2.60728320833301 9.006813871118842
Au 5.593696967668067 2.534539193828407 6.18396406191539
Au 8.27549683749317 2.4604726916731874 6.93911412183824
Au 3.154111582360832 3.907300043845092 5.856913039973893
Au 5.3041607819792675 4.125366319407944 3.9303109822523083
Au 7.976566490896037 3.874980755688596 4.641856088856162
Au 10.292558905678222 4.175649133977242 6.476569915032732
Au 8.70877041776083 4.41782192055857 8.892963495934026
Au 3.0544800045695384 5.978155311470868 4.020701463290671
Au 8.32968380217205 6.522359051391874 6.011181669323105
Au 4.081502462962798 3.6186298817547553 8.510644242324119
Au 1.1388911870744074 6.193169156621124 5.93085114424915
Au 3.9539046699399183 6.364037377846468 7.0760846313800405
Au 7.67713039909378 6.042899628987322 3.0090024753281583
Au 6.374060947320645 4.957954353556381 7.215276082634104
Au 10.175279099376658 5.659868269642795 4.0715745236081995
Au 1.6867402458357563 4.856094233119842 8.243291116937288
Au 12.226386775727462 6.097569357544439 5.919907520287588
Au 5.101423866117964 6.376502914119376 2.216613313604702
Au 1.80605366984175 7.6597140144676334 8.285841802691806
Au 5.70651350976421 6.731807019795552 4.99912806485985
Au 6.1979047270897665 5.110569740975472 10.160862525281802
Au 11.986966651617081 7.727697821866525 3.606279234310279
Au 3.5969998812669197 6.083803086673581 9.881757895243327
Au 10.372989455893237 6.4887452654620015 8.033073235840437
Au 9.32820049850243 8.324380632094577 3.2578408618066566
Au 6.414090600525814 7.696787693534489 7.574353346278216
Au 3.8600272127640847 8.593118473670614 3.3462196473989967
Au 6.62835618503939 8.734666769422759 3.162923890597242
Au 2.6637715507559747 8.565306899651405 5.772611308332024
Au 5.581004659924167 7.861556544806715 10.288072919437784
Au 10.540838342783482 8.346622799381228 5.823621368552264
Au 5.1964946297456445 9.767147505345665 5.4766353766320375
Au 4.114224339486354 9.208919484683774 8.181341868016005
Au 8.278012480313631 6.94335539203635 9.848016309483715
Au 7.987790168387788 9.555553791101318 5.436195528200047
Au 6.6018820071706985 10.445823341201347 7.740173914226068
Au 9.057985079680462 8.983031830750843 7.981940091032373
Au 7.670824911388124 9.633366302572743 10.211494625034975
