39
Energy = -102.59457533 eV
Au 9.530612888820226 6.834082471600233 4.123709047036311
Au 7.874304856115279 4.609605648031558 4.148985108853254
Au 7.026177037833125 6.781019570572933 2.6865035626751816
Au 10.512945202072636 9.372353670011933 4.707214293373443
Au 4.850467718383242 4.661095450288808 3.4227354178819103
Au 9.826156784672913 4.984871301199299 6.166816213805571
Au 5.972356407374649 2.7130525515937123 4.8590473227734
Au 10.686274311132008 7.537109918335723 6.6924486735961315
Au 8.479557575361438 2.5889657392304932 5.930874398473458
Au 10.539259722082942 5.73268491413997 8.81716975837413
Au 8.483723150323891 9.161665852407129 2.947173431365262
Au 8.931109205864356 3.5208477678662162 8.42000257555678
Au 4.316334954768896 7.398327522014002 2.8574702309284645
Au 7.053814857700874 7.046855888881838 5.466438588851546
Au 4.177121448778746 4.333565830797624 6.094760318676312
Au 5.193221651078432 5.677642140823566 0.9425240274261353
Au 5.9356715877731965 9.28825737240742 3.9566866184857554
Au 10.222582893378108 10.314061827731736 7.217630285496328
Au 6.305968430373577 3.2869061632199332 7.570815160680327
Au 4.611363650014069 5.211232016704925 11.451405317905468
Au 7.99015720514714 10.338805054257023 5.4643197290192544
Au 8.04056018639425 6.716592249892809 8.001618203783257
Au 10.133869943067543 8.440519870604927 9.258937611814002
Au 9.599336966058907 4.133787688705042 10.954370928575662
Au 2.6002345911726747 5.963984504613931 4.52873098796842
Au 9.787407113682825 11.130616556647034 9.838537527731946
Au 6.87450646851836 4.483769814301473 10.062992879015852
Au 5.4456498406278335 7.230013090723618 7.57689710415341
Au 3.6505152282419 8.474230620722015 5.2608240419915075
Au 8.67271042701498 6.665998722728081 10.848049926114372
Au 4.346490195214725 4.735820067315044 8.780241708307797
Au 5.477331921184696 10.143763959335056 6.602598105151472
Au 7.862265119180172 9.347568716695415 10.571258034858984
Au 2.7716073067042393 6.466000126471586 7.214437216056315
Au 7.60808215213307 10.779598904613175 8.154250673499188
Au 6.061846930765316 7.4262624028102335 10.9947177050805
Au 5.363214207720543 9.575890999291126 9.383277714507075
Au 3.149319680604487 9.188887706121745 7.8075923736970845
Au 3.6148729414602188 7.282688085087467 9.794939935255284
