32
Energy = -83.1186586 eV
Au 2.753633493353572 5.688859529734292 7.724277040828274
Au 5.2042455785217605 3.327190612954501 4.8668919828143675
Au 2.681368946835809 4.762390901910056 5.034133497310117
Au 3.432169426965667 3.1116894648554436 7.054325915169613
Au 3.1377370082721616 8.415426408724983 8.074506027484711
Au 3.1321954763604904 7.402908111746231 5.4389100405693975
Au 3.837855323202483 6.5985041767024155 10.07772862881688
Au 7.85256636328561 3.5038754144725934 5.959958959455928
Au 5.541935586627856 5.328778292040903 6.828863725525772
Au 4.749451001898732 5.888005474836426 3.682413474791233
Au 5.976521132572841 2.2851068678140565 7.500610140814208
Au 6.50960297453932 5.91960197808185 10.494014143071606
Au 3.8916195658016934 10.051331511020434 5.857618324570667
Au 5.608109048045018 8.141413131342201 6.756980535511305
Au 4.7359435714964855 4.1205657195151435 9.292101559228284
Au 5.655445444494737 8.54098542639204 9.614449650863822
Au 7.611968738868623 4.037389584300774 8.753826741334397
Au 7.5915662373746855 6.939637023917405 8.071132847618902
Au 6.713199337640309 10.442167854463081 5.5093652063407825
Au 5.284982200614895 8.658520661666136 3.8959277201603784
Au 7.403452479182817 6.557581250849891 5.239314650521138
Au 6.6451765551658895 7.097509542130031 2.1594891143869783
Au 9.94008855445496 4.551759527411465 4.582629155665008
Au 9.323344752033055 5.909107896896232 9.880751710382464
Au 7.250697584655007 4.490347620975624 3.344785273193702
Au 7.58605503925139 9.787067608380207 8.178628871978662
Au 9.753565349575556 5.190097919786465 7.205767003302275
Au 9.342674479347295 9.741781101167438 6.136298197630232
Au 8.212294364817774 8.88646634456081 3.7600263748771847
Au 9.200325227199995 6.478182961748454 2.826214540252275
Au 10.231242562642983 7.8462692797657105 7.973299564896441
Au 10.23312520418675 7.301688595897088 5.249534305869567
