30
Energy = -76.64752602 eV
Au 4.41317102938218 6.617050551711652 3.248732288144228
Au 4.176848172914959 9.297429029958202 3.141214944433268
Au 4.6234597782962235 3.966740785357107 3.6710052557995536
Au 9.12540279011826 6.964606765558482 3.240397913779216
Au 6.946635059080907 5.370260439231343 3.4454054448224225
Au 6.674906661777271 8.170200249883894 2.890306486017142
Au 4.477800222143767 1.3804453249796025 4.511382054535495
Au 2.3299788731616817 2.5281897087946663 3.2240889000525756
Au 7.628670421447549 7.688662809378072 5.460065699293189
Au 2.3349481878679508 7.869623031106709 4.685245972484224
Au 2.0395925935388077 5.247983086124134 3.6075521485869158
Au 9.15976119965576 4.223529537690857 4.677969721078283
Au 4.939336082033073 8.414554854557831 5.674670696493592
Au 6.935085372021 2.6627975807141455 4.579192001196829
Au 2.5611578295037405 3.412073405124231 5.782651089940358
Au 10.249727461315372 6.578518318400476 5.644740752683434
Au 5.562608417378221 5.638013822535672 5.914587449813574
Au 7.773440996607691 3.424345718956293 7.106236575084146
Au 10.383051464809483 4.186983880916199 7.153998470512016
Au 1.2527318657582585 5.810439998892262 6.209344667592756
Au 5.089785331240989 2.9024386838781986 6.823185754030942
Au 6.478926683589128 7.654752554011437 7.94232314971302
Au 2.6431598078065406 7.743177214340133 7.424441793477144
Au 11.129004385525791 6.597939883873515 8.229392118688587
Au 9.123928500687326 8.36879323075797 7.692062302326436
Au 4.4688787605403455 9.525436540494793 8.249583732172217
Au 3.3624631667095457 4.978880203781567 7.809461195881953
Au 8.48602257389237 5.762040102083608 8.502393254171865
Au 5.970034925109736 4.810718839085891 8.670139197559257
Au 4.371946031088832 6.915838492823905 9.50069361463778
