35
Energy = -91.90281013 eV
Au 9.280749785837635 7.288998094827286 3.643342528964241
Au 7.5483755252372395 7.4846140908034755 1.559253530263468
Au 7.752929556571477 5.004532782496059 2.9180026686001685
Au 5.975410954040551 5.405362303998222 0.7800063879015336
Au 9.278683483153694 4.940933303558572 5.262323103290601
Au 6.948923964127328 3.4842750190400076 5.074586772887786
Au 10.951499293895264 7.047648240318165 5.7781646783454015
Au 8.65770214946536 3.308459278491987 7.397793941052412
Au 6.982983305699542 9.056118542215659 3.73454915896555
Au 5.076408674641365 7.118449204862377 2.873781611836703
Au 5.015250696698138 4.2994570366907885 3.053265539373926
Au 6.786628084830517 6.5458510502856715 5.191493636832768
Au 5.812364349326017 2.5240663857488603 7.462751564150651
Au 9.759570789420769 5.787364532020422 7.941628625469457
Au 7.45551698901065 2.350772534904372 9.669511706524611
Au 10.486147992026336 8.464213449897645 8.081511698996533
Au 4.233016009894645 3.0621326483443947 5.301191939419686
Au 6.66225235316094 5.301953484079661 7.604250620660863
Au 8.940301132831445 9.039222535455417 5.7701805285602745
Au 3.8031225192251825 5.868884931103839 5.035927116981997
Au 8.138315779226524 4.969285492066435 10.027339429144854
Au 5.315984474372202 4.039777213143529 9.88400369513414
Au 4.564415084735167 8.583399030589709 5.130955319337794
Au 8.472063619791854 7.674169900191544 9.712358672608902
Au 3.758961530039447 4.567487552691765 7.493029116054016
Au 6.499604961433625 7.989196168298096 7.505337134498778
Au 6.575740797139732 10.497855483217222 6.013149132636439
Au 5.920480578086489 6.765539949604242 10.269074218966104
Au 3.3210057621519797 5.890339679741219 9.814868626568808
Au 3.3713954804190736 7.317250102280168 7.354544660915777
Au 8.405345878142189 10.205817371272355 8.251947764961994
Au 4.290282727069296 9.921592740776786 7.506703812759557
Au 6.309430971516316 9.477664522985927 9.966120582054138
Au 3.724275198196758 8.562957446239805 9.841628612244786
Au 6.126030470874797 11.762794183671643 8.45000572780503
