34
Energy = -88.41645776 eV
Au 6.4766921549363135 9.868788774734282 9.580961794172792
Au 4.489993002179096 8.248882156551161 8.702120790368921
Au 2.6817516084134736 6.522455447386151 7.663685723197753
Au 6.742939836599906 7.348197201273555 10.846135563178276
Au 4.9031862986847266 5.646154766763228 9.815995987442575
Au 3.2524114161209012 3.9088750774900296 8.507754226659632
Au 1.5598083892780064 4.253592959584171 6.3934072519615714
Au 9.062155253560295 9.7619624542592 8.403533729028851
Au 7.666398335119779 5.005365761757163 9.649688271736693
Au 8.71720512897465 9.335848390926435 11.16681373078054
Au 6.048932655582432 10.02628817889418 6.92019086766618
Au 4.065406377824022 8.287907834717426 5.914973760083728
Au 5.836949755635248 3.2562187484937453 8.340249755018961
Au 3.118707848939053 5.8213917163840065 4.8567449163858445
Au 9.545213555201057 7.176750580625029 9.828656738154782
Au 5.34523159959431 5.804258941065419 6.939934901538692
Au 7.236788110642904 7.604739793094565 7.998858122095415
Au 10.279261096252721 5.0456089350522495 8.391622929537682
Au 4.187888738253884 3.349199958652565 5.880646052766601
Au 8.090177339409486 5.353775570724395 6.66792420139243
Au 6.840011807983094 7.390341460132088 5.211277407258866
Au 6.888873989144994 3.0571714014291764 5.652193803310943
Au 5.614778236563676 4.820715037814899 3.918655492936199
Au 8.508480356909542 2.8968568927123304 8.000299615057067
Au 5.783355728005249 9.855443275757587 4.2450203469117325
Au 4.546226358821114 7.398317565338099 3.2435123741793332
Au 8.626251900697946 9.640809421408136 5.7253569278170895
Au 10.10034606489912 7.583917929720958 7.008856119446971
Au 8.399356956567269 4.701160982162052 3.9781329925326885
Au 8.232213939432546 9.245030239414092 3.0351655990473305
Au 10.719617775248024 5.244228219089512 5.612797989245371
Au 9.599268120998147 7.287444911313676 4.217835982128169
Au 7.225384941621874 6.646687697882421 2.4494179052493004
Au 5.919848895454263 9.007113168607097 1.5763776355889147
