37
Energy = -96.97978437 eV
Au 10.310194659557853 4.361050278606816 4.49974797361942
Au 7.955816065059038 2.8978463991182 4.901061128032696
Au 9.191628565312177 4.397335681344991 7.038003156355531
Au 11.097801825081385 6.420240047509248 6.197514914082615
Au 8.09718610423946 4.933900420016205 2.9010733075413078
Au 6.589541047076611 3.17066417586153 7.283225925020091
Au 7.715919522362515 4.753951401143859 9.320400372757572
Au 9.89917644607346 6.952785617882108 3.51539604495089
Au 5.136344242773843 3.2845182639577777 4.695088054295111
Au 6.770099640778514 5.37160638277605 5.3545303570525045
Au 11.68955862883307 8.732718811551129 4.599493825664568
Au 10.381603542146223 9.108260593992 6.99564181199327
Au 9.755011542888647 6.666952549865645 8.607259695652985
Au 5.001556508503871 3.7163369685458187 9.48313936550326
Au 5.370261137965924 5.403057108935096 2.832910876814554
Au 3.6369513950363155 3.5944943689024615 6.927726715156024
Au 8.474346637355236 7.323372879000052 6.021435147435481
Au 5.9885216374745 5.533157236357117 11.345013243088282
Au 2.1703977998982227 4.150922978657931 9.194862966569067
Au 8.876031787564465 9.427005818654418 9.217951981001494
Au 6.9969795206521646 7.635016368967428 8.359493943203134
Au 7.225467611477635 7.586134060342536 3.0966724585452416
Au 9.075170283687573 9.558637435760847 4.312413878040888
Au 3.6424543893543553 6.3094305198916105 10.028337339771653
Au 3.564276743507248 5.7078871047998625 4.94546268333086
Au 2.3938001713623374 6.290517449048878 7.470101884726763
Au 5.7631910638948485 7.8761292671339085 5.908718709886282
Au 8.18831546556687 7.179258220361362 10.82672410536036
Au 5.217235817631762 5.774483697089305 7.630303692682949
Au 6.203828395568618 10.323866714644074 9.026330406441753
Au 5.529022138513316 8.216363049632918 10.702479021387843
Au 7.764855269968849 10.331804784497857 6.703037900198677
Au 6.379885522225928 9.996138721842035 4.209538288769861
Au 4.466587609316392 7.989448625530082 3.4361835066865183
Au 3.032903434625039 8.382531421402255 5.820024997589913
Au 3.9479829292203674 8.592604766725879 8.441072677499474
Au 4.898619731886471 10.448094644091626 6.550152477731586
