34
Energy = -88.97467332 eV
Au 9.819689060660442 7.419071335153936 9.182755883290149
Au 7.410217996637639 8.325296684685956 10.133120539468255
Au 10.15057162681848 4.624570918742823 9.061822316555247
Au 7.80194309323945 5.47496828203538 10.116822254040958
Au 5.797113980884161 9.970228183078818 8.60576658522491
Au 5.4166831004881795 6.578618148065722 10.893404916140906
Au 8.470380529182332 9.397396317074643 7.76779141419262
Au 12.038699350078678 6.237216998959192 7.896230241176339
Au 10.44903373915801 7.854780778605147 6.444027923146279
Au 7.9506281112463215 3.413162110483436 8.048718301130311
Au 10.30877071264422 4.760584823658673 6.275694922609991
Au 8.030026380402425 6.096713762769158 7.1878189051256935
Au 3.4257471484885347 8.606814197080963 8.905425154667872
Au 5.48002523467835 4.213808677529558 9.217714326373967
Au 6.6266141981886095 10.71349938208458 6.097154688110587
Au 5.677590765621347 7.1361978369135475 8.165860253096387
Au 8.889097224342583 9.479726483747129 4.972985209243579
Au 6.683294817043983 7.869932171484597 5.626106269917158
Au 9.256735869765178 6.401650159144324 4.347661275689692
Au 3.190730835434659 5.927033879657489 9.460316646446811
Au 5.496093658026715 5.448488629593692 5.990816981770169
Au 5.647551611243199 2.7418592842406704 6.792327745557074
Au 4.155019125862692 9.343025288434035 6.319274588408574
Au 7.8093337760196215 8.167036890983198 2.8720163126323204
Au 7.966306114596272 3.8998493623902704 5.194950796761599
Au 5.495049248712191 9.626715488968326 3.8403594530875225
Au 2.883039243457583 6.821392783758046 6.834201329156368
Au 7.016432781537746 5.479181441461777 3.0237909721965344
Au 3.7390664585643467 7.456115103448613 4.2739844144545796
Au 3.30007288037939 4.038235732910625 7.5005655034945935
Au 5.518903684650705 3.356611806502409 4.1178045335049
Au 2.971054119080905 4.777680208959811 4.902853416915174
Au 5.323449141046891 7.634436450850006 1.9632107838040014
Au 4.271547763369928 5.239021045575709 2.562426741986109
