32
Energy = -82.85693724 eV
Au 10.117696025896306 8.566845978334989 5.641861225929481
Au 8.22467134903605 9.26182883543819 3.8382603876319745
Au 11.817926034645483 7.4991487973016975 7.533701404383731
Au 10.694410037272126 5.7497240138300985 5.751119642188966
Au 9.65667557406894 8.99151517925459 8.412304193185228
Au 7.710405134999335 9.835695982942914 6.481616229669307
Au 8.691824606641877 6.5469776919409854 4.032430824955265
Au 6.420792285871656 7.589192607244527 2.7148658669745074
Au 10.222511114113624 6.38935568584994 9.431689925350039
Au 9.896941226157287 4.144437839504428 7.809566504060428
Au 8.351936512391674 4.187290381082281 5.4490696058831665
Au 8.389230112949308 6.636702272526367 7.221947316018992
Au 5.563248076243685 9.459881434978378 4.736982123792342
Au 7.875359947193541 7.578760398253385 10.281845037957032
Au 6.557926847220677 4.700219075653816 3.4496014380611455
Au 4.607919580945839 5.705065164117768 1.8210458389185131
Au 6.238201148330449 6.74436330375669 5.551779672764428
Au 7.94311806157188 4.815953632492378 9.650487406828226
Au 7.274604091791891 9.997842457908789 9.172744208657265
Au 7.453827344086521 2.837423018276405 7.692392995970569
Au 3.726983217368389 8.011067475992235 3.1541777607986154
Au 5.521311366664459 3.897678744198228 5.985768693404755
Au 5.840337549620425 6.940240725619814 8.196270861780675
Au 3.339389785004814 8.063920108506569 5.806408376155283
Au 3.868566935662907 5.462630232085023 4.431813836603094
Au 5.085246626757383 9.61007713444567 7.4466945421277835
Au 3.4272862906957853 5.518024669536709 7.0805144143989525
Au 5.755801658424171 5.914219956326819 10.913290002997524
Au 5.316928588217713 4.150074394574558 8.74557957344058
Au 3.0854207048269346 8.000377098326348 8.499804929345276
Au 5.158993873554172 8.674382528962774 10.267688812117461
Au 3.2217063917395494 5.573680402861155 9.81544313585546
