33
Energy = -85.38332996 eV
Au 5.669469472486327 8.158804803177752 11.093218115354915
Au 3.3989854834917663 9.479132295904844 10.489885308966427
Au 7.915730956926225 7.928404664166372 9.579845767105478
Au 10.151911872904165 8.060611861696188 8.099806672724172
Au 6.4282684869696 5.674028967929128 10.561679777898874
Au 10.752233525447648 5.3624764024424305 7.313916532696358
Au 5.6561329580650135 9.797509188504241 8.774402801840777
Au 3.552533912503531 6.724018297280807 9.817588761607453
Au 8.709626224897658 5.096208510097643 9.06852248814718
Au 7.790067497314905 9.427941272125283 7.118240071283071
Au 6.81894257902307 3.0925378929637364 9.840282671685548
Au 5.7297942039140315 7.003686917778491 7.9708256448357835
Au 4.558026737936691 4.349001242891049 8.84148125640085
Au 12.21408857921585 7.498997699019464 6.331898096894639
Au 8.167910796650347 6.574274574780353 6.677332337059681
Au 3.1542127814172285 8.775004770645308 7.883020642510846
Au 6.835297152441733 3.9553157526705838 7.241023557024636
Au 9.093076427528835 3.9827835989468237 5.598214407464709
Au 3.0942518706453748 5.94468404010643 7.146700166696409
Au 10.598502115047753 6.084127413653849 4.594600429759097
Au 5.198270048755407 9.317160747110572 6.051931761794436
Au 2.731088896123923 8.048328948537913 5.35172329452894
Au 9.851432577164458 8.750136253012002 5.4327451973449365
Au 5.837301384805266 5.967441973439787 5.44857227843358
Au 7.34309897227144 9.017471729565107 4.341973340601858
Au 6.61109541336349 3.3275238297291976 4.515075816571695
Au 4.829697265962884 7.9255320071075435 3.629422191843824
Au 9.49067633862225 7.885685832525622 2.8611079392406618
Au 3.2455398680825462 5.540854256423513 4.340222666234471
Au 4.292994291441334 3.59945041155432 6.100744314677896
Au 8.247676080176635 5.327889604735578 3.33714931454079
Au 6.973390325643563 7.453500135526896 2.0348919748303085
Au 5.520794394549127 5.220626055611771 2.75572814572752
