32
Energy = -82.96035684 eV
Au 8.861509497445176 4.6135407744053465 8.925788508253753
Au 9.88983810052552 7.043754291055321 9.773734866243272
Au 7.668712238900016 6.0992712447553865 11.012714608125142
Au 10.809767460018461 6.046527321157843 7.380641494989272
Au 5.000032743264353 5.47970283725282 10.847033742783696
Au 6.821526755276645 3.367574850045361 7.62971686575746
Au 8.937448209220955 4.506829949774854 6.135903680400774
Au 5.687585520083543 8.120361026952502 10.740571152669748
Au 9.802088124639182 8.663837760633529 7.5424859580516985
Au 6.8730351883584335 6.595839242847534 8.394221867963472
Au 4.275124124949902 4.3851180376485885 8.516745163911951
Au 8.021284752077415 9.020193361786342 9.687249210566588
Au 4.412103492352925 3.154929022410559 6.1369621145654785
Au 9.50041234238043 7.070261812494756 5.200063231827579
Au 3.9997957881566673 7.148359572002942 8.705749830679524
Au 7.028598752158102 3.040414483635359 4.849640886387555
Au 6.158275151332755 5.6320423339989345 5.957101899424417
Au 6.955939303718426 8.209395594308019 6.139332588215794
Au 3.291004130790531 5.79720161643465 6.335255071699516
Au 5.492655561088468 9.54995540953745 8.456438141219348
Au 4.743064651529872 2.029978730786923 3.687940802458638
Au 7.808357517103108 8.198872400328474 3.2745808487519885
Au 7.9790274431406365 5.405455067985398 3.6343593848698448
Au 9.1554613924394 9.81134039722345 5.053451941447375
Au 7.869028620064035 10.611300438833656 7.388492786291298
Au 3.8600465579483467 4.675185391834651 3.844742832951907
Au 3.960674622835814 8.506366274140225 6.340416759804021
Au 5.601873207588595 6.655939595237338 2.6571668249982516
Au 6.086632662562663 3.9848421320087803 2.301962560677686
Au 5.53301508162399 10.834527541683423 6.006705048582129
Au 3.1844725369624065 7.273789652837168 3.98852779976863
Au 5.236808557169244 9.08815529419651 3.90352213743277
