37
Energy = -96.00043038 eV
Au 5.481294311527983 7.302331360348648 10.137114410791284
Au 7.337268971302808 9.589986243505471 7.825385025404119
Au 7.939737703320299 11.345923606297928 5.819636950250806
Au 4.687998832455689 9.151290936926882 8.36145282758806
Au 5.301198320596832 10.528004715058831 6.084915526734414
Au 9.876319136391256 9.627097676327733 6.59158371262159
Au 6.686475235734912 5.338122027416476 11.518737868542187
Au 9.022937157432558 7.380810346166245 7.929121181844932
Au 4.09158208779786 4.993313302193712 10.43706208523549
Au 7.937520244568419 5.177697486231095 9.085637200270021
Au 6.293785553355602 8.35552285482564 2.740768520675794
Au 8.60698804564121 9.277324991611433 4.047258126722018
Au 6.530921641135197 11.0249206846588 3.514627619582402
Au 10.109759986435531 7.289057018821493 5.271302235490284
Au 3.893793554935307 8.11100610863391 5.8981396390801555
Au 6.2573129000377685 6.903616630836959 7.459118843742786
Au 3.459726590287151 6.657651264532905 8.229553119325516
Au 8.322350390823747 5.275690168592306 6.237164793530174
Au 4.104270546728646 9.801881703390729 3.703289744510761
Au 7.5456519907008115 2.908948072077623 7.4774756135930325
Au 2.9794764322209333 3.997537538319065 8.010763120655504
Au 10.1661979068273 4.80923259824943 4.123096683885822
Au 6.251753052594661 3.1640052062762885 9.90475647525712
Au 3.5920931055539325 2.333118245366417 10.165960370787145
Au 2.868625993477886 5.444873146445447 5.729281635877263
Au 8.400304217454586 6.65705345526019 3.176017996760292
Au 6.059211741277944 6.436007217467613 4.808937071839916
Au 6.039084232093849 5.622443547645834 2.1468512462272478
Au 3.730930784264929 7.164567227100114 3.2069952217031386
Au 5.340681999573108 4.297963553133464 6.311057917240248
Au 4.870043493072494 1.9324530705850884 7.796123264243774
Au 3.7509684038898645 4.405881694951846 3.1807283780989084
Au 7.467360803176248 0.8609689881302022 3.271731256047474
Au 1.42427117971813 5.721933173442232 3.4677767733743896
Au 5.964104169930342 3.0265065301710377 2.8682365279626882
Au 5.936974541338809 1.721654317984845 5.3711350536215035
Au 8.301106416255754 2.9936849649476156 4.721287634812576
