34
Energy = -88.6833525 eV
Au 6.355276622344907 11.683656360632265 3.6808391394453888
Au 8.032218059199167 9.69355821040258 2.781853151732094
Au 8.17752210912295 10.500884388236189 5.445053845579917
Au 5.52153604521749 9.07244483636204 3.879639980251844
Au 5.428110239169495 10.807750227091155 6.108070827594593
Au 9.717938137299903 8.254308829570242 4.378445571802012
Au 7.408924101355371 7.036616055364421 3.2987959276871046
Au 9.805732397047878 9.118356711834524 7.141374916583727
Au 4.833395191238408 6.4799323190807705 4.138416658793752
Au 7.174846458192282 7.86001719655863 6.13245317981208
Au 7.4195464057483855 10.054166212912762 8.05562585448088
Au 3.9472723948385795 8.43206642775348 6.03997822263158
Au 9.368180432914707 5.5287698243566865 4.673918804371892
Au 11.166085871092452 6.85695279893965 6.231946324087544
Au 10.991190861733221 7.38647291191347 8.875579650652973
Au 6.879423152948841 4.458455509992929 4.124759401790546
Au 4.668484876413484 9.686012875358365 8.474405342167532
Au 8.774422844553344 6.1002662017330165 7.6781761238021895
Au 10.02675212608594 5.538708438248666 10.6316101395495
Au 3.0824626849924255 5.814822082016343 6.1662319530115175
Au 6.527330569421449 9.533137697121212 10.551868320724527
Au 6.154804539301193 5.422974134716456 6.806753173085701
Au 4.1902555696900485 3.8891198227007626 4.546420036133793
Au 3.3514167756778592 7.3135993961671035 8.515159593483823
Au 8.614556215696156 7.869381594307697 10.278541697890155
Au 6.224237038585947 7.361994925336846 8.826142202654545
Au 9.29280885834535 3.5743132911318627 8.903613478061505
Au 8.502252090990158 3.536379969556906 6.299248753940856
Au 4.761173154983053 4.988949154299545 9.524556833003853
Au 7.347453944188242 5.205640917252079 10.245683368151061
Au 2.1915842000107197 4.830409812727249 8.621169904413712
Au 4.033957164886364 3.3394305777300897 7.311105156899313
Au 6.602584006840743 3.10985261454172 8.479431842386537
Au 6.105681821477988 2.3561880733307237 5.84509500057867
