36
Energy = -94.79819024 eV
Au 11.553463104324331 6.07749111448666 3.686117576229811
Au 10.234788573495347 4.677426817224856 5.583090518855152
Au 9.01700536968402 3.225550603784811 7.461476813176503
Au 7.7905421314993015 1.7347131959762108 9.35881181764573
Au 8.823953759140563 5.532059028207006 3.2283997256644104
Au 7.574975881052673 3.7508860622144398 5.0469351787179235
Au 6.223076452378472 2.5061348802539127 7.176961524036022
Au 6.132973151358881 5.3411003796158765 3.2328828139753556
Au 4.7654449155783185 3.766968582861717 5.2944929387874895
Au 3.439137009775728 5.32104424172509 3.500305523750197
Au 10.774408000695686 7.466153244259619 6.0243404852614955
Au 8.26208740360473 4.445298955613094 9.962036464575293
Au 9.739163323559513 5.943297112248047 8.128346009153779
Au 9.801911022670907 8.190020211240604 3.4522302904360656
Au 7.0952678530114905 8.042661750612092 3.3307326183990154
Au 5.620625306044753 3.4000342289412893 9.810792464873082
Au 8.048962633503647 6.729408220718497 5.727152535313167
Au 6.766743534968812 5.264489372579728 7.70490070347694
Au 9.388659254351818 8.738475925516008 7.970917286327186
Au 5.280664240971534 6.577143706778369 5.741957245444887
Au 8.528759964164127 9.597357586246465 5.371493269324313
Au 3.9806276243085734 4.545240434000472 7.970422871867204
Au 8.02675683882549 7.138280581556731 10.059332155263977
Au 4.401261390878449 7.975768370695424 3.4020669518569164
Au 6.588020597790104 8.048832366522367 7.7089249500613
Au 5.350251146354849 6.071054707314627 10.110593938745877
Au 2.5488796976195 5.893646100303855 6.1232340954415605
Au 5.732133194988559 9.627819245448835 5.232717890406053
Au 1.677132302168532 7.426111891345589 3.93017148492764
Au 3.6700740008864625 7.342898986762263 8.254141325331988
Au 7.835122582369099 9.839228173580592 9.90225261689316
Au 7.150507481795813 10.823600494785671 7.349139052114214
Au 3.0827758522629507 8.724977633327459 5.831788114207864
Au 5.242505710249011 8.760073119473338 10.125707309811121
Au 4.376088642162813 10.084651410448812 7.713370108086882
Au 5.622661570895808 11.501869487332494 9.634217554979173
