38
Energy = -99.91681271 eV
Au 10.200394439120073 7.1097911995173835 5.05763345428873
Au 10.833624063986068 9.050202411280413 6.8784153412775275
Au 10.664726815897424 6.5492287719227 7.816512827717352
Au 10.163766640878933 4.496732962856317 6.025890848268452
Au 10.377600918051261 4.037648000985779 8.770525995855062
Au 9.2423079051915 10.08003695266112 4.842626064272155
Au 8.813220257960017 5.243546170065646 3.5009053261921004
Au 8.196100354623493 7.946774239017464 3.367166995725094
Au 8.215337904850385 2.9078604552897227 7.489109575161864
Au 7.991439345923137 8.282142892171938 6.632653530312155
Au 8.414616177643572 2.7857513042082687 4.791032130913767
Au 9.303549775997427 8.678253199020752 9.224287781238186
Au 9.112895958395079 11.012508620007322 7.613157300643483
Au 6.360464292274505 6.099031683379169 2.5490302491736836
Au 6.892317554191227 10.341470545083746 3.420388962372268
Au 6.328749963789175 3.478040095148832 3.252894213367776
Au 9.071334804027616 6.065130490910456 10.103634536968034
Au 6.827662213191011 11.013306737642765 6.128631208953402
Au 8.186265211633433 3.266917195525811 10.221634201038604
Au 5.045367418094982 8.221789497380954 3.445740231611342
Au 7.486680450165486 5.651774111020286 5.895096845099633
Au 4.509597721321823 10.6533863590183 4.689954204093498
Au 4.493380624550193 5.290138298006292 4.418593149159323
Au 6.7449195325473355 6.557152413660995 8.405968098894581
Au 6.813101504113797 10.01904912613198 8.78960930627399
Au 5.375225919166702 7.399136987707163 6.158400200951063
Au 7.158537466558567 8.026828331862967 10.80994423702301
Au 5.855365274955972 3.302788177748857 6.00663464250253
Au 6.5553276834711705 5.2854471983690585 11.113895676161832
Au 5.902584600206102 3.777439583942076 8.79063784278474
Au 4.813379566949961 7.38326538936128 12.091454393450139
Au 2.9445979711509516 8.506178948535153 5.316021879916572
Au 2.0879914158182715 5.902298681664277 5.6115392031714695
Au 3.9520866744419907 4.821198244717444 7.226334227628497
Au 4.44140908306529 9.883467232058411 7.325411711620724
Au 4.234538951728343 5.891710930646876 9.775920232716745
Au 4.575134565124982 8.730716836711773 9.76026773869842
Au 2.9886067662113605 7.42606751202805 7.856653421769992
