33
Energy = -85.13540922 eV
Au 10.33453881734374 5.714589208289831 6.15864296008142
Au 9.37366331310602 3.863893789089412 4.352889467972884
Au 8.817092252171204 3.357106402226995 6.974130346905335
Au 10.041636649484305 4.9411198878880205 8.83327379740069
Au 10.63069035191083 7.565021636380972 8.158548011391652
Au 10.455605069431963 8.79572289902396 3.294505890829909
Au 9.09571656469046 6.503284752613073 3.7421392110779497
Au 6.721732364987006 3.3182957113963365 5.0629448777140995
Au 7.225596001653457 4.695010464149053 2.780426632587733
Au 6.361715707699319 6.706175137518685 4.6284734126476454
Au 7.4900029397656835 5.904955010922091 7.092788107089087
Au 7.439702041725362 4.327346750970596 9.527788868599263
Au 9.511471105554602 8.501380505124192 5.833577865897467
Au 7.778786361208109 8.983070855257077 3.5591690289992277
Au 6.178807671019819 1.9955670370837635 10.17803206149444
Au 4.743922948464537 4.642975284990356 6.507619041891876
Au 8.363585698301387 6.968752479889823 9.666876035871468
Au 8.516486353415186 9.371729296448633 8.249489322693918
Au 4.602190870015714 4.0178557227449785 9.22223195604192
Au 6.2706041711704605 2.474011156111578 7.545038698355847
Au 4.618760919503132 4.726846933866794 3.7405929914648572
Au 5.936963043444335 8.112360326254109 7.00484274375659
Au 6.6498853524955335 9.028617824388117 10.36103930002844
Au 7.303958633114922 10.363138912369134 5.90388145781501
Au 5.641064830067545 6.554902310746665 9.628902026523805
Au 3.274523742390847 6.172203833305515 8.249628391836453
Au 3.5124966665850685 6.771319276495571 5.227401778766628
Au 6.161355224096356 10.820013003838183 8.349068612887619
Au 5.235836388075295 9.293070393519924 4.232578495912506
Au 4.146778432744601 8.862248612489893 9.08779158396682
Au 2.291326242767622 8.368789512476875 7.139503375025943
Au 4.177181902941786 10.40647099978657 6.582928705770799
Au 2.5715742271757476 9.34740693086583 4.5985077992237935
