31
Energy = -79.89067095 eV
Au 6.029790611087555 7.726224675961808 2.38392242686609
Au 4.941493063560011 5.150606107838726 2.998730524054838
Au 7.627259141393848 5.451188050208317 2.3830543540156834
Au 6.849399470558346 4.08655782973584 4.712924010922839
Au 3.8133841148635894 7.4236968889025094 4.04016192000799
Au 4.264881627086568 4.966164264395415 5.645341058472066
Au 8.581251657492261 7.876446573939762 3.441280748350544
Au 3.863085891049591 7.503653624816103 6.7957299177920625
Au 6.412647783137187 6.9302623491532955 5.198976751085736
Au 10.659110643264649 7.625267285437126 5.177195075024643
Au 3.9363565029119467 9.848837562665278 5.276849412492709
Au 9.416477025148247 5.255040307036777 4.388875101684851
Au 6.004479672736626 3.4713503107046257 7.243474709795777
Au 4.272101736531655 5.325648611354887 8.39541005468531
Au 6.4830665867222095 9.68048058066592 4.262230817825106
Au 3.634019305765571 10.014172929990893 7.998416071073
Au 6.210813283019713 10.280915801665476 6.935109027690505
Au 8.415029182705124 8.903868725875917 6.076898447422117
Au 6.97223527811116 6.516505948593548 7.821166518378577
Au 8.637241713775987 4.252455378921772 6.854136328631921
Au 4.62755227501685 7.853666433622753 9.444684672405696
Au 11.202763874698624 5.24671584223954 6.519297430776345
Au 5.202582333471083 3.2174798177420176 9.854870313425355
Au 9.844626800145274 7.307858107381464 7.840893837300331
Au 7.781979536307818 4.022750312393788 9.501865364669422
Au 5.746309719665794 10.402765153604673 9.715442207557611
Au 5.915051320163893 5.7642946603778835 10.722200468257794
Au 7.939243785168438 9.032893533715924 8.817525073020555
Au 10.345066816550208 4.863555347757166 9.088768620975655
Au 8.62723604357344 6.634703047448604 10.284264259183573
Au 6.741266461979657 8.335368064234471 11.242524651469651
