31
Energy = -78.06750892 eV
Au 10.61733493041498 6.8840729191424685 4.994604854145833
Au 2.1492260647119887 5.968279590643231 4.75586017207468
Au 6.392421665720783 5.191677426660198 3.737717162740832
Au 7.161830875760301 6.3252623214806425 8.845213193218315
Au 6.037291352580596 7.325427418264287 1.9698305951674069
Au 4.23597363023754 2.272564608819555 6.896051197213804
Au 3.6276517729620483 8.30462541290058 3.176241691915873
Au 6.125390125478656 8.377889055390911 4.485577076767318
Au 5.431688496969717 4.241290713627089 8.515219653924078
Au 10.799095834078674 8.650091926150607 7.258470316023945
Au 4.0136149864295785 3.904230946053147 4.668517501354633
Au 8.399492463811233 7.14749208017755 3.3797557294024676
Au 8.516639159612199 8.59907056151857 5.787059755544255
Au 12.391033120626563 6.455588954421169 7.0004060047436365
Au 6.494231676672214 3.4186047224098197 5.78046235115927
Au 1.3727520093220296 8.531792513307392 4.712019547893167
Au 4.379484577372801 6.851440688264823 8.453220505648643
Au 9.728114220448822 6.116448917573549 7.716845163362746
Au 8.57716163757674 5.117971200101747 5.383956782505862
Au 6.711126438476326 1.6794898977484758 7.950701172454943
Au 2.9814611271454328 4.65574312548624 7.147688823577356
Au 6.044309034184828 8.597229481560989 9.901060570791797
Au 3.810968071910575 8.202888636519452 5.974603551663908
Au 1.86307859343095 4.058640555378152 2.8736746305299743
Au 2.154606532609152 5.7023263568090945 9.508082564673252
Au 1.6442912437501136 7.122597643005768 7.230485642246644
Au 14.627932248620974 5.7611365713712175 7.9744969993414925
Au 3.9500335715566615 5.66289047529232 2.4699382052819376
Au 8.495277836592942 8.769027059283165 8.646532925828035
Au 8.20221112636203 3.929877745450413 7.968478476424271
Au 6.144093647454269 8.657841049039094 7.187938810870308
