39
Energy = -102.37988363 eV
Au 5.30397107001942 4.009831210934151 6.357640556714061
Au 6.876994617466597 8.171134476551872 6.357640556714061
Au 8.387426548439928 10.031338466977937 4.803015874004471
Au 9.389855943747307 9.013137878908099 7.279426661133861
Au 6.373731513751676 10.907501150000002 6.4459794837541775
Au 10.399485237486939 8.253135473437162 4.628218699187145
Au 5.8021954970511915 9.488429202401147 3.962806438050837
Au 8.2720421713843 7.185468297552057 9.131106328140701
Au 10.165007959734162 6.47029962220515 6.746659934548436
Au 7.848204890729758 7.744175549431295 3.219843621803766
Au 4.670861544405255 6.664600332172177 6.957241517936253
Au 7.510104143080777 5.516365355313853 6.957241517936253
Au 6.090482843743012 6.090482843743012 4.732085264983512
Au 9.540165178285125 5.739863831889983 4.051414525892809
Au 6.378770190434839 2.692536485084881 3.962806438050837
Au 2.6408005092009015 6.441101855596043 4.051414525892809
Au 3.9089235161017184 4.99549738993397 9.131106328140701
Au 2.01595772775188 5.71066606528088 6.746659934548436
Au 4.332760796756268 4.4367901380547305 3.219843621803766
Au 5.8072341737343605 1.2734645374860274 6.4459794837541775
Au 3.7935391390461075 2.1496272205081066 4.803015874004471
Au 1.7814804499990935 3.927830214048867 4.628218699187145
Au 2.791109743738705 3.1678278085779192 7.279426661133861
Au 7.167133299801668 5.052819288219997 2.4873108523923393
Au 5.013832387684349 7.128146399266025 2.4873108523923393
Au 3.1698761924547902 9.01724127161177 3.474374161441532
Au 2.5153865453267805 8.35885314778347 6.120272047309359
Au 3.760952560832222 10.753614461924753 5.50705975867446
Au 4.454774840414367 9.480047053115001 7.90488594047948
Au 2.756754458650376 7.473623484993734 8.826709485636206
Au 7.079769013143621 9.64445972015938 8.853075886439647
Au 5.517161669670998 7.383519519667817 9.641331047769878
Au 9.01108949503124 3.163724415874253 3.474374161441532
Au 9.665579142159263 3.822112539702549 6.120272047309359
Au 8.420013126653796 1.4273512255612615 5.50705975867446
Au 7.726190847071652 2.700918634371018 7.904885940479478
Au 9.424211228835643 4.707342202492295 8.826709485636206
Au 5.1011966743424 2.5365059673266406 8.853075886439647
Au 6.663804017815023 4.797446167818207 9.641331047769878
