30
Energy = -77.33756712 eV
Au 7.541056046940344 8.320636497036286 3.356975025499624
Au 6.168747772436105 10.732004835128885 3.8564164914569465
Au 5.948993130451109 6.0577830493023335 3.081052040742076
Au 6.954139736790369 3.68033262634821 3.932778700282625
Au 3.227765382685349 6.2645144427210795 3.0006470539518806
Au 4.6987842908743405 8.50219622583923 3.2657504766851235
Au 8.510014501830131 5.8739997291327075 4.311243379861446
Au 6.792362120532415 9.045327153844756 5.90134214278887
Au 4.26895445063978 3.706736772011732 3.16588353965584
Au 6.081020826734483 6.189704463922712 5.943834044697324
Au 7.491076214808741 1.2662599210044474 5.300702057037121
Au 5.104478005092372 2.606908585772771 5.663168958811712
Au 1.0901932932122123 5.62926405003359 4.557739048059853
Au 9.110835337896008 3.493088857743433 5.604902846049445
Au 2.6591087816666454 7.749376152176501 5.295763088492777
Au 9.561261540597203 8.171010066102987 5.304898493812541
Au 3.445186332213286 4.792186430568074 5.5833976718416025
Au 4.171899176084583 10.038500731241921 5.55369905895459
Au 7.146603770633183 2.5902414908311657 7.629115759633893
Au 10.143316483564677 5.82651841174372 6.641092193509656
Au 5.490891883542695 8.010054659596511 8.057244166006548
Au 2.9042447281507298 9.107108703305174 7.72087177480497
Au 9.576187634251854 3.636859425733496 8.295839540465996
Au 8.216338182511866 7.560695220933685 7.667352554714281
Au 4.990681857476168 4.296859808431707 7.857661308870848
Au 7.196386381228857 4.523598315414403 9.49840562927702
Au 3.1716220764948906 6.414347101356604 7.740900154636468
Au 9.660820532396261 6.0877165161073865 9.447604438705643
Au 7.286482639947591 7.1546786339165855 10.235324515333273
Au 4.800424722685708 6.081368957068492 9.938271679730459
