33
Energy = -85.91616754 eV
Au 10.685254859203829 6.521325971663883 8.600529648264557
Au 10.070332019920157 4.102089170028616 7.071261081131639
Au 9.232768481915933 8.114633194736697 6.719551540000801
Au 9.688967043605844 4.32951953459652 9.888745859255602
Au 11.241761559312781 6.193835668054631 5.898263619676684
Au 10.65700393831322 8.100677224107423 4.05532426525556
Au 9.989152084305598 10.476592530775262 5.251236420865261
Au 8.409138956637179 6.834859213671004 10.251724637180445
Au 9.778938528784352 9.046999187142854 9.342798761591137
Au 8.10190504169958 2.665310476006955 8.304884302543782
Au 7.787219133887727 5.762091851083482 7.629864327216055
Au 7.696667976372508 3.5580662966449927 5.700713383894707
Au 7.4075704017223405 11.391718025680495 5.1134887827792195
Au 8.033226421536128 8.887185330445444 4.001676877073096
Au 8.574270501874649 10.762126632735582 7.591694670501553
Au 8.599306530564034 6.178951073067936 4.81277101854055
Au 6.983935652451271 4.425804116584826 10.192526554646543
Au 6.418482918170915 7.794682120508655 6.511253880605692
Au 5.664260441999808 6.861905255413358 10.137613922560561
Au 7.029684897953368 9.09418367441433 9.22316885250744
Au 7.065984775107075 4.538532871568385 3.220610936991153
Au 5.627546167421102 3.603813258811299 7.591696917855591
Au 4.37572880356521 8.822644109738691 8.62541023723818
Au 5.401353274876512 9.60380992775912 4.483161703205671
Au 5.818094463305843 10.6620493187869 7.2257009601655025
Au 2.9371346507345746 6.7098593354795995 9.659679138392185
Au 5.199703950667981 4.889142002440607 5.1975081909688
Au 6.054951546502708 7.047066735531186 3.639045161492312
Au 4.315725184525841 4.368581218592429 9.86030386815483
Au 3.819069335063838 7.324061355106987 5.2235452490122745
Au 3.331622606925941 9.950618191448838 6.225245317118369
Au 3.5402850573882345 5.378360742728735 7.274789457183244
Au 2.0854258782632025 7.773586250325609 7.304819118820332
