35
Energy = -89.15566403 eV
Au 7.797631290149461 8.938994177335651 4.73214430501056
Au 7.776925095624057 7.99813460030328 11.816536243993044
Au 6.534790948716823 5.97206357276236 10.394317936833817
Au 3.1701076993520054 8.088289048575172 7.173137357840812
Au 7.212356401824949 5.3096174171962085 4.7719874305066865
Au 7.077481822343831 2.361826529545767 5.795508336407545
Au 7.917016391174435 7.064720696614939 2.6153019089495695
Au 11.651834342609089 5.158470108926274 5.409236652359482
Au 5.853394662257114 8.85182534621324 2.859642187662573
Au 9.503819136676077 6.882287285507294 5.050087548116111
Au 3.5108068927566407 8.049530064627486 1.8249160044756516
Au 7.146842739242703 5.649696299701601 7.630801805879268
Au 3.473111912919828 8.259908307779831 4.482508358589716
Au 4.640330427256118 9.896518969116132 8.7783130567394
Au 9.343405178785487 1.2715063269216258 6.653277813108497
Au 6.167234483285271 11.120698023788107 4.406307221645284
Au 7.260127298742942 9.232975229468927 9.423024748318754
Au 5.195421560954931 8.50786510096356 11.138424047066675
Au 5.237452151315679 3.6941385799522526 7.379456215872619
Au 4.134031114375547 5.904137246691621 8.584469812925288
Au 8.589609301228531 8.178880753874738 7.267762233457256
Au 9.407667166662918 3.667866540555592 5.525200164491515
Au 6.771546883276051 10.228995841415635 6.963894435296328
Au 4.516468759234348 1.5192902686542784 5.934832655536602
Au 9.007513664277111 6.864788109318079 9.669580487287867
Au 2.841778674987989 7.987018804367555 9.859356049619864
Au 9.960715542868957 5.647272963046879 7.510671666332513
Au 4.151810297425347 10.368363323649312 6.09016704547035
Au 3.965666205254069 5.995230112154217 11.409973238513386
Au 4.6200538452712285 6.08695804058907 5.917035758730961
Au 5.003060265536815 3.7401272669810806 4.437765350079124
Au 9.326323608594649 5.79382197932053 0.7079808148941847
Au 5.006043673386908 3.759777846454843 10.132831858626385
Au 5.10656524502079 6.180527165213556 3.1691045721282163
Au 9.802275011249668 4.949865415711682 3.137618600622897
