37
Energy = -97.74256284 eV
Au 5.389987156687469 2.4990351777857116 6.465943853496401
Au 3.74672729131756 4.397738060210147 7.618720057276197
Au 7.950902384893651 2.0800167107431995 7.323158832563665
Au 6.128243498228105 3.65137240987937 8.868238782162031
Au 2.73999669385479 6.4222643371201835 5.9823058574070345
Au 7.534417923231323 2.9388777666614945 4.721252248284498
Au 2.129566387377698 6.374306437786302 8.660710048804322
Au 4.421203861020228 6.819536154885716 3.7596163652923575
Au 6.221287264638928 4.808535208120815 3.1644596330090806
Au 7.185541525967445 5.343916895838228 10.824050416580207
Au 8.893830372271214 3.9998041161070557 9.016297517249578
Au 4.61416072007857 5.817085972064725 9.805035425645237
Au 4.075859938776164 4.2919945553510335 4.837928045363099
Au 1.6527100994314792 8.72538105348716 7.2440413427273285
Au 6.475615658061242 5.2119199587948115 6.086598819868292
Au 9.703401051022922 3.89719299380509 6.202647741396155
Au 5.594230420230799 7.812599205021152 6.47209655757636
Au 2.7637836173345707 8.847429109945034 4.7202417359072335
Au 6.471746169531547 11.073540105280589 5.9991808532718345
Au 3.952499500403197 8.404733676978255 8.95466709791842
Au 8.86421846536416 5.214910428100833 3.8466743796927
Au 7.065263813851504 7.4422601869140665 3.0770387288734873
Au 5.3964899938608095 9.412537099537474 4.1035765206940615
Au 6.212641232988698 7.987399834784339 10.544103473101025
Au 8.329729415456956 7.306087235980907 5.9138183296143625
Au 7.272667379309768 6.5581478943416895 8.336699049718698
Au 4.0293199463726 10.14224391546822 6.7973018423162985
Au 11.112552617763109 5.326857354932745 8.027481601764125
Au 9.612630805795018 6.480436307693807 10.096463933640546
Au 6.272713025903303 9.896937927736545 8.499381828673714
Au 9.790011672727987 7.718978679715843 3.2737742935134873
Au 8.177721300815909 9.781699258539655 4.295754628514621
Au 10.933784872779402 6.293180233870788 5.47993370823504
Au 8.586089741784264 9.00095972524477 9.66346109995831
Au 10.498162878846712 8.004292389853852 7.9348772240526
Au 8.748470421225628 10.113113164232084 7.14500374955421
Au 10.662916944125634 9.113774520517575 5.44856043961408
