39
Energy = -101.57639782 eV
Au 7.985259526153934 11.513170717628855 9.109175418983405
Au 9.902533882121249 9.927885254763362 7.747438808422822
Au 7.2644920262626425 9.862828728821379 7.093137971430031
Au 3.0836906758190565 10.274600752807908 9.270211484318247
Au 5.776546850424887 9.800074249215719 9.671320305657334
Au 4.55694629944311 9.475321870311856 7.105179216075507
Au 8.369081748753661 9.011751976326867 10.062881304254812
Au 8.835912945196835 8.27969537226279 5.448849294708162
Au 6.138220791608905 8.53425558990142 5.005798956829203
Au 10.907195297680948 8.025649156548484 9.55426563288618
Au 2.2162628223328893 8.067224607695188 7.490119301213262
Au 7.551028238257852 7.025056048736239 7.707068946671607
Au 3.8285344285798355 7.746088138539612 9.827169170155836
Au 3.3904315916294703 8.107760295750412 4.961020185289399
Au 6.413699862502471 7.128386703940952 10.444477154297765
Au 11.20150878305208 7.694549545948556 6.875261667235863
Au 9.055544947821385 6.473770064183672 10.911863061485153
Au 4.893922455845189 8.039078212210018 2.634459740401494
Au 11.076869956888546 7.446595497338037 4.1409898780123084
Au 4.708222557836334 5.1450466370336265 9.550327159421833
Au 6.13878347483775 7.60354014663612 0.33408576503764675
Au 2.0407781045693687 5.819995768089166 9.054998659543992
Au 5.016411659118085 6.479297496839454 6.914442117839267
Au 10.009267089933743 5.612410818325936 8.475517848652421
Au 10.559517066144945 5.270859327237455 5.8006362887183345
Au 7.1372041040653444 5.862893652257124 5.1298029190038585
Au 9.299131549707328 5.588804110141124 3.302003022233713
Au 4.193476459152819 5.695974247371141 3.9450195809250563
Au 6.651115508278077 5.906463405400392 2.328850206797898
Au 7.467592919307385 4.718083933760548 9.457447776772597
Au 2.4627460787163975 5.630918393574912 6.163893671057667
Au 3.0508080083646387 3.5316296491176833 7.961461576597357
Au 8.486225714792615 3.8486651632301063 7.0236300543137435
Au 5.808860260839419 3.5264696448461583 7.597544151658883
Au 9.552608230364672 3.024329396085474 4.621993406773404
Au 5.136432152494953 3.336011212197109 2.9336387542542597
Au 7.798712518257238 3.434531912688066 2.5541818568428387
Au 4.018778628850466 3.4082319437904696 5.423959871014896
Au 6.766718757245599 2.8731743316986567 5.116951787463545
