33
Energy = -86.29014368 eV
Au 9.261971220619563 3.103547885393374 5.924647455043267
Au 7.289264256043692 3.938384938274008 4.081603049193865
Au 9.889570378863962 4.860878432921362 3.943137919349098
Au 6.667582881258208 3.4234093807717056 6.759303969480651
Au 8.914191659904787 4.129268994233839 8.40929732763076
Au 4.195851529556323 4.239164915328104 7.762975803254795
Au 4.69248173753445 4.150229126084766 4.915472669006949
Au 10.490601902666652 5.584530046361108 6.518378414023502
Au 6.348336644500136 3.8698945974052976 9.465845873155038
Au 8.436797367432188 6.541316240079257 2.3879776247050613
Au 7.746899080195974 6.399269579241283 5.676262989610258
Au 10.047568521144207 7.5677722579738465 4.469300560526948
Au 5.934429019689108 6.288542334544992 3.324136346065683
Au 4.486648784453609 5.799637717552385 10.0424790168762
Au 3.31268276080303 6.415580505669143 3.746957566790725
Au 2.3328751853397387 5.14420739743814 5.991060071814949
Au 8.683876975079832 8.371332349453969 9.525617022885866
Au 2.7995109761848913 6.7859804335031315 8.131134263122746
Au 10.494766209109757 6.327681732685161 9.131969416878178
Au 6.831135704625656 6.468567831229194 8.212560054136965
Au 7.369410845166354 8.677581970187187 3.778316053434567
Au 10.234992244629662 8.270859255656855 7.152578458650556
Au 5.033381427563993 6.741800679914761 6.21532079151531
Au 9.231155370628125 10.052995528733371 5.217815713836294
Au 6.320340220170743 7.715374968273225 10.80676633427263
Au 4.694323520326722 8.857271261675063 4.389213207446423
Au 8.183140793679982 5.738611257711553 10.561519681167328
Au 2.3364558362256203 8.042969711685776 5.727017755109385
Au 6.560932653318088 10.119317813874087 6.029543423275192
Au 8.700231333438108 10.501503581204322 7.842817348957601
Au 3.958982963705418 8.61404237181141 9.755766720299576
Au 6.296160256243535 9.754507202394239 8.835877245809424
Au 4.153271337625089 9.459591161806438 7.14802558986174
