35
Energy = -92.15843865 eV
Au 10.616044160458939 6.002051318934457 9.590503813297953
Au 9.721905805673922 8.594614751229742 9.573435521304894
Au 10.425429797698817 7.415569347548055 7.172799443262084
Au 8.514970344951234 9.453680625226966 7.241575334524764
Au 10.554890507995905 5.896440426588993 4.90047322326431
Au 9.97579847850496 4.652227340111278 7.246308518297314
Au 9.174717924570624 8.261535260476123 4.84574911516908
Au 8.94689630609138 3.8554476887145266 9.691404141281478
Au 7.963826472212318 6.496841150058632 10.186654501483819
Au 7.074060715707287 9.094902698448387 9.649643098763903
Au 8.661978859209205 6.027713537541395 3.017366663970687
Au 8.442768847793774 4.116525609454182 4.940044973932017
Au 7.030202694496572 9.947418161653568 4.976731403021704
Au 6.200595386663671 4.392636166453073 9.905712595984683
Au 7.83486685555081 2.9185417266919083 7.316833303223471
Au 7.517284792601323 8.513598341100911 2.6709955938170107
Au 7.119231358043573 1.8166507819366855 9.785322539068117
Au 7.020649834806604 6.401632470023971 0.8908824568289395
Au 5.892951411939779 10.270018498348556 7.496128137309724
Au 5.289799392269351 6.905442307839963 10.000736378103413
Au 5.188939671463956 9.964077105651686 2.8637725277765202
Au 5.165935038697747 2.6551480314763727 7.981101193593713
Au 4.381527905554895 9.482543219313737 9.684359642891161
Au 5.989876798103847 3.0662202483154166 5.3332584149317706
Au 5.002223732862787 7.224110324829979 2.4575925775399625
Au 4.385561594319796 10.810013171439943 5.291321085399221
Au 6.24054306891601 4.681669007009829 3.0500336552934084
Au 2.6996534007220885 7.367940554898255 9.151199003546964
Au 3.2874486225170574 9.157188261390871 7.1442425873170405
Au 3.6183762823824446 8.258260137161612 4.563133806183185
Au 3.7768340372928417 4.95069269200515 8.614430098308365
Au 2.755324788210318 6.493369521206279 6.53547664133971
Au 3.6238457071635266 5.59505059968632 4.095283570309361
Au 3.430116566085743 3.784180909636192 6.168085888282533
Au 4.010270784283996 3.0113959534136305 3.502756497194817
