33
Energy = -85.85569967 eV
Au 4.107909265883065 1.9509856638508098 7.811242168494731
Au 2.9962593838899467 4.315301207649364 6.750185695449719
Au 3.9629574355677617 4.2173775794497566 9.395983578725692
Au 5.265946808080568 3.1761513629645965 5.6445694547937935
Au 4.005052159770164 6.893777418977136 9.702064425596213
Au 3.031412125986799 7.0098576017086405 7.036243199317021
Au 6.464943867308901 3.137155385184007 8.521385482484922
Au 4.070730475355356 5.7560785073777785 4.681540135307174
Au 6.33998691051258 5.4625766166076595 10.227740690069721
Au 5.541422830157144 5.709683858549595 7.366168079744976
Au 6.524288488084684 4.669393424376379 3.786817581769026
Au 4.403470910301337 8.550292634720213 5.194037124387589
Au 7.808136481492114 4.061851291777867 6.249344268257458
Au 6.19669737737011 8.366183827613877 10.41686878817041
Au 4.883269269247083 8.858352220212675 7.971867585660384
Au 8.6584987078964 4.691498386251982 8.890653992769385
Au 7.167872344128327 10.365937339492477 8.566674846728688
Au 5.788271731628466 10.790565627746203 6.247479626217126
Au 7.659996360547296 7.361630339139924 8.036276321242012
Au 5.455993111157853 7.30759594991618 2.936214239904799
Au 6.916524716577843 7.12265818348551 5.441066683696111
Au 8.638375184447082 9.628744206299583 10.774380675797854
Au 8.645741098967818 6.892403376481067 10.68441092425277
Au 10.415879096064554 4.879121091854159 6.686207395703229
Au 9.773422274262543 9.311348248966778 8.311618994459801
Au 9.187491014536835 5.544100693361375 4.328961365260452
Au 7.900921303919081 6.231366844190321 2.026705853521599
Au 10.572499078578806 6.717775770772216 8.723074988566397
Au 8.334337133183782 9.792935373095906 5.9923060425889325
Au 6.478960766697806 9.881487294794335 3.816923969853604
Au 10.046819565426164 7.582094888888805 6.103857271551062
Au 7.3070632785782 8.848065554113612 1.4693848950285417
Au 8.903843887603088 8.307861672407817 3.697316116730249
