31
Energy = -79.21368954 eV
Au 4.787221124331311 3.0006719230091012 8.072013046787266
Au 7.4453526078128895 2.6761219533640954 7.5013477588447754
Au 10.046961538348695 3.150657688164058 8.24530304120279
Au 8.166406093372078 4.4567245433848885 9.714437052793736
Au 5.309633169054552 4.757308284723747 10.128197307627927
Au 3.7437746321290555 4.547732300543605 6.084917641650564
Au 7.173536878302871 5.974748057018768 11.735965420323746
Au 6.423881729735908 3.743419101588577 5.1286527925233205
Au 9.044123454348428 4.404211773777625 6.023555892900403
Au 3.752889403070306 6.288093301526048 8.396670855386452
Au 10.178970934712686 5.863964773989125 8.154629358901882
Au 5.3478379998727 5.3012305739254435 3.1066137131138745
Au 5.899749581613478 7.470200195295472 9.822380394190887
Au 6.295308868704452 5.271975782609592 7.536510808605911
Au 8.699462581591465 7.358309716576465 9.954970629058174
Au 4.806646520797001 8.819181027420386 7.711888056474101
Au 7.939417973583614 5.844234679709694 3.9848618868187704
Au 7.396039394520813 9.509450554193535 8.681251003888168
Au 10.0791307941418 6.924841798890962 5.5237279195134725
Au 10.019001734990809 8.585657056564472 7.875863775326072
Au 7.630309732956152 7.450111683106683 6.774807154678024
Au 5.364112224525607 6.854289490400748 5.426516286995867
Au 2.7861686406679045 5.946803506979731 3.971589835476312
Au 2.7929440648943706 7.647390761010083 6.1674940173493
Au 6.6581341466526265 7.58399823559478 2.2721795622078944
Au 4.051073960334104 9.94833269591986 5.3165287334106415
Au 6.284882583770742 10.869041325669919 6.564715360122167
Au 8.930975455277332 8.39959262637326 3.499636165239405
Au 8.704245797607369 9.842650897017503 5.807801506208807
Au 6.492703816575935 9.75783997937324 3.993639732996542
Au 4.179828316415571 8.204327028659023 3.2232686100391708
