30
Energy = -78.69485031 eV
Au 6.7738989666666924 9.435946033333392 7.367780000000001
Au 12.436714948885026 13.36051384627525 11.0596402243627
Au 11.301262027783443 6.479894948359014 10.989785092394524
Au 8.607444728620779 6.763892588235189 10.282797524490691
Au 11.47629096434599 10.82550648024741 7.268229650095683
Au 9.457309962457456 8.90791089148758 6.7833832044634015
Au 7.738962681373443 12.141488252679077 11.340108701753577
Au 10.47338281886217 11.315281859026358 11.120361084410092
Au 8.556809661087552 9.756136636213437 9.626184787221979
Au 9.41321625255252 7.09195872148582 12.966789795523628
Au 12.123787095089618 8.19482416960713 6.7431721701706016
Au 8.527230635609527 9.69360893480209 12.447640748562213
Au 13.396947051574337 12.126427840881188 8.746633797381856
Au 10.748673699372086 13.05915915569951 8.687801498076844
Au 8.703456770064017 11.556157783685778 7.409799801177273
Au 10.43567712403331 6.524783975756991 8.195127855149126
Au 9.76832796267011 14.076319499980325 11.129611053262597
Au 5.96977762990681 10.036551058720226 11.237299881917071
Au 8.019675337465788 13.760720592402015 9.032954659298307
Au 6.084102881633176 7.708319069340779 9.548702396155214
Au 13.679594026588356 8.042466348888304 11.27657879757539
Au 11.347304749553919 8.969603876941067 12.482177164396393
Au 13.158096416972022 6.744342735337891 8.912978505395694
Au 6.7587345665978384 7.540234261662021 12.240714464823492
Au 6.244228075256434 11.743651944762533 8.870292825243196
Au 13.233064071971768 10.724863711355248 11.237768324598605
Au 13.845939994451742 9.435007749677116 8.600137896258092
Au 4.373482965374089 9.751340114239172 8.942214936188453
Au 7.777222864798656 6.816325569802676 7.541578523005152
Au 11.20821506779124 9.019399451621943 9.576373171010676
