38
Energy = -99.68714135 eV
Au 10.645324403223283 6.636052658993512 5.07054081948748
Au 10.394395322602957 4.6675384370451 7.0396997129926895
Au 8.98282152627969 7.644630805199674 2.9466992092308466
Au 9.383771777763053 4.15306209431645 4.513424767297133
Au 10.00895954956508 7.665993693028455 7.603648588865096
Au 9.222266800983705 9.095179351005608 5.378562919683793
Au 7.753945051263627 5.131733871807292 2.5613978766861525
Au 10.245250437829297 5.820497314399055 9.657436697560376
Au 8.163821355314466 2.8817795175637237 6.651485588841306
Au 9.074701404052172 3.33340898400916 9.221719181856065
Au 7.848337827572203 5.611766087235989 7.840304383919129
Au 6.8801267603796505 9.278604889771934 3.7294832613341233
Au 7.918511513277537 6.5428800460721686 5.260052316220041
Au 6.449797035667665 7.384748611781112 1.7004781800208215
Au 5.8946685666905045 4.911855077592563 5.956442646917232
Au 8.50822714894718 7.947420058117361 9.95047370440883
Au 7.530016855005008 5.215560782202262 10.588948969350364
Au 7.533721912750581 11.235080176391296 5.63709265339163
Au 6.8063010505306245 3.0847924931129116 4.05926148146066
Au 5.515286985339053 7.626492531277195 5.893523024493936
Au 6.260525630502217 3.339453537629458 8.796870550997136
Au 8.09450199069682 9.741065733895143 7.901138614612993
Au 6.183747575613938 7.423890545223318 11.35933369813214
Au 6.115431645770996 9.90790998638741 9.974084563695161
Au 5.0160567505064035 5.364290590274984 3.0439007560898688
Au 4.918314429790712 10.28001840849294 5.403227426088958
Au 6.130731764320341 7.593551052654042 8.479250859973888
Au 5.894621459255778 11.57928721991015 7.767171856331833
Au 4.356810273103758 8.03649779795686 3.439420178826166
Au 5.524390239451019 2.124833555229321 6.431663479926215
Au 3.9743747639882274 3.25795585666855 4.476397484572991
Au 3.748917803426133 4.075561144361857 7.520355877605238
Au 4.01737586618297 9.543970070503397 7.984376051181907
Au 4.755001042423602 5.410311761014228 9.773382118862191
Au 3.2058345306877434 5.816977564466785 5.192081498853308
Au 3.752405501101481 8.047888245269496 10.268202750301226
Au 2.8036999829472116 8.485730704849708 5.724817986263578
Au 3.146178435788816 6.760901714885021 7.862821234262478
