37
Energy = -96.94104415 eV
Au 10.275927362602364 4.419565105443205 5.544734864309698
Au 9.398065320463193 2.8885446612208256 7.663117648105011
Au 11.48765702675222 6.787853351202931 6.297073661999048
Au 6.657620510183164 2.5650269290823204 7.7168065929459155
Au 10.15393554529415 5.472868655085088 8.355988775476
Au 7.9896278714868165 4.446287426152895 3.9095851820410776
Au 5.854195008774245 3.264729273606302 5.126487892991191
Au 7.87342657256365 4.300491886495719 9.568881922342326
Au 10.562678234307084 8.24965627860465 8.58056295285643
Au 9.7937699093615 6.6070941459009545 3.9243151365020537
Au 3.960971510505875 2.5953056441476385 7.100545381143002
Au 8.496174814724018 7.043434873242219 9.977902410401581
Au 7.769564061149741 4.977516638955283 6.701406119293853
Au 4.985900665735967 3.9906782269202044 9.446741011520272
Au 2.6238488150219177 4.88844689736627 8.02994867300129
Au 10.665772198726147 9.068258767760454 5.015713825878417
Au 6.236827705583928 5.8720619490960155 11.049701866760698
Au 5.082259832774282 5.428009415701232 6.93213748650457
Au 8.232661939825414 9.005284120948096 3.7142581637325307
Au 6.370249034870851 7.659447759995098 7.884753108500586
Au 6.563201101368422 6.977340546226374 5.156272663506789
Au 8.766210718544537 7.657143807007078 6.621179569605159
Au 4.150928312422915 6.748758691202139 9.519863145858341
Au 5.250242864085023 5.300783302319604 3.316708898390861
Au 7.441267919246084 6.716321806582004 2.388882426894955
Au 6.159780255176834 8.561541940274036 10.598121117809443
Au 8.574495067843731 10.399929445203473 6.1858068958407895
Au 6.14238022727782 11.001982630854055 7.279076647593252
Au 2.9696285858828206 7.483070569416612 7.128993610841661
Au 3.2099588833682438 4.437076118964191 5.1268184769971565
Au 4.276133545386132 9.444239629582599 8.601441282087656
Au 8.171485982714003 9.698944640863347 8.863779370758005
Au 5.448001257172156 8.571258539711051 3.2020807775955666
Au 3.471056045503395 7.094569300249623 4.468903749016523
Au 6.348769954165454 10.848641135747382 4.533188874890853
Au 6.0033367230184576 11.198469788640054 10.010737320866426
Au 4.391790551005746 9.380605115810983 5.762177688602773
