34
Energy = -88.8941448 eV
Au 10.992927628924027 7.434447734611383 6.108138897878463
Au 9.735134104573085 7.050701326534695 8.877748749986848
Au 9.461339583550973 9.524685511197825 4.958125188888867
Au 9.548208457730487 9.493824374842731 7.663655229404102
Au 10.23722256719373 4.964807519844305 4.696309743945808
Au 10.605300203268062 4.954089987990947 7.387215760534854
Au 7.300591294319566 8.827421636233757 9.050313605812565
Au 7.882161512128405 6.698511451001261 10.838354876920643
Au 8.670202694059924 4.172662218325111 9.116075171509964
Au 7.086647125940582 9.265845582389886 3.6284941293141935
Au 8.362866407496798 6.9057203172302755 6.2620829836868825
Au 9.223833461074621 7.2105342186474335 3.5459000996525827
Au 7.064176695022714 9.82974534530859 6.440114115943727
Au 6.827921299650283 6.068190544686318 8.247826289370478
Au 4.8055360936557685 9.066987802784698 7.929503394438364
Au 5.225111835366829 7.347422074983221 10.198503441522762
Au 8.351059661680807 3.6514151012222573 6.289426347673779
Au 6.28696004819873 4.4621466779176515 10.567482376623722
Au 4.705817996026022 9.328729844358032 5.151850180781814
Au 6.177002402710979 6.851543720110202 4.763886295366392
Au 7.0198425675846785 6.734745052448971 2.0142315008959915
Au 7.7093874712371395 4.585090274453925 3.717465781019257
Au 2.805304239588242 7.350797885894547 8.93778064254481
Au 6.25117178342695 3.245397822845969 8.015004561042947
Au 2.4950048825500435 8.450613947378594 6.481883333937822
Au 4.627962650906605 6.096235888061232 6.782093817706485
Au 4.720433633953196 8.151613802454484 2.6017438663165913
Au 3.922677782310901 4.889280009319697 9.26953655790316
Au 5.757758123637183 3.408588443906667 5.268222079560953
Au 5.0334992890634105 5.013194366442967 2.992398230413787
Au 3.109012294170299 6.838516469125821 4.366932802869079
Au 1.984491462324684 5.5845525661345645 6.847110637965252
Au 3.6672969509210764 3.1844922062203516 7.153950085101555
Au 3.0942576054847453 4.137468681211891 4.6842594858633095
