35
Energy = -88.45199102 eV
Au 10.486105560360151 7.315772646418165 2.7106310909585005
Au 8.165924188477128 6.265799721943032 6.785335819014169
Au 11.466241258998986 7.027048980847511 6.506118055554812
Au 5.532975477585272 2.387243569350443 5.10588492493233
Au 11.303858176031127 3.4707459101736595 5.691537073573358
Au 6.767787980646952 8.950224274038172 9.519110855070052
Au 8.359511692257643 11.062141192919686 8.967664491872636
Au 8.871232606054244 8.7942376567827 7.587989946636184
Au 3.6891890053966296 5.195196861614179 7.802910397629605
Au 6.184380899435281 6.220136246445569 8.877192699519224
Au 1.6817905740250163 7.101202218310954 8.087757646054758
Au 6.527706788697003 9.222957760797556 4.207475854901011
Au 7.502445894147648 11.011857104061573 6.380319539332298
Au 4.078253907672888 4.699823234938764 5.052760589706581
Au 7.620197750145368 11.666242540552155 3.8580044465290237
Au 8.75147909563899 9.411606158796731 2.4906540134396287
Au 5.409146346337783 7.303451773027703 11.300364448838923
Au 7.788899596421585 6.819065159671269 2.9908064815141833
Au 4.199510082570004 8.182673125281282 8.700147468593016
Au 8.637794978461555 3.5234569119530663 6.202560739744139
Au 3.055531736441629 6.266393465998768 10.287335971785785
Au 7.434721533451683 5.4949615628565365 11.275461858104606
Au 9.237946752224488 8.088196895247831 5.047591988509133
Au 9.830183542017878 3.82090082862714 10.806710115653773
Au 5.23595679619917 6.8687684145549985 3.821187460352673
Au 8.972219951395832 4.593439731035262 13.189932358581267
Au 6.059664351241411 4.111464950047219 7.068360098166267
Au 8.091809830410385 4.2585469201974675 8.862041040944973
Au 3.8010040282671467 7.610169527873546 5.991277876422091
Au 9.70070972718623 5.21173009435657 4.296126961965466
Au 10.563675644195419 3.3158583361619107 8.286179687106387
Au 6.888895317077475 4.605639502907759 4.270525609761012
Au 1.7584575977395744 5.9573238084229745 5.470801654272101
Au 6.2093540305214745 8.461173782595306 6.784523328023349
Au 8.17902966070218 11.697871798956102 1.2863587065966489
