35
Energy = -91.37247662 eV
Au 7.902411864048621 7.019116239776416 2.819091000841258
Au 8.520744820036336 9.77859669342473 2.3248228567871325
Au 7.340287519204996 4.583185931620443 3.8463256809481274
Au 5.287225162269448 6.5189822413615826 3.7204446410502823
Au 6.172078115817859 9.234100698751888 3.5220561450815304
Au 6.721659509844037 2.236687217688022 5.080141350512434
Au 4.758125199837752 4.1115500020850355 5.082617520399444
Au 10.147614019357258 8.244865744127761 3.9442497642582777
Au 2.9377349511832787 6.106609535354023 5.216454430336371
Au 3.804395339458719 8.786627853582623 4.650443878209234
Au 9.729155630843183 5.746249612473733 4.928006435733053
Au 9.15033323149177 3.3482786255452868 6.045113409381091
Au 1.3756338030532482 8.464723119952316 5.778123065456367
Au 7.564155248954387 7.579804249881665 5.612245518764595
Au 8.423445393298541 10.233027739164633 5.071561137668466
Au 7.972182190318592 1.0910989876017543 7.2380604394545545
Au 6.986120625314985 5.073702483524545 6.689765748041273
Au 5.101798225927134 7.115130705365342 6.7957744830194535
Au 3.409228668548414 9.281164354210803 7.485637269024836
Au 3.826965064013413 4.65251389381856 7.736274871274903
Au 7.4001869311462976 7.240013706740356 8.385470067356183
Au 10.224802510637382 8.108450184540674 6.630704616424462
Au 5.964040045209949 4.774985016055028 9.571932267870645
Au 5.856168380505263 10.021109432204918 6.2639451678586475
Au 5.7183473740760435 2.7241237929947486 7.682317397362375
Au 2.1006909824933278 6.747682163162353 7.807148007132655
Au 9.851699578986038 5.478368519870412 7.71793050907918
Au 8.299473666272466 3.311136934169427 8.787245651562369
Au 5.606089858134408 9.423522208716198 9.023843459758826
Au 8.281707854973586 9.922762884942232 7.734027241132441
Au 4.162211766243753 6.97923454658331 9.527489082712084
Au 7.9666435757913785 9.378478074788266 10.382347452595253
Au 10.010154908926774 7.773955671401632 9.308658336798969
Au 6.419486462730619 7.1273152388132335 11.028881536633495
Au 8.636388414007957 5.533351281949693 10.314673420916096
