36
Energy = -94.23035545 eV
Au 7.158550002736086 4.538134024466385 10.398274641925164
Au 7.025397562944946 7.175258646378342 10.919385432571774
Au 8.824472128989461 3.465259158878496 8.541501563329522
Au 7.046106858427894 9.85493304161454 11.444316261604074
Au 9.09217913352073 6.126528907594833 9.232188285969206
Au 5.8622490793191995 3.6777695143359384 8.170108532838642
Au 4.961622548623871 5.981303724305223 9.429369459790072
Au 9.045273560594952 8.860005377581931 9.821399919281427
Au 10.559957482178245 5.249477324543343 7.075924097577028
Au 4.99222768790044 8.729387428514299 9.851500226651309
Au 8.786935187499378 0.8496324783333694 7.685294076901805
Au 3.7853569965185794 5.125948392370365 7.057124028048995
Au 3.2510956802602826 7.7148029285425785 8.004793207026921
Au 10.298858149956493 7.969843486622352 7.4799280579493255
Au 7.455935099377903 5.646255888844128 6.7299917939061045
Au 10.342516519855463 2.6347945033553897 6.34200925924856
Au 6.833947302346166 10.8008623704892 8.93482956693618
Au 7.574549704734746 2.6854163476799773 6.033957691322693
Au 9.293131489742683 10.550814858183672 7.613503535502928
Au 4.892051778390338 2.8973259918849297 5.730874983632372
Au 7.344106798937746 8.196521059984745 7.689399827694415
Au 4.5863153032160975 10.051750740015068 7.490102864340595
Au 5.39429278595827 7.38032820522994 6.033600224971811
Au 6.9720336656893735 10.805395619651213 6.169536456449755
Au 2.643972825409845 7.112317547130596 5.440869880843547
Au 9.264211726531231 4.560805157743907 4.658138382150995
Au 8.975908331209569 9.196249184760708 5.189259396416118
Au 10.54748864422726 6.988794676562287 4.88954357086805
Au 6.55150483275474 4.497255191603631 4.160859834609021
Au 4.5295859100503835 11.050758717165612 4.999367170153271
Au 6.467902478242408 9.192078208188596 3.9577493605724046
Au 3.7194026970728635 4.773616237907079 4.226642677179459
Au 7.9952690931694805 6.90768968114296 3.8640927276806507
Au 3.7456848722921747 8.956691683147593 3.5585683532052097
Au 5.411636209932322 6.743335079485693 3.024056696346354
Au 2.6203211741277466 6.696389021762377 2.678413898236472
