31
Energy = -79.17128981 eV
Au 9.386865272194758 5.271033690606591 11.018869489414714
Au 6.785443815287611 6.124627844407347 11.021281016249771
Au 8.874441169841809 7.725691126541915 9.863973210609583
Au 7.607947346175466 4.218208837731058 9.077375549568206
Au 10.038419177573077 5.596293299112155 8.375315819342559
Au 9.590583809029516 8.53198231790228 7.3524931299494645
Au 4.929249708156899 5.300698270089492 9.205133271090256
Au 5.265965496057881 8.09867807606116 9.81961286919926
Au 7.104828675069697 6.833801063257475 7.902863556002335
Au 5.842737186421499 3.6088350012773756 7.095605244051039
Au 7.29780526539089 9.619538900428633 8.594988411660509
Au 8.44756880934199 4.368374732647175 6.414031541060559
Au 3.122151805299343 4.603885499551152 7.300190148275884
Au 3.087064554334026 7.31138887722858 8.411224167402919
Au 10.49847753522239 6.285410408245806 5.820461001731523
Au 9.961900648731747 8.830879034747852 4.68590499089681
Au 7.425871562336613 9.688857942877592 5.833578954687876
Au 7.8100961185425986 6.977149137281656 5.204419838859937
Au 9.168634418464746 4.975142608553339 3.7369290116058114
Au 5.269128520378143 6.105943165965254 6.027029862706462
Au 1.9847586167299935 5.220088259552821 4.7441021162051245
Au 6.598573992479999 4.175293172941902 4.25925269823734
Au 5.004995234315377 8.899212310698578 7.114526432175854
Au 0.9632245329013295 6.3143191559155625 7.046022343401541
Au 9.588319631609872 7.312366026609481 2.378622380957724
Au 4.080817806645153 3.4681548117955314 4.94671579000652
Au 7.616535104136583 9.104006768010176 3.1083255111050727
Au 6.863695553765121 6.462011885205882 2.5802910237898558
Au 5.3039774407219875 8.412752979651097 4.353206718600395
Au 2.9487348685029424 7.689083954323748 5.607756313664757
Au 4.287776560495442 5.9269569811592815 3.3901925853195385
