31
Energy = -79.63453523 eV
Au 8.296900919004054 5.002938355062395 9.36543976596922
Au 5.7239668345606844 4.276863754093595 8.696902471091022
Au 8.84611388750703 7.658305280411038 9.25569352186829
Au 6.656984427869019 9.28842004370192 9.932966474552835
Au 6.269780885895574 6.603482702584855 10.19576661464216
Au 3.6359013225625145 6.053515942075607 9.263393779974884
Au 4.143424489077595 8.350578350434146 10.639611448840782
Au 9.797910340081527 5.829139920100893 7.232917472623731
Au 8.98620569942727 10.307648654003941 8.665566765369325
Au 8.023092470045444 3.6585511344333295 7.045662687143764
Au 5.411274953611161 2.968503634576575 6.28685714918805
Au 3.1190387212948214 3.8033775673127814 7.676734389211602
Au 6.512490168192991 11.364409401682952 8.16677214394056
Au 6.90434681912391 6.856777046256821 7.344726207991266
Au 4.55751058627448 8.489196507448225 7.953187234245805
Au 5.0238043673150745 10.469734207126999 6.099107968684756
Au 4.270278528259027 6.080441636464368 6.537787407390813
Au 3.3895899806164516 8.465936165425376 5.2662542897406395
Au 10.20732375528638 8.57899830282251 6.898657815795375
Au 6.677154261738494 5.368409792815771 5.0712595424727365
Au 7.523877919633237 2.6028427578063043 4.583051141370472
Au 11.1610705280305 6.845337260946888 4.982575896887439
Au 3.2149651008052276 3.997850888250605 4.943036378844004
Au 9.46340586096513 4.691062796640088 4.70149866879155
Au 7.661095788660112 9.621279665453388 6.323859490427487
Au 6.001054884237391 8.409038773227937 4.475203401159555
Au 4.151498949110483 6.3540695919124035 3.7154444908073416
Au 8.55149448991317 7.511173855155701 4.755075718031531
Au 5.292466266949707 3.8812416225247244 3.1556568623394963
Au 6.669827688223048 6.5902511539340605 2.5425529832647475
Au 7.944882317487076 4.195775944802719 2.40469925862089
