33
Energy = -85.96296509 eV
Au 10.955515870909231 7.129783645519666 5.781082054468771
Au 9.267377844236721 8.8440787686152 4.395714280030655
Au 11.203351598446703 7.1480699169327675 8.466850250845843
Au 7.597450454873058 10.428752660911298 6.131548222442288
Au 10.097675643160487 9.490342435433435 7.031313354833972
Au 10.10232891748096 9.242642261233756 9.821768325687692
Au 8.277044571497749 10.91884564323196 8.700444212851517
Au 9.661712828559242 6.154693550057413 3.6015179502957553
Au 7.4327406471746436 7.37080158324966 2.601541216524101
Au 7.437725604331214 8.77614161362335 10.296228043756452
Au 9.331961827367797 4.9162071623985435 6.114547046775412
Au 6.8890506233763285 9.965110799545126 3.5741956203549976
Au 7.036330610584267 7.401167454550159 5.376421807938563
Au 9.289342531994514 6.601377708468474 10.38902193860377
Au 5.803001859429546 9.82030081236522 8.178548636044749
Au 8.509699278348439 7.22722743871839 7.687007820919372
Au 8.412003753909351 4.559005874446533 8.747163401572603
Au 7.403865968044801 4.702020364674522 4.123203816587328
Au 6.600165854391409 6.10917624054581 10.417970828795013
Au 4.973788881709363 9.430399946794013 5.608605111657026
Au 5.224723393517918 5.7296990895259965 2.814629125525847
Au 4.729767007570597 8.4131308383934 3.01126390795657
Au 6.058938566819405 6.0582412843448985 7.483575091880194
Au 4.782757506264948 8.314669767251385 10.238570143994595
Au 3.8758060650760666 7.859236468601755 7.662963532447849
Au 7.073431731887851 3.416148043048141 6.5925080905098525
Au 3.9442143959945835 6.8167551911159485 5.093036352866555
Au 5.851210070419244 3.712935608110574 9.228299797727095
Au 4.817359149880439 4.104719194157989 4.947499521511929
Au 3.8574316063200893 5.850817962699061 9.78983006994095
Au 3.339311637976858 5.106994764916869 7.133184735914396
Au 4.539021765107387 2.483870126744267 7.113854838989769
Au 3.078897872716249 3.3292187785929386 9.275264250012448
