34
Energy = -88.53822297 eV
Au 9.401337285122393 7.536050076703439 1.9256026222280815
Au 7.074164078381029 6.1231930731484 2.717521445549645
Au 7.18260843628873 8.934495733813076 2.676887147096588
Au 6.654757116717417 10.143189908775165 5.03129167082339
Au 4.85632778265049 8.015317833938063 3.689085315621656
Au 9.603023317350793 6.0012427576825 4.128980944317201
Au 4.177794053478831 9.220826759626187 6.179067622007992
Au 4.904098783051616 5.171874303057614 3.9618726151570436
Au 9.38406604808541 8.846362746029333 4.468902120214367
Au 8.767694372297518 9.776641914423411 6.910923855379691
Au 7.1458102244582795 7.302906406700658 5.322795029862012
Au 2.7176494311233146 7.07654166418357 5.093834428501058
Au 5.901161501001816 10.988591776917943 7.497518461281378
Au 7.473419896475839 4.133546947616628 4.685191878040148
Au 4.920343621687042 6.294436283438485 6.617765887619208
Au 2.772409950230015 4.295208962359904 5.412635034650179
Au 10.031837174553337 7.246497211029939 6.701430267157034
Au 2.6245244519932056 7.514237802268403 7.849340735367732
Au 5.211879025187023 3.4469611711943475 6.31690076467685
Au 6.502818780216531 8.26253094967134 7.860274217270094
Au 9.897472857119034 4.429172142071161 6.233807995763227
Au 4.2152204347909965 9.409195097355658 9.084957674017488
Au 7.462279090626974 5.676247484242772 7.518041128558005
Au 7.89846312743708 10.49218721530843 9.396070635786641
Au 3.1777221558335063 4.778131623685427 8.152383517158633
Au 7.6752855894562195 2.8555702951852737 7.190694911194896
Au 9.027412240129115 7.995352605666886 9.268090321207852
Au 4.6078807870607745 6.61834428532488 9.692225318532694
Au 5.618725292896368 4.003437335977288 9.090220186927205
Au 9.922351145340668 5.481697406411696 8.91032909552087
Au 6.371666204369644 8.541200696321756 10.666969050633634
Au 10.24146488371728 2.7373405772648423 8.322117639547164
Au 7.321239608826853 6.011738196753182 10.413760813538396
Au 8.140124911532284 3.4915406469897357 9.91083657993822
