38
Energy = -99.54005907 eV
Au 3.13190443494181 8.800318286710752 7.797994420183208
Au 6.4491035481147145 6.714199814603458 11.593259174051852
Au 4.549759049529728 7.895597842096564 9.965151923633933
Au 5.59827389461227 9.907864969995806 8.197314615434232
Au 7.977936960817755 11.191184833128045 8.739468633347562
Au 7.544493292955636 8.607274103333845 9.995934235620878
Au 10.206085571351228 9.60107077819181 9.319566742074139
Au 4.409067682103133 9.844340771818445 5.643114589554187
Au 6.94092914177682 10.913605452888381 5.8918969188552115
Au 6.781178145485363 3.959060534339922 11.55088791270619
Au 9.648347561843897 11.248505092291081 6.418352804159808
Au 8.282196759701574 5.639043695067044 9.854615939325836
Au 10.14908325323833 6.976409240106496 8.440627801133017
Au 3.2261415262336715 6.070272851624681 8.093260569017476
Au 4.842062762230803 5.064705594772843 10.004679594273487
Au 2.2951800983926107 7.269324499237655 5.645902086220426
Au 5.013169525314511 6.859918490853825 5.32669667175338
Au 6.265135160773453 7.009078611681596 8.001820666646712
Au 8.258511631030446 8.85650186488045 7.325670408895322
Au 7.687254517921046 6.767661355493684 5.641776270227125
Au 11.090402011421904 8.90579828982869 6.711069991647694
Au 4.191976382276739 3.335930781089669 8.027920930303596
Au 9.12056760516337 4.673983078769342 7.366621711384951
Au 3.7142256118517385 8.332628981573299 3.421230679254872
Au 6.5037075182845765 9.036918633060903 3.8633347336793107
Au 9.146166984462324 9.13061392624035 4.638454232902635
Au 10.415230155040158 6.489687947230281 5.582153444839208
Au 3.2852460210478744 4.605348554192773 5.693595180284501
Au 6.161392009313452 4.699635922794956 6.546423778108184
Au 6.950299647488538 3.333552082610804 8.894041513244504
Au 5.060534718289487 2.3449517238417763 5.578849772086863
Au 5.800000240097804 6.773140387155554 2.4986985220126514
Au 8.567076251182351 6.959393839897403 3.054832293394893
Au 8.917801917206937 4.3707775636055395 4.567781524447286
Au 7.803772733497981 2.4337741213578283 6.396507156217379
Au 7.516640546479063 4.579643222756825 2.177899796376472
Au 5.154502369009031 4.363234881727276 3.7001417509407055
Au 7.172395884240271 2.313928357550442 3.726016598245376
