31
Energy = -79.90354606 eV
Au 8.015093057531962 4.36925632387269 9.425048946040206
Au 6.024075547566379 5.903984339947531 10.799277530818692
Au 8.917728931723834 2.9651505136447724 7.300125118315717
Au 5.376528861473935 3.5812174563117187 9.534048115938775
Au 7.916517562530347 7.152345279885465 9.179078189863626
Au 6.219442914929095 2.486908811956215 7.119563176185819
Au 7.662990102419459 3.0603911156964627 4.815457929687939
Au 9.462156729395916 5.721602993146877 7.407554044767333
Au 6.109743106638432 5.426675078593873 7.508158778581651
Au 10.318737652387068 4.158485310856073 5.29640980465332
Au 5.285063328756242 8.236207344201294 9.616963755778384
Au 3.718498715394346 6.012520214965704 8.959394766567506
Au 3.613478993230468 3.5894240322220754 7.465153793369527
Au 7.4264971993449445 6.045997257003276 5.240683162914137
Au 8.960376305695426 8.43241001763364 6.919654589711002
Au 4.995050328300827 3.933175857212719 5.069902916619313
Au 8.952325683768361 4.985096567965483 3.105783443158055
Au 7.497483898176454 9.782556031186756 8.789096608076465
Au 10.124930009667192 6.9219427558866995 4.848214338191704
Au 6.34149403174739 4.3755197953420595 2.720406694005641
Au 3.4267628714383096 6.010567450052564 6.17498407291173
Au 5.8846158474924595 7.935086085683737 6.501027588441921
Au 4.967071022576337 10.645155604606988 8.36356130499352
Au 8.378630323937042 8.944699171424773 4.302232407021381
Au 7.214567118092552 7.0973400089331795 2.5523062742039886
Au 3.2852218632101367 8.429955002149946 7.600615426578417
Au 4.7550251404923785 6.378146227249465 3.75894095718575
Au 7.01225648347455 10.495650822807699 6.123900607573298
Au 3.012759542017497 8.271729054120787 4.6978590768457265
Au 5.662605942233546 9.05955275388507 3.8127853130108527
Au 4.2635328199310125 10.391831948358126 5.776713905082318
