30
Energy = -77.299692 eV
Au 7.178448783229421 5.040868869934212 6.520245346712806
Au 7.138239038453653 4.849308342898535 9.487561756676289
Au 4.588822786722515 4.491058600536758 5.466523275350869
Au 7.279006346817904 7.59607336637758 3.961961297164788
Au 9.242882369390506 6.937429211128609 5.728922848754557
Au 9.528679809805114 5.759904397054395 8.300200339836135
Au 5.733319978443726 5.51218944572419 2.966232894439566
Au 3.4706323509003654 6.301605590766019 7.204072440799782
Au 9.806458265846368 8.479426868552633 7.9295630343967645
Au 5.321825802797087 9.698433682791883 4.579923027876578
Au 6.075626821862373 2.328805540096019 6.523098899138322
Au 5.174664202711384 8.152655585042924 2.295866590066866
Au 6.306892064167359 3.050369771546591 3.863679012540359
Au 4.187780952669429 7.139960663029204 4.67136963504754
Au 8.377351651263549 4.931869354205793 3.8960461574243577
Au 8.741728185566389 3.0687138493995088 7.951138731956739
Au 7.061079025059449 11.780829630148936 4.95654758797154
Au 8.56951548546487 2.3835344355578765 5.213941927995054
Au 8.171727561944863 9.494257899000392 5.7937528679600385
Au 6.181390775159079 7.582114567853066 6.722558779461448
Au 10.210001227434878 4.398706154592805 5.987265080320347
Au 5.518002246099807 10.97512260635441 7.039481253186413
Au 4.669873913734608 4.023711548076733 8.238224146725887
Au 3.5807212443536316 9.026541122657802 6.666899277588777
Au 7.732029784090947 10.195609063718857 8.455578405169021
Au 2.764641002093997 8.145428708114263 9.188870661819108
Au 7.537323782126557 7.539007635062182 9.24014191012637
Au 6.504376497077841 2.2204600133775902 9.269043929112499
Au 5.237711755050227 9.245259855131298 9.12810750466788
Au 4.944804007982692 6.486301339589162 9.588739098033567
