34
Energy = -88.80201973 eV
Au 7.994170081921609 11.799644590338655 7.127668456353753
Au 8.742851991898494 9.726188582088174 5.384709105630464
Au 6.431501604111725 11.230986283979448 4.901830681033247
Au 9.06999438059289 7.39674987719877 4.009637019540493
Au 6.612708831148328 8.804530306920332 3.7570645407331766
Au 7.2019194768715575 9.985126223638417 9.176118644160438
Au 9.97578961017267 7.564299608851527 6.634810754306611
Au 6.836878292150162 6.3607446044735845 2.626157476259273
Au 9.3231605526505 4.9430076386034205 2.786059833095965
Au 5.35250154621558 11.120579012564964 7.48371658252702
Au 4.475986400156935 9.31636824751499 5.60701513885553
Au 6.6134346799870425 8.143538804067575 7.069448289256689
Au 9.7889214831058 9.96570098625996 7.970337451184105
Au 8.837461353198108 7.710916841355842 9.202901080265962
Au 7.123527519325068 3.7677216814296592 1.6559185868199908
Au 4.518563374045112 7.01440660924575 4.098074011739934
Au 6.683882353525525 5.89110283751931 5.6025607454989705
Au 7.958639101797324 3.38798102053641 7.048590492800563
Au 7.576362037951648 3.3953546557731857 4.361198649385008
Au 5.0397031405724215 4.309272410768046 3.317593592110092
Au 9.807435350974565 5.268530961311056 8.20128594682875
Au 3.63944662506343 6.9990065503449435 6.851106586987336
Au 6.336693670174751 7.688201138907953 10.422634389461804
Au 3.1349380360134793 4.863085390412317 5.146100353749393
Au 4.388244133558109 8.943055824199883 8.721763530713742
Au 6.941338298108755 5.774225843493314 8.352926996941903
Au 9.613895229417833 5.05553209888689 5.482790775659156
Au 5.307232041473776 3.329565192518543 5.986051143953073
Au 3.969013466658909 6.414653349788992 9.574143200774099
Au 8.211414314817763 3.68752363574983 9.790482308972775
Au 3.305252428690195 4.34931815702351 7.7588932938593835
Au 6.0529510162117335 5.002397208566351 10.951281106064949
Au 5.696107426643356 3.1486243245453376 8.719073101579594
Au 3.6218533702248155 3.803995439673102 10.392685829613246
