32
Energy = -83.01368036 eV
Au 3.734642664480607 4.648587591108169 10.21206234874212
Au 4.503542272628603 2.772143476728594 8.3809231990682
Au 2.477205182038252 6.910939306380133 9.438511519934153
Au 3.144043689598718 4.974464921047841 7.426419929670714
Au 7.034858697479694 2.908028084449657 7.472687652888183
Au 4.752763768453429 3.487192184756547 5.673698544131404
Au 6.438899735032011 4.466024878128555 9.708373655640996
Au 7.147037737338223 2.546298284927971 4.722735963293527
Au 2.438328218777322 7.5278865596814 6.738763976269107
Au 5.256749544274972 6.956196975163104 9.737810230924941
Au 4.04774849882232 6.121481019381229 5.018163531616781
Au 6.107545697643978 5.685237494307588 6.998522819433767
Au 8.846177388338369 4.084634399232332 3.2810128199363606
Au 3.810682927227204 9.150212915742587 8.663849222193967
Au 8.057463489109052 6.58857577739064 2.375450132529778
Au 5.031944164418675 8.407683941745512 6.312340156276258
Au 6.19109663624203 4.99895546719483 3.7665449775937123
Au 6.15943807827924 7.748608109507325 3.9215339490143575
Au 8.000384174346124 6.815332358491724 9.286281446555481
Au 6.659860137566658 9.13968050381922 8.800314628742067
Au 5.262673957747224 11.048603382912916 7.301716674962591
Au 7.8958548847934455 7.538152658842459 6.186504377093615
Au 9.041748898965174 4.31124052019522 8.841224173139292
Au 8.836072427744591 8.851399182542623 3.7567377857880304
Au 8.778792669970679 4.512519690509225 6.047889614500592
Au 6.8322625289998555 10.177882733703525 5.1830455657987695
Au 9.99238009688469 6.343821851790317 4.403213507010249
Au 9.38283725498337 9.032649422322084 8.119200169567273
Au 7.936802384067046 11.378915978869225 7.735616151290696
Au 10.193670724404102 6.417421273392827 7.5558337740957136
Au 9.541508178547138 10.650213240932032 5.705715892280766
Au 10.996124793317414 8.381720265924448 5.8710525362524235
