36
Energy = -92.34805318 eV
Au 6.700516804186656 7.969990781313027 3.3221535091222494
Au 2.558442927909024 5.665308023205678 1.500066347956848
Au 0.9488011033844458 5.637853267880977 6.42176067206341
Au 6.907257890069054 9.48394791793935 5.754982800337405
Au 5.39812217622969 3.2922961247953375 7.870231027164527
Au 4.818015668557705 6.577608911360851 5.0726058708822155
Au 6.5879012241098405 9.592519256430048 8.462896658184315
Au 4.7799288363050305 4.735253828296952 2.829223080894701
Au 3.357592467255713 4.446952223279772 6.534883205629522
Au 9.13071773989476 8.952767842738423 9.974087986785232
Au 8.787133258998717 6.186386541646275 3.207094646472705
Au 2.3370398099059955 5.438479416328085 4.154584988366925
Au 10.085216628200124 4.054383510048759 7.566513507325657
Au 7.246188204598839 6.893901339024671 9.954149443741127
Au 4.884298974616439 11.138074590275858 6.585127920720115
Au 2.748826598463041 6.632273359764103 8.233917276195417
Au 4.128518836484187 7.53068038014996 2.577310717884522
Au 5.580242865544706 2.137871537880898 2.6327835013497096
Au 4.19995405212354 8.60690843490468 7.081991241208193
Au 8.898818948096276 8.480836872332883 7.3277881781495235
Au 7.526737853602557 6.354045628703488 5.695306384150271
Au 5.172381624482565 2.966425178971502 5.164723456920491
Au 12.18764973464027 4.400687157379022 5.924663243081366
Au 9.82164369288995 6.444044043784107 8.920704850850266
Au 10.398256099673137 6.493620009228217 6.055270827587014
Au 5.281525253367946 4.971209405772798 10.05475608637307
Au 7.707678036846204 3.281319592202915 6.304748296337845
Au 7.3248312092047465 3.9667119696532263 3.580973883820536
Au 5.6293829809202744 6.186543845990212 7.627982527010252
Au 6.4924501649394335 9.21781465641266 11.201401761619508
Au 9.817761833998189 4.057137745850417 4.668794377197347
Au 4.5853186774554695 7.914939670779546 9.791409475372468
Au 8.741400518821745 10.085684377647796 12.331254893744662
Au 9.205276059831599 8.518971473533997 4.574602682016639
Au 4.4627987231369355 9.462094104173875 4.410829779350926
Au 7.778721871846008 4.441806330909756 8.845774244723943
