33
Energy = -82.58621429 eV
Au 2.76333134799913 4.692502675719235 9.755398570485063
Au 9.803544003395631 7.431963279753533 9.994679191496505
Au 8.184364523058353 6.289939325160602 3.1322333481631666
Au 8.128686086141352 9.30486155683861 10.705049279301456
Au 6.277603571502375 2.5387666951044032 5.865704767817622
Au 3.7886743867067554 6.806801103696281 11.076785046451628
Au 5.8791782247555755 8.217888978572073 9.728374909050435
Au 5.467083312234834 5.251003306788366 9.646100872281915
Au 9.502568404261115 5.241555892649498 8.065480417703876
Au 9.612038348750444 8.524237385898077 3.2521822848665702
Au 4.269186257453577 4.298951163675966 5.187036412351939
Au 11.77058603373815 5.7021298356372965 9.424605442751075
Au 7.120305445478046 6.557699103518709 7.840176993815167
Au 7.577554554557052 4.561073055483552 1.2001342214207946
Au 7.154767979529558 3.788056164930369 8.143951869812904
Au 1.2053376723407025 7.20189679047145 7.343426076104545
Au 11.637289086271903 10.33903470899627 3.5038971843826547
Au 5.57389698591592 8.574029383704799 6.806549922766499
Au 2.2210195598463436 4.697876553854762 6.920127453019962
Au 8.09220808211837 4.86568883752359 5.724674559499178
Au 1.908441660471061 2.505771877961841 8.409044402698633
Au 7.370451475101416 10.430196515559091 5.945493510601235
Au 8.56647521264342 9.044310857575894 7.99859226176352
Au 4.50729470803363 3.197495940585715 7.9136594248973315
Au 3.5528666206059554 7.688881272002238 8.523609072688584
Au 6.57151806428974 3.9701327686088876 3.5567395884265967
Au 8.185912911485135 7.764322582830934 5.488133243883257
Au 7.244509474832058 12.811444604278531 4.757999951960673
Au 10.419211741830447 9.437880209495487 5.829484725022591
Au 3.477974966821715 6.899085340522542 5.8748344343374335
Au 11.060933734562965 7.568674127035081 7.548180051706494
Au 5.855583151614418 6.509898784476261 4.753148639835522
Au 9.25213141949242 11.288478328929715 4.087040876474828
