38
Energy = -100.83693774 eV
Au 6.247444486616993 11.182461769040055 5.53042883590297
Au 8.031231065395154 10.302137341306924 7.548213470482477
Au 5.1767835151050585 9.939119896209563 7.6990921066703875
Au 10.521222367156083 9.30008841081357 6.418299200659467
Au 6.894297086157853 8.746788397084194 9.556886075324293
Au 4.267509723089416 9.497242040370306 4.720355140146948
Au 8.817969630276622 10.563220321185753 4.816594958699922
Au 6.84204298048603 9.416127146981935 3.27455628872284
Au 3.881851501285637 8.421636149064039 9.561921692777513
Au 4.649628924081566 8.04263213446807 2.414328751787525
Au 6.855476461660985 8.321732072233566 5.905835140054387
Au 5.636226539089699 6.725867832893604 11.029854179033846
Au 9.577581926136249 8.455090123015298 8.901829040592936
Au 2.9975920361684043 8.466322532107677 6.926349921854147
Au 12.231864028181947 7.800381842677349 7.988737073064997
Au 9.182630132053703 7.946083960189283 4.093047969968796
Au 5.482874231134906 6.759933906755863 7.903954612198485
Au 8.087015112969226 6.255960429079646 9.94468993771123
Au 3.0041996404167537 6.999075935874877 11.718990352539409
Au 10.885367915028013 6.649681456659962 5.81916318781416
Au 10.46397923844499 5.84713003648643 8.5733852959648
Au 5.868233607212134 5.826686118604456 5.371207539931906
Au 3.5095272416616696 5.415747455722563 9.589555309080927
Au 8.66020582604244 3.8076201033727 8.553812845681687
Au 7.109637784308151 6.614272777082631 2.855754143338591
Au 8.102843601363906 6.136524130507113 7.000264087891549
Au 6.1251582595446274 4.3299393122852745 9.60184401105194
Au 8.99338226850026 5.201998786651205 4.338915078080662
Au 3.208490124657805 6.932299866378176 4.56999353854179
Au 10.51405982605549 4.007419240782836 6.405374737813745
Au 6.700424984561072 3.8030313780173084 3.622213853788554
Au 4.624700950500493 5.341599733630326 2.6770346895307333
Au 2.7942823096796503 5.765826438807529 6.995455833954276
Au 4.266616868913431 3.5422456364219954 7.699559571944391
Au 8.090270382483753 2.9556479942946567 5.848817058394796
Au 6.632506051736464 2.0832969380396 8.067982173109323
Au 5.450866111191113 2.224654723722419 5.575308049428299
Au 3.6549619111848055 4.144180638383644 4.955821408921573
