35
Energy = -88.64840177 eV
Au 2.7516680835618574 5.98558614726169 7.0682994196585325
Au 3.740750308332439 10.307407752233111 6.2929478973590784
Au 2.53215559730835 8.09681868327891 5.189544162487434
Au 4.887854044618085 8.932644088427974 4.178326088982752
Au 9.1151977864514 10.123605204930648 5.418808515113411
Au 9.529841482395426 6.952869483017579 9.04041984283136
Au 10.68402342476099 11.720449728008944 7.054902390692133
Au 9.480181707429558 9.526342475839815 8.164751788703988
Au 7.311151455406533 0.9256853709449471 12.666860710751394
Au 5.447364899103012 6.221915138400077 8.037175092495698
Au 8.59009656690713 0.4018902103955046 5.99185071960056
Au 8.039081589218766 11.83368289096391 7.372287392587207
Au 9.616148732218706 8.134358710636334 3.681016450142363
Au 7.321194519910499 9.761843716918472 3.277832301594886
Au 1.8753337129106613 8.789341950656937 7.841297018225635
Au 4.684848968128785 6.2943924079088145 5.14159228677821
Au 6.259925651245496 11.026140504770426 5.445801781757672
Au 6.561857102786409 2.2040324535028955 6.366369071084487
Au 9.520456171030645 4.93725411634612 7.136221103237243
Au 10.511186251951328 6.240778198692828 2.083032262905038
Au 7.110254437188089 8.25313295630642 8.678034498492254
Au 8.753418275353697 7.491693189209155 6.354808016981406
Au 7.0246461974959455 7.14128519472199 4.086724216613162
Au 0.32298161640990114 7.098806775171624 6.527477461299423
Au 4.534014640112399 3.9553220620764393 6.7818101514917775
Au 8.903387986198487 2.160219028752267 8.053877522313718
Au 4.3975487370158906 8.481386304905124 8.950083210323408
Au 3.1058805176208435 10.904996466510557 8.950765523895916
Au 6.717569590261214 3.844488238992311 8.598945543291316
Au 7.835129943278406 2.203750142265439 10.541151723281574
Au 7.031982208224941 4.952420784617125 5.757897570532114
Au 9.155531226696699 2.9294172119611823 5.3047905064038305
Au 5.766922827009168 10.748088028596785 8.172355375801523
Au 9.202232650512025 4.411727061995813 9.767489327812614
Au 9.483060275844549 5.4278769139089 4.387042531722403
