30
Energy = -76.52654536 eV
Au 8.07207466424026 9.44443628629645 1.4199185140517694
Au 7.394577327057624 6.807571649600597 1.7783750310856634
Au 6.478313326866527 4.575759746943111 3.0389291413124533
Au 5.480728810309425 8.91783332967813 1.9788227048406313
Au 8.693561389996397 5.9503613783508085 4.009596387319569
Au 7.586138476418674 8.62508057393854 3.993331426758168
Au 4.526006665975901 6.4699149978995205 2.6336974498091466
Au 9.039682080780038 7.749503013681781 6.178043857472633
Au 8.231361256990851 3.1128926574467517 4.51441269577876
Au 3.9026592767547594 3.8705007917771153 3.7921805937345097
Au 6.453629182243618 6.693749027304249 6.025921634688402
Au 3.8246640684500037 6.144773077432836 5.257485619065232
Au 4.757185355383144 8.737807911995297 4.5484164988177715
Au 5.932155720802766 3.951349629512773 5.776392186919816
Au 3.3954403614027626 3.2261215774913135 6.4941921038584685
Au 4.2764741596263125 5.494874167077658 7.857094510625766
Au 7.883779267450026 2.5186147312948757 7.271266156157733
Au 4.243957655021758 8.184375770876851 7.163319294085776
Au 8.73459778577397 4.9913998164823035 6.5665588753592345
Au 8.481904022112511 8.921511069071503 8.580043977722555
Au 6.693881239478602 9.475719581869724 6.511429816606458
Au 5.518691914024012 3.191854982596368 8.516965198003241
Au 9.81526603616153 6.494262065001929 8.553253424611528
Au 3.7919808986163575 7.39651680499401 9.759219758814542
Au 8.047783302524836 4.416754378792046 9.248506023037255
Au 5.773951408949823 9.27028196253824 9.143121811050712
Au 5.70150774662548 7.8125795700934955 11.620852605176422
Au 7.714729683178867 9.54604490998983 11.119371231115759
Au 5.676968018462995 5.383056311565879 10.260527649649962
Au 8.068392135439904 6.816541465525652 10.580797059590141
