37
Energy = -97.15198228 eV
Au 5.662422384638885 8.879361334808593 9.819617852497968
Au 4.892055402239953 7.328502489479381 5.316446049132362
Au 4.463531016506677 10.065224253921725 5.329253718091237
Au 7.261007719072966 7.577798369719569 6.722538196516393
Au 5.275220875049222 9.13555508157046 2.7452954044652347
Au 2.693138329418966 8.890550184304928 3.2068807502736707
Au 3.831243703104291 4.497886925794345 4.7696152881997165
Au 7.214550077040442 9.578458106551386 4.600492003912498
Au 6.819280887140802 2.49946502169999 7.283899882010814
Au 9.398784686870995 7.718371880244177 4.687762241590232
Au 9.108341934777558 5.339086171714929 3.303371297484122
Au 4.448573531862441 6.417996059426981 2.7283735147294603
Au 8.149269110519537 5.332003410021026 8.012503112212999
Au 10.164744470627275 5.221393977943683 5.800757940131291
Au 8.32492517207496 3.1917766567732833 4.8251350146916545
Au 2.0002728598088324 6.34816000165403 4.2684992823878565
Au 9.60422128276332 2.9124830204836076 7.244537582130574
Au 3.998506582899564 8.635775262931897 7.772645574693223
Au 7.039916477796746 6.636681281829005 10.397438791302966
Au 8.853603670827875 4.538144726100551 10.646446306285398
Au 9.804109864397514 7.059758612881827 10.13949547834815
Au 6.438700443729699 5.104822604445313 5.887763289348479
Au 8.278834559491882 2.146180004556878 9.555937330342838
Au 5.624616961880981 2.499011950222152 4.854525736500792
Au 7.199168756077007 7.239406361709554 2.9956298323475976
Au 10.19431033951845 7.495543592018706 7.3961725928038415
Au 6.162573681398577 4.053080863450474 9.606783468661579
Au 2.0637912432288097 8.612333749453759 5.946681438188376
Au 2.922920054090555 6.100483185750559 6.991881289368937
Au 8.286039141313388 9.034586613673728 9.073077421328303
Au 4.385146018435815 3.8382749150560858 7.482779600280002
Au 6.435716773440199 4.532734029870362 3.0934033323980077
Au 6.3755033431631105 10.193110443123718 7.346925040310529
Au 10.885539675939706 5.009289517057995 8.550190257276627
Au 4.600274903767704 6.266425821536622 9.143928529271466
Au 9.090587481907374 9.84867988131111 6.545909334366628
Au 0.16308628489396743 8.33613333862335 4.021935927834169
