32
Energy = -81.9265985 eV
Au 10.084409108046152 7.381722869255544 10.37288717229482
Au 7.984244721927859 3.403584328247719 10.336703615697546
Au 9.658411919174837 5.098041759292714 9.020464690396617
Au 7.364843966456866 6.103422733237732 10.53131156737469
Au 8.11803934154024 8.265435409755549 12.048401003666052
Au 9.659918297880221 7.428920023198575 7.598556845313698
Au 7.466688501083152 3.5779422274426382 5.541434460918952
Au 10.076221676954212 2.5424358443354644 5.278303419363948
Au 9.926535969526608 5.09277773952199 6.266514838070489
Au 8.320796153213847 9.24767614163509 9.410056581967478
Au 9.310842071153038 4.492296673308903 3.5987152158447766
Au 8.966585702997211 2.7053110218054695 7.790949952361736
Au 6.839056625264436 4.522917086098522 8.1184201491686
Au 5.8653637786914965 8.544633714154942 10.51971090866216
Au 8.700946512732832 9.803856638876207 6.763412739728277
Au 6.873152814567161 7.090446823487258 7.004215383410854
Au 2.353355090618907 10.671179079708104 4.214293757310533
Au 5.014084081873827 6.307162938589121 9.018778786365145
Au 8.713240796425428 7.254310968155786 4.872923214871012
Au 6.10432126100275 9.734555642126711 7.878020394964093
Au 5.24880614727924 5.069511969920434 5.9053961750503365
Au 8.790219998419257 6.659027812692195 2.0850663263045255
Au 6.608759901548195 9.2305278279084 5.151130933776918
Au 3.328535992945252 6.799403914188521 6.841238896073522
Au 2.305843390952409 6.6414237369868125 9.372979507793247
Au 4.006004764138454 4.970414232373181 3.476797174610871
Au 3.7376370707820925 8.841341819129823 8.779252128026302
Au 6.5998728630011065 8.050382881463987 2.6667566925912287
Au 6.699656858777012 5.3099107167558905 3.444994977756788
Au 4.466796798107108 7.416124668050044 4.48389115616185
Au 3.9265766283117056 9.691854417855202 6.141394857453345
Au 4.658541945120517 9.829757090955177 3.2453372271624032
