33
Energy = -82.87346136 eV
Au 1.9179641690763989 8.548944874608626 7.870820121826097
Au 7.00056966253419 9.896232744077828 7.193851720220501
Au 11.027952879684607 8.166255919474517 8.565086474237836
Au 4.494519643097852 8.741114111171129 7.048688411032537
Au 5.560460724774018 6.074800116186685 6.727368675484297
Au 2.9093431100875056 4.36457873676242 10.836532671886399
Au 11.424530440933589 7.559813114986652 6.063493490787836
Au 8.28766712584927 4.5348570360611165 6.097489540245034
Au 9.135795567919192 6.896307652581989 10.11576605475161
Au 10.347781436008644 11.523151301559038 4.648476935799735
Au 7.81898884370322 8.111561538629287 2.794562984446708
Au 5.343194668922372 11.025406323004411 5.378340849465617
Au 3.682006913996329 4.125683691249118 5.659043566160702
Au 4.050004465387033 1.5779674833171413 6.601271214764749
Au 9.779941389156031 9.763813106735839 6.672273364089713
Au 4.983547870222447 5.476185633444668 9.451077801483828
Au 10.180013495705301 8.936415249336182 3.8957983601141875
Au 5.795499456337207 8.46747325759694 4.577605647602499
Au 6.674132924710602 7.639293243746654 8.726447820553192
Au 11.97280459815101 6.97350569142891 3.4684535360788606
Au 8.649862626074821 9.572558837346145 9.238683466159518
Au 9.56262739687669 6.191429090212352 4.412471434504889
Au 10.536014858120284 9.006282756736638 11.103840762198097
Au 2.319991020098878 6.0403185640376025 8.780084202590489
Au 3.298826570348516 3.5292027665758656 8.293846722984323
Au 7.698140769875716 4.994464097753641 8.780341438652368
Au 8.565759121292762 2.582527876224956 7.951320275179807
Au 2.7360673701127376 6.597377765687198 6.187066588087747
Au 6.915435610393383 5.938543361491032 11.27163270424064
Au 6.9214455410312965 5.950498266217758 4.282197587240884
Au 5.995520721235383 3.3008410336895158 7.33417798750818
Au 7.876290045913898 10.360335414087482 4.539292362306389
Au 4.248740826664117 6.234647061734452 3.9741232081561746
