39
Energy = -102.71059976 eV
Au 8.909769197978894 4.111508113231973 11.795656588752085
Au 10.394052032988629 5.8435075942995445 10.250860148228984
Au 11.909783329846393 7.802901900341763 8.988940565065109
Au 9.544811539031617 8.491700680611189 10.132304241570901
Au 7.842515904794707 6.603251527985905 11.283527484620473
Au 8.65024334075832 10.760393287494065 8.941469423314349
Au 6.788407291650204 8.912702292698974 10.158174273348095
Au 11.318233430072956 5.482181637172289 7.606104537499077
Au 9.570067688654571 3.358893316990822 9.211008879565489
Au 6.840497170799865 4.3129782135017125 9.930993975943958
Au 10.946721595937218 8.025967790609212 6.458288118824471
Au 10.100778113393627 5.778756730285706 5.030663239843781
Au 8.557047207806782 5.610259720933549 7.918345302198331
Au 5.9537895681729465 10.89332855430755 8.322964898534849
Au 5.1611025029587685 6.616873271306314 10.658950786490196
Au 9.658757722233483 10.41279847639859 6.326372192991634
Au 7.868614507295656 12.432938438588959 6.895331551809376
Au 9.882911966837899 3.4145306574666194 6.489560122796861
Au 8.18841622339467 8.360586423453036 7.62325845902437
Au 5.334927491184209 12.328034148347507 5.910332094435709
Au 5.641294976990753 8.708105106645144 6.354292697726115
Au 7.342708805341424 2.950997275349765 7.461120783675757
Au 3.501119505539054 10.537570206460826 6.895918671400381
Au 3.2676741671589573 6.06239311591365 8.69579732729268
Au 7.3398439677215706 10.591688691334785 4.805332636061123
Au 4.805893764108372 3.878055565325064 8.132161289944671
Au 7.321786800250161 6.5970156086733835 5.642244184914197
Au 4.2556894020713445 8.733784725996536 8.967710008934624
Au 9.195490895910716 8.463719726750726 4.3485350234987346
Au 5.9867100376698055 6.502827590611572 8.05239996491252
Au 8.184964540286538 6.1756818856081 3.032216466729713
Au 4.569265343548095 10.23281251644472 4.280606960181037
Au 7.9154731548475485 3.898683423911262 4.650998649492368
Au 6.482292110361406 8.308475754562911 3.4658089375678274
Au 5.395681541001351 3.258371109498032 5.525053778253665
Au 2.7745665048825487 7.913932133783336 6.680182620457582
Au 5.5862113050655084 5.357818656255611 3.769971440877503
Au 3.9277756618091035 7.515370578632758 4.2237398106785715
Au 3.719387854811685 5.385046840749987 5.972703304606803
