36
Energy = -95.19423649 eV
Au 7.7070898131929315 10.016134430985527 5.153960849621025
Au 7.953022490357595 9.867323481801487 2.4653557906222456
Au 9.757536840603134 8.808164599763407 6.59833006684253
Au 11.774960192745302 7.456152222153901 7.873981396090374
Au 5.127296112785814 9.794141636192023 6.323084362249368
Au 10.352370314797497 6.176019037643734 5.861216566235288
Au 9.298939405597912 7.929557874211045 3.979254629078145
Au 7.2079028536720875 7.211027832739809 2.3576026835115105
Au 9.534321781081387 8.19623971775056 9.291439554822402
Au 7.509527769838217 9.769236630264693 7.842848619507859
Au 7.3224110558903845 7.3070775293008525 6.111116479561275
Au 5.532410408904221 9.125482664241217 3.63976979588729
Au 5.09222525349879 10.014748551823391 9.08704725992595
Au 9.885850856085352 5.504204310396007 8.524980213336118
Au 7.211901994871123 8.946811703631992 10.44812129492284
Au 6.488645886052658 4.622067130523213 2.4002774485433482
Au 3.4505337802764484 8.233296442842216 7.917470461925836
Au 8.892355921579473 3.89768771006775 6.451467542101241
Au 6.4370287756769375 5.241100032824192 7.6059943226991775
Au 3.2600843026602195 8.289537857544886 4.929340471181492
Au 8.560408659786072 5.236024798407813 4.04809484182671
Au 7.729481183945564 6.262048885111553 10.164973506288877
Au 1.8501376152800737 6.513010849051999 6.6704253826581335
Au 4.569324308093231 6.642173619693744 2.853017796834544
Au 8.011082668451404 3.6531442393149125 9.20518566962371
Au 6.962228321217136 2.0977741197778084 7.2060020458804015
Au 5.054450387484155 7.293548099301551 9.988851415241752
Au 4.87327456475472 6.179899588915046 5.7060494641939785
Au 6.955329476803492 3.048270561063007 4.602911741446767
Au 2.323163109804885 5.730644803935689 4.116975698488148
Au 5.557200336874896 4.563070314556423 10.273816559093236
Au 4.33577278386784 3.8694224812455578 3.857462656305434
Au 3.436574172988302 5.520359194735505 8.675136432712442
Au 2.9348344931065418 3.9922558368128964 6.3042521111625405
Au 4.59391075463907 3.0189094389789823 8.265786576498293
Au 4.645992185938681 1.9006914591850614 5.734016815117881
