32
Energy = -81.849024 eV
Au 11.940141291326 3.868089881350335 4.684351403604653
Au 9.50227533368113 3.201470731541887 5.753863283570495
Au 11.03543205169236 5.331660397066268 6.781411410001723
Au 9.890763008235105 5.466152680228837 3.971224260503857
Au 8.868939050985855 4.200788376555698 8.274915384777719
Au 9.974087080094378 6.738062447944353 8.817343481743901
Au 7.0068453044396675 2.8707511476607523 6.6906380440672635
Au 9.0368096972623 9.07385209716712 7.664366482826146
Au 7.460609678957179 4.1402139374940905 4.121871950178192
Au 8.079604629742521 8.252237246804356 10.21990874607855
Au 8.156864560089419 5.503644305836271 10.577888552207058
Au 7.062760473310331 10.573110864421459 6.751682851237863
Au 7.745267990203201 6.6848142228715774 2.954741917839069
Au 5.955555336928065 5.5805706700975986 6.359196213125747
Au 6.45902077961656 7.869407932045607 7.7589643830241135
Au 8.588401602509723 6.5503780617472565 6.265239986411503
Au 5.00695532488471 3.2019124764851856 4.751775127913917
Au 5.475330598121453 8.292217392708373 2.649477806739052
Au 5.99796883014894 9.895726566098903 9.567867473913104
Au 6.22680810177858 4.310631616941963 9.061436320644527
Au 4.306219290074754 10.44334737976751 7.373024958103237
Au 5.374137327927787 12.448376379761607 5.808037036401006
Au 4.770741642078336 10.123317210052848 4.632722841617577
Au 5.166589759802284 5.62724438462109 3.4808776804835073
Au 3.835460454284255 5.666467137994694 8.507214718022905
Au 6.72157469887111 8.159332644455807 5.105947583303923
Au 5.6838198326193385 6.845720492836423 10.232483747831573
Au 4.329011475850887 3.1251554155750068 7.430062763046353
Au 3.2268962307760654 5.149540182062753 5.71069765002597
Au 3.7582546516396524 8.389008435868158 8.975606509411081
Au 2.283672616712418 7.41204707598359 6.982961024516848
Au 3.714892083773448 7.646460996371688 4.723909195245768
