32
Energy = -82.60642489 eV
Au 11.87926219023329 5.30326483537223 5.147753422640572
Au 9.596980146800407 6.811436995201852 4.217985269168338
Au 7.142156490560196 8.099148319106547 4.017454912337823
Au 4.624681740963393 9.197925800836826 4.312985744398307
Au 6.695031426271661 10.43671581327142 5.5721617740121605
Au 9.089866653007325 9.161721705127736 5.797196578791255
Au 11.274931808240659 7.653959458293422 6.3031366191000675
Au 9.507933441342995 4.0577160491769595 5.011588702306304
Au 4.739986859560942 6.530900603653464 3.910656672015962
Au 7.312841096157148 5.321079955619206 3.7586604552690197
Au 5.056793121537081 10.770659651288804 7.774739471768665
Au 7.526306008700104 9.54156200202509 8.104305884139155
Au 7.931372550424899 6.479171492960143 6.5476117892149075
Au 10.33139804323157 5.241986587773759 7.55453777405094
Au 2.9366733862447725 10.283025745452559 6.1753373973214565
Au 7.149141415908536 2.7285142838189858 4.853207917054749
Au 8.208820756904215 3.4796029441028997 7.436389751544423
Au 5.540807149091366 7.734907800951021 6.670896165541481
Au 4.918369879338574 3.789689757438114 3.631795620773393
Au 5.674668751206217 4.932045330851032 6.144775032249473
Au 2.8949227043122017 4.927580750463902 5.249050010453647
Au 9.68529723798947 7.809299683393924 8.495987560931054
Au 3.4743419498926165 8.516009046892485 8.43102534501807
Au 5.966394164001182 1.949690848120516 7.207129285530584
Au 7.807807495161745 8.048842723918085 10.446544448473492
Au 2.7368962985126744 7.599133807234612 5.752978056327199
Au 5.492143963096494 9.471047281334576 10.117631587227125
Au 8.097659402672363 5.56693184661205 9.270179235283239
Au 5.482569019193392 6.7843185519363525 9.54222717486622
Au 3.426332494149372 5.836558117188287 7.918121966092311
Au 3.5285099529411332 3.1927598411991083 7.319294758254154
Au 5.761855459512179 4.191893798400465 8.819335254589246
