37
Energy = -96.77563103 eV
Au 3.9749350358954767 7.809232591626594 1.3311158738716913
Au 5.655307141968851 9.235597847489027 3.0577413482709788
Au 8.284321265410863 8.540777952263971 2.4486533431185142
Au 3.279906286624366 8.04660713160567 4.029216473145675
Au 6.365064697288168 6.597455159220151 1.9118318929556064
Au 4.003140730039178 5.532399813279819 2.993044521922192
Au 4.999282657051301 9.687193826413322 5.688577217059523
Au 7.704130328177393 9.5301491455909 4.973455667265275
Au 5.906359957292888 6.975266571236494 4.776554059098452
Au 2.8250532230880627 8.157341846567935 6.683308679091216
Au 9.984457726888056 7.9173546136929325 4.534887960517457
Au 2.9414084946679684 5.623645704916343 5.611724743990895
Au 8.762787131407832 5.871390140960122 3.1236547171562656
Au 6.51048704497679 4.209703646543419 3.28007260422193
Au 4.308185280979977 9.71913550984123 8.365255036299365
Au 3.1800615750387444 6.049414050226967 8.410651165751403
Au 4.258301834541937 3.3560437099315052 4.6596060906787695
Au 7.080007286388192 9.84985682828458 7.647482127046186
Au 8.015970932342452 6.732153587582192 6.507932083196021
Au 5.934142306794423 4.845689619204274 6.4621704275815395
Au 9.622953587375417 8.937908793218263 7.014165372941434
Au 10.311767345432353 5.388486907268179 5.517319154518295
Au 3.6188757425830347 3.480645817066215 7.349258383090505
Au 6.24773937846257 9.403823494903614 10.235941420874896
Au 9.001525008273298 3.3689812654244857 4.190283159514868
Au 6.743271477895374 2.322478162079971 5.342644886655468
Au 5.5712145762452 7.360208662063738 7.624970786880064
Au 8.631969947959005 8.174099938894889 9.4180801107046
Au 7.475076884361614 5.098781795313715 8.883797302264176
Au 10.095761462127829 6.023962963784278 8.208925875464471
Au 4.847065451464616 4.206089963286461 9.721064364142972
Au 8.768625075483204 3.587614799490671 6.95635161069124
Au 6.317224938382655 2.595781668334419 8.045509837424888
Au 7.341756881086401 7.579599077109989 11.859419819986687
Au 5.000798005898167 6.9113359313606475 10.353438367387788
Au 9.27852160282656 5.865138577419703 10.867123593903937
Au 6.760504362234561 4.923925333498656 11.525956667999584
