34
Energy = -88.2360546 eV
Au 9.386317312301868 4.467745893473613 8.50706814371794
Au 8.086649097033877 10.657039235306463 3.4572790026012785
Au 5.052258548786859 2.4154783373512454 8.688050892543892
Au 10.719934493311262 6.876192118586066 5.087462125243881
Au 4.765181278310383 7.416586215569422 8.790589647065229
Au 7.236431445470407 6.22211213610828 9.05668729090244
Au 3.966636044023567 4.683568625156025 4.119469121646508
Au 9.400079551994047 7.158190536940012 7.6364953315866195
Au 5.921639713206191 8.827825056196517 4.261211635957571
Au 5.711004939567015 6.385450194206166 3.0316884831950217
Au 2.120454193347702 2.9090454366135727 5.092037731122655
Au 5.314682278936453 2.4719171457237485 11.414979045143962
Au 6.834704814247321 10.820097888471375 5.977644328967026
Au 4.653652401023794 9.252997374979817 6.641250227494551
Au 3.6621997514826097 7.371066681726132 4.796411970914996
Au 2.453173493375103 7.8603506883064185 7.340406032090155
Au 10.01721365320058 8.496714325155581 3.10012001507224
Au 7.82539170125121 12.955275309019056 4.729851872185551
Au 2.544421104541645 5.727892886085165 8.999564730986677
Au 11.562152704435068 5.466294768363224 7.227643056112566
Au 7.154851137403725 3.4122577684029407 7.1872846094438145
Au 8.438149429977024 6.133849991232641 3.5734020909774165
Au 8.72287241046308 8.790824680581116 5.535994353409681
Au 9.182862900878654 4.645543670451861 5.7390488732146485
Au 5.04432277108564 5.115226301668149 10.207464113799361
Au 6.70344505549358 4.2804305672835525 4.59937630995046
Au 2.926360188104636 3.386368773965066 10.39126375049575
Au 7.073536139755463 8.561391811126724 7.669480932243359
Au 2.1742630364566295 5.45854789931624 6.151940948947159
Au 9.147266215005338 10.061536110364745 1.0634399118958247
Au 7.355172525669715 3.5079066323300983 9.975208250020525
Au 2.522903198874087 3.1539362763469816 7.7425950371636665
Au 4.749138487395333 2.9073692710355634 6.051507443774355
Au 7.429310676024972 8.168808774747308 1.9925954571809872
