34
Energy = -87.91999043 eV
Au 7.593102626531789 4.601882642244742 3.2209073347384605
Au 6.839946308989668 6.16697646360928 10.292420861848385
Au 7.717025149231652 9.230258143183638 4.602948485186975
Au 9.167979229750749 6.6939962333799095 4.03530546583558
Au 3.73448572016341 3.187183896808074 5.012462914166536
Au 10.399178371103158 8.874482721697175 5.1894285323541
Au 5.203415078638507 1.9562134342641546 7.039965610865361
Au 9.922351829113348 6.515309591204232 6.708768767202167
Au 8.347524725795079 4.96022194753284 8.321816831723527
Au 6.775627492902821 8.313106861638309 11.924685542158912
Au 6.986770178884147 5.980274360801207 5.650996819927176
Au 6.003296473715458 9.90428804532377 6.864429773534975
Au 3.091338403651368 3.5694943744704117 7.812237778452008
Au 5.727322819822113 4.139692984109493 8.665206606016131
Au 4.1430764511649185 5.556398017420196 6.277928634703059
Au 4.998330249971588 7.86009248545095 5.129571701214034
Au 5.4545720932370845 9.769906068006213 3.195930484693499
Au 11.160167800282677 8.663496635755903 7.870879628066681
Au 5.066267176139518 0.722673186998494 4.62072527125632
Au 3.620222596639395 8.810303961815974 7.79062193866374
Au 7.024536040985457 9.32855632831017 9.410131847544298
Au 7.7958854450341475 2.475590809225291 7.520974029678793
Au 4.61284040147799 8.112328022622624 10.242541933732978
Au 9.078119969751599 4.13032586031851 5.6673723290980496
Au 3.6450051623752384 10.239093971279875 5.481035784672277
Au 5.945177722051194 7.12585786958987 7.836721666873263
Au 4.867254929402608 5.396972407747845 3.6294107718137885
Au 7.3433432474371525 2.2285830369452726 4.8425276586785975
Au 9.110041699369532 7.4655633268679376 9.240536594271477
Au 6.7177319392980515 7.320325541928255 2.821215611944946
Au 8.633782824959464 9.496640021528302 7.232521659910128
Au 3.4802555549263072 6.066145199659912 8.908790689928301
Au 5.4907209033107645 2.8531856144934538 2.8925995856382487
Au 3.3069821874211134 11.28825873729734 3.0500596571371354
