33
Energy = -85.26062459 eV
Au 5.143445540279415 5.610814171811702 3.2420150125450635
Au 2.465377624920797 6.463265957076985 3.1912877674294937
Au 4.406754362401685 8.329429662769483 2.756060519716319
Au 7.760825726713419 5.22298848064901 3.7924624928084643
Au 7.063974458640381 7.963900390348509 2.9196064816674347
Au 10.411231415769416 4.869149895746562 4.504993465227004
Au 9.660736153342238 7.291010015460107 3.2979492508505746
Au 5.8846399622519625 3.9577158486539927 5.445746138025446
Au 3.350227204772609 5.324644723403073 5.461301552732216
Au 8.585686202379163 3.8347913476107407 6.2852283785037395
Au 3.3477803028931454 8.14381301579296 5.340855086283321
Au 6.097999731328504 7.03812461089731 5.464871306645722
Au 5.6720112035759955 9.852314915797166 4.631746245447807
Au 9.01893328829897 6.823036726342752 6.025880926755086
Au 8.602734339526444 9.368756243016643 4.808830697875479
Au 4.084385904935491 4.064250378717257 7.6744972536637235
Au 10.975264344015565 5.135981675225217 7.220688862988883
Au 9.120468300280077 4.546483179064038 9.081260581107749
Au 7.266029729875253 8.337461139838764 7.556333607977908
Au 7.258308125033883 10.975130990670813 6.551386730493441
Au 6.692026745329977 2.8946297119783173 7.967737031264959
Au 6.791016566402601 5.670680753695296 7.750187337209651
Au 4.857677090969462 5.55030978982783 10.00601321322902
Au 4.629428527758392 9.549078755097776 7.251246904387538
Au 3.781450821912793 6.900792054843965 7.78935740526837
Au 4.655389021631372 2.7167405615809925 9.927518172149101
Au 8.43942717867589 9.15494445913987 9.938923853129287
Au 9.67198404331586 9.724818882844437 7.411582836344543
Au 9.934856924588761 7.2186938708024275 8.713271423048068
Au 7.592040738882543 6.577032996838904 10.436689256489045
Au 7.028068233365306 3.889293526385928 10.61647155185377
Au 6.245803458874698 10.70101403413362 9.142957953308578
Au 5.366531831151486 8.173227746750209 9.703921100295599
