32
Energy = -82.08256948 eV
Au 6.163454670253675 2.6443016588579167 8.637351223523412
Au 8.63897591987328 3.156088971466317 9.768147809789994
Au 8.315658502295694 2.340220168319545 7.021144333795795
Au 6.447590085119019 4.649838191682429 10.506828951237514
Au 8.998828276420795 5.863585829946112 9.745324534701547
Au 4.620636105123804 4.815920984305038 8.283712816251676
Au 5.983270367778332 3.7075008535094676 6.075995322730894
Au 10.084709988275083 4.341993760070881 7.770717180872014
Au 6.736430529051848 6.539140305339927 6.405348317450729
Au 7.241855059293253 7.224528579711419 11.340303940786166
Au 4.83457839823601 6.8174042736896014 10.16913904691432
Au 8.61054620059856 4.549613806009109 5.459757847168954
Au 4.13347160329179 5.692966097114815 5.61167262810802
Au 3.3905121601760473 7.207138621526959 7.849296839901686
Au 9.504751173837098 6.970460869869473 7.216127720222028
Au 9.370962446506743 8.513629809098358 10.197031979762748
Au 7.079019673281665 8.113688436488955 8.642090704845332
Au 8.919041013199749 6.963149507479297 4.331589006612548
Au 10.210405109485402 9.675272330588326 7.861557617402089
Au 4.632453633216931 9.365379728989 9.143819202752475
Au 10.624207924253076 8.931201652834755 5.361108294148188
Au 6.433638330818325 5.398640344128741 3.87437702699269
Au 10.585882855384854 10.853493439824305 10.186906258159595
Au 2.562771232220246 8.034229701535928 5.3774149013308294
Au 8.858472011253184 9.60339592962158 3.433682934599572
Au 2.731138993967749 9.981757769783858 7.305030439887415
Au 5.13543017328084 6.215679232168127 1.6046934650826459
Au 4.6912995972089035 7.789776283544809 3.7709667390538897
Au 7.922640959585744 9.171720244321303 6.16598372346866
Au 5.159136838752329 8.976252463398898 6.392106767966679
Au 7.140218513495927 7.8149264981852165 2.39778603122341
Au 6.227041702641959 10.066133704766298 4.082016441433552
