34
Energy = -87.40678283 eV
Au 9.966657820170107 11.392543467301214 4.976681195002178
Au 7.572400717470969 10.185986943657259 5.49812323064415
Au 3.169175243696849 5.320686888275425 3.4889950639090825
Au 4.9944831163169985 9.191145275578778 5.491529609452737
Au 10.441284872656405 8.967768718983061 6.082073123575659
Au 11.19235163178725 9.186555783755988 8.760144380690267
Au 6.535528152146177 8.497405083003377 9.796842412546491
Au 9.248879384450978 9.205692306955859 3.5401890023457416
Au 4.434236272958044 3.387626585943917 7.903903108386157
Au 6.56527842887095 8.781059517575278 3.258436744214299
Au 7.862644729936157 4.730646295396418 4.874346377408483
Au 8.442563617308858 6.628360295569632 3.02326686586464
Au 1.4123603407895213 3.360050790503121 3.6697459500494825
Au 11.051217803622254 7.392342099425778 2.7257174194214406
Au 4.390751396772812 8.15919117229519 8.040848590231368
Au 4.708449936188866 6.571000609309924 10.285092776886536
Au 8.611810201447135 5.016157830206592 9.30128048954929
Au 6.059595069314392 10.301644873706275 7.7578942370972745
Au 6.131543651440601 4.155122513200188 10.020048461367798
Au 7.1120293530782375 3.600323123252373 7.380243640506679
Au 8.56057943656448 9.495572115295298 8.13556165553634
Au 5.863826247041832 6.021369383819253 3.407772139984475
Au 5.242906719747548 4.334287365331947 5.4900799099971085
Au 9.671016967612509 4.336830083139437 6.879207976204706
Au 10.0899495525553 6.843562656115907 7.78029369318603
Au 10.33328609366324 6.315422823410806 5.107723147452903
Au 3.028670797425998 5.764512471855461 8.178298841128885
Au 3.920916178970027 7.941634585302508 3.2395226213548396
Au 8.965051803278357 7.690422417579867 12.845417715772587
Au 2.5271721881134472 4.132490454905617 5.976553668418742
Au 3.3600957592132534 4.137871275311068 10.345735259163632
Au 7.26803808299425 6.258761082183448 11.359413536805233
Au 9.331523503226146 7.807357550075446 10.241205858991016
Au 3.5635097040245904 6.864921905510302 5.779660493150707
