34
Energy = -86.39963088 eV
Au 3.228093652638901 5.369101425824398 6.291391493654643
Au 5.603892712882929 4.120482397401591 6.587544948236564
Au 2.806840584904469 8.053628177167392 7.016870763637883
Au 6.424133531645564 10.29041212664016 6.207201755687928
Au 9.1306608600425 0.4090433382121374 8.832712243627945
Au 3.622718545868679 8.213119949849201 9.602377260783852
Au 8.680474982521877 4.17287884104191 3.533267360075687
Au 2.6332974970386833 7.633095080746273 4.326888960981705
Au 5.976008437605578 4.490995913084974 3.3770343048775424
Au 10.935509622203956 5.156728079478609 7.111903713351495
Au 6.213385082890922 8.71362574827158 8.863171760994208
Au 3.7953674813838547 9.386561619817526 2.4653046038175894
Au 6.196548309476309 9.13169821892693 3.7443134585452116
Au 6.831792568606128 4.219399636220124 11.589061080145525
Au 3.3826339148957354 4.906868765612628 3.573683643694996
Au 8.110405214384015 2.4598425789907106 10.149843968225719
Au 3.846573235054511 9.913260671424302 5.167074160916022
Au 1.0101084019307756 5.506771454184227 4.670921040488287
Au 7.047230344288273 4.721047111407766 8.977593622723024
Au 5.02307880248336 6.378180434459812 8.034221729823862
Au 7.619335276600719 6.7578366260831215 3.3278930124136608
Au 10.481896783374628 7.854648343400365 6.948247309301388
Au 4.953263201312846 6.92416211972767 2.623902038749258
Au 8.978427560517359 11.816787214319739 9.370413819038134
Au 10.058168856870516 2.8681888541824234 8.108602562065121
Au 9.8456297962035 6.272362587124119 4.822967896573376
Au 4.1302042246541095 10.34029745097525 7.832564672991454
Au 6.440047313292094 11.471085705407658 8.688000502873194
Au 7.329178171073255 2.025943109553709 7.498578340513469
Au 8.67139061174814 9.673810045914603 7.8552896787793545
Au 8.361510826070925 8.59124265099833 5.263046274786794
Au 7.886736501805464 6.931133094992323 7.619257348018798
Au 7.011314241922513 2.4410644550165967 4.853821597697528
Au 8.37744469228251 4.411592730228543 6.421110167919967
