36
Energy = -94.535557 eV
Au 5.4053719168974075 12.355138793087924 6.751832231155902
Au 7.832911077560826 11.17417195945264 6.372631063303309
Au 9.288606933225248 9.047826315674543 5.573252990278981
Au 6.441922923720361 9.546570120823667 4.604420551691129
Au 9.29173888359559 9.797370347706723 8.298791489188492
Au 7.258741765434886 6.644052858634935 5.443699768672483
Au 6.491922579948117 10.935663198921308 8.846401094296727
Au 10.761431891503136 7.617094106538507 7.332666515240261
Au 6.905970783779274 8.495678543497242 7.369465402593365
Au 8.299786377865209 8.13073395660695 3.2150485796878954
Au 10.144783565737447 6.5095011022786995 4.87366429584931
Au 11.645154729386858 5.82848333890491 9.27834317321259
Au 4.099651369155188 10.91082654933149 4.862550799183457
Au 8.781484859903852 5.4274958769535875 2.7513106964009326
Au 9.781083234806008 7.67017078178889 10.015159251820267
Au 7.771946514793652 9.365637101119347 10.62348566189986
Au 6.942364777716959 6.796040293333318 1.2475467281335124
Au 10.250469855352708 4.862385357362524 7.100876635002026
Au 4.295700215639286 9.84551252598702 7.4597353898923835
Au 6.2252624036788395 4.729968295295083 3.5105619931589254
Au 9.129714354870416 4.950605741990365 9.729677617974994
Au 3.65050911130606 8.280113537292083 5.2340993219414615
Au 8.54641712451344 4.057346065347246 5.099185503895436
Au 5.256773100887686 7.336594325992443 3.271314375580763
Au 7.1623146797403585 6.7087110149772275 10.739357615596148
Au 8.083510639191637 3.2630012554070786 7.712548965278769
Au 6.817101996507886 5.856971656122589 7.993269527348625
Au 5.22346247390686 8.556430315533468 9.757688043419682
Au 5.9271467330110825 3.390670878835856 5.860562989692007
Au 6.666990871393657 4.0041239040432 10.194106564856659
Au 3.8407445711956005 7.151628013757092 7.7216763548431615
Au 4.333242588141637 5.653179309208579 5.364647930361944
Au 5.61686249579635 2.199763160980836 8.303255414924289
Au 4.519495801154464 5.957419018134184 10.168811214382664
Au 4.0927606161472685 4.453638130615518 7.7991435747827875
Au 4.066713950658559 3.247991620188073 10.351619868973557
