32
Energy = -82.13215321 eV
Au 3.8080392824510714 3.6409010699165747 10.818103463718563
Au 7.3053357861185715 4.458952801520373 4.65195039858177
Au 7.885400933312387 6.6438197817752345 3.045295115576782
Au 6.652952749730477 3.261382666723507 7.0126217021453625
Au 5.236991402603086 5.787927837813014 3.1820155470145752
Au 6.448322602907033 10.842680161869403 4.213167636843599
Au 4.0643863899404025 3.86664148536835 8.115393865940629
Au 6.0285672068461205 7.511035441508805 5.405844490249697
Au 6.2459633228131635 6.035081387440663 7.7059621823474025
Au 9.297788305196583 4.171824209522508 6.815011973511706
Au 8.412580095439093 9.29978730784964 3.0829200751837447
Au 9.654741635709039 6.718955411618695 8.95939554639467
Au 5.168353241732408 8.489668659901792 8.936530279789052
Au 3.3347716309461632 6.444614739050922 7.59373624117978
Au 8.438125366699134 6.872126731884667 6.318649621443083
Au 10.310391491322864 8.064488496739418 4.611957378632179
Au 9.94486413216815 5.325650318862702 4.258751307681221
Au 3.992780636526693 9.767067242696253 4.638082987586904
Au 7.207990715298946 7.00894234847295 10.256502363339632
Au 3.1440912620611 9.080530924482739 7.096925979981447
Au 8.182768631888027 4.428212594603706 9.293752608306667
Au 5.7046319011822035 8.492765821110488 2.816210524400191
Au 3.3677739633623784 7.036275790132841 4.896428439065268
Au 7.884856619907308 8.892112169894135 8.3536686940921
Au 10.528079024513687 8.829651601535073 7.320836673998823
Au 5.883440054941522 10.047952561967895 6.8167426042853405
Au 6.363819282373128 4.703926640174864 11.431862708510756
Au 6.078973598529736 2.6094902910981728 9.562035017713221
Au 8.49633869713817 9.933360580999194 5.804765603095217
Au 4.62577541094295 4.635987345496874 5.594379674366476
Au 11.164198307253944 6.200471984586506 6.570147613562786
Au 4.43398534420635 6.194792619444703 10.117430707523974
