31
Energy = -79.1618697 eV
Au 9.717612399275728 5.9212467307119345 4.229882097653174
Au 8.877114875949783 3.418779599867017 5.015798018335394
Au 7.172821629876092 5.0921016897304305 3.4666949903454842
Au 6.269208946474689 2.7366936538311757 4.906352907727112
Au 8.017282129690718 7.816075508102493 3.3497545323234914
Au 8.264905153117699 7.503749931549798 6.312089520154793
Au 5.333505169466191 7.240088128243928 3.2904009200211126
Au 10.016921630848842 5.229378979311342 6.84325414853343
Au 9.170598883195767 2.6530741227284413 7.658825573583046
Au 4.656565015542075 4.967331286072095 4.609356466126527
Au 3.733594381265507 9.174371622287998 4.353475878907514
Au 6.465082324984734 2.595354074746795 7.754466357095466
Au 6.96930835187534 5.102073316086685 6.484249968051385
Au 9.057342095120234 9.847934377060506 4.95284208648933
Au 6.373063359555408 9.673660764472322 4.570400013160105
Au 4.044760334059433 3.1299386924737798 6.617621424093291
Au 7.738005712248106 4.570364632534747 9.263991875469097
Au 10.413026544854084 4.4177347242042515 9.45211816732223
Au 5.403336602259547 7.400195910154122 6.177819290757629
Au 3.1738723020824353 5.704582675090981 6.887558558048615
Au 9.991468501867404 9.373875526333919 7.489968078247788
Au 9.54859884962835 6.961615157874908 8.990923537529756
Au 7.399121649620796 10.365794091463433 7.14627255301089
Au 2.7682818789675716 8.388796576049184 6.779490902739685
Au 4.689766769781486 10.448866995597395 6.688019198416264
Au 5.051271615537269 4.817779337447428 8.77028750766315
Au 6.709921604091885 7.123924854117336 8.776768794919787
Au 3.963775130804195 7.349723669945643 9.110752383174999
Au 8.264773899164638 9.296819804567846 9.645137784489952
Au 5.666971258599727 9.73973957151192 9.229615078752941
Au 3.0289731261523247 10.001445381200574 8.984370381538982
