30
Energy = -76.26510206 eV
Au 7.144617435754169 5.939275696700906 1.9725906151498802
Au 2.8256868832672604 6.454288778462025 3.7201311570216666
Au 4.6281936326414295 4.89473445099273 2.2983895353326718
Au 7.929864640405498 8.455528092661105 2.8573303978437257
Au 5.5212963376186455 7.142154410882829 3.865890193011129
Au 6.430904597936487 4.341931547392936 4.291428868710678
Au 8.364828913893728 6.202146072258552 4.548309137437082
Au 3.4812220020601403 8.680980650764454 5.125380695376437
Au 10.027873477068077 8.344204161807449 4.784639142056028
Au 5.561592742532943 9.893187161634447 3.6610541954287465
Au 3.7024099834366897 3.9746635698145605 4.7551184532682855
Au 6.119002649680386 6.2891212465246245 6.606852270803308
Au 10.266658724479669 6.165980629076852 6.570004192175233
Au 5.242217388274696 10.364236543342386 6.367690625886868
Au 5.8188010915319 2.565596405918007 6.267302474973365
Au 8.083391951847707 4.219516861424945 6.590249642253253
Au 7.319413663120946 8.721756120674062 5.568160614114472
Au 10.596551810196432 3.729464446525898 7.606125461515749
Au 3.9405714744736318 8.554590791089586 7.91729462866198
Au 3.113930732869986 6.303918676734616 6.445114961860708
Au 9.360675811227939 8.583387128568717 7.462989901979913
Au 3.68335300783202 3.850225704962557 7.468309773984655
Au 6.191212082810544 3.8609535943599056 8.666731834287098
Au 4.35759869565548 6.000868905753216 8.95779559849719
Au 8.744905556382664 4.698153969437928 9.259726957522055
Au 6.714108143956561 8.766663896547685 8.29536595768796
Au 8.660842695970892 7.619646164714366 9.821580487042537
Au 5.11022487274488 8.200284442969807 10.447225683977814
Au 6.553871833744582 5.891349678317635 10.524443765389233
Au 8.976086575836714 5.76309960893837 11.748682186003155
