39
Energy = -102.73581165 eV
Au 4.21278767232165 11.703934313526451 7.2283968174243824
Au 8.559932129733365 10.979494780161776 6.4402864194111356
Au 7.657181107032292 10.121644391929719 3.9249875546770223
Au 6.505386812769486 10.739954324340303 8.254057404066053
Au 5.3091169446783 9.944943358210336 5.369209244508506
Au 10.421683567219668 8.909137290020663 6.6564292398142015
Au 4.033615525643404 9.757929552561254 9.285441232962462
Au 8.851949275532055 9.52042470264586 8.87493354889792
Au 8.858975939298062 7.689062115324886 3.430041906113408
Au 2.891034119365133 9.392274197030673 6.706781537441671
Au 7.649536525249721 8.39586533008419 6.06774267425927
Au 6.574348085765055 8.965365036204512 10.406721279676734
Au 6.131522142038365 7.773408684910708 3.563971240188137
Au 5.575318475631903 7.905308565739821 7.825059222133496
Au 11.705681968285418 6.40248083861092 6.706983383350921
Au 10.852409144146765 7.626776835126676 9.093591101594818
Au 1.2969918929685764 7.249552703592699 5.954086477260638
Au 8.83665239386027 7.586198076994268 11.0053131242956
Au 11.393941276118621 7.77682886286313 4.359964590885242
Au 11.117511612767688 6.135066353247355 11.495696873631632
Au 3.733161982702916 7.630932592158613 4.794092441554269
Au 8.244437424747604 6.697491292318901 8.07833260717647
Au 4.394570210326969 7.24093249744987 10.382884004979822
Au 12.001557817128461 5.111442927582596 9.080063795947625
Au 2.813612524138038 7.043723051992702 8.216220983583614
Au 9.897017873224863 5.458893828571377 4.790212869816375
Au 6.718514705138349 5.854786937701426 10.40534710341509
Au 7.513196457441608 5.290030098109708 3.3272551782080093
Au 6.377603878030055 5.951325705931114 6.087259614225527
Au 9.271373808922489 4.81522815645715 9.996553131173593
Au 4.745097048339709 5.3497408665055195 3.765980995738032
Au 9.95591936390649 4.305347937166803 7.328835257689262
Au 4.728927280051456 5.035808114897891 8.596600728766251
Au 3.152055198303178 5.1321594979978915 6.193400462921554
Au 7.285897030738695 3.957450152545637 8.299419673598171
Au 8.038786514687521 3.582766500493658 5.582342214184241
Au 6.128359058967146 2.918639351685262 3.7463619042505867
Au 5.350824606744854 3.323201822824255 6.473816203888612
Au 3.4773960853477446 2.982483555173284 4.496310609918652
