33
Energy = -85.22860729 eV
Au 8.653331677239418 4.960753814051337 2.6522500134985014
Au 7.295166785524534 3.973185768188923 4.795858191636755
Au 5.913958653601339 5.549876774647702 2.7411774260811965
Au 9.501464807339815 5.90530906839868 5.072433074587258
Au 5.915854783806015 3.1346989691454112 6.967082774045637
Au 6.838209080347292 1.7507724267175442 9.109936563307379
Au 4.563734686152624 4.789592025758548 4.986420431200601
Au 7.533898484615727 6.516355542354096 0.6891617863892331
Au 8.501554025875599 7.755918419563282 2.9977487176127466
Au 8.196308924455646 4.878468461897127 7.355738923740753
Au 6.62840830720236 4.375598960766955 9.739618177255542
Au 6.809768725814239 6.798885282184374 5.237138540620385
Au 4.329161390137075 2.7588858504458167 9.381175725826772
Au 3.215027828675712 4.10330517517569 7.283002991720694
Au 5.908642185777234 8.303456265863156 1.9885636964031648
Au 10.202023342112403 6.931001221617784 7.484174043415161
Au 4.306175264909115 7.50003470948182 4.049259551319705
Au 5.418093617153424 5.972756287058989 7.525032182902382
Au 3.748274008212317 5.3875676432283575 9.777378621398215
Au 2.9722859952179785 6.756908948604806 6.338852141888174
Au 8.65634842030633 6.1557405356518204 9.90304291585013
Au 6.663411247295826 9.57189088591576 4.263363917018168
Au 9.148484934097173 8.708163755367622 5.4503390613272
Au 7.4857814509180765 7.7771836419617575 7.750146204465624
Au 10.65536755763988 8.033362045618464 9.992150616311699
Au 5.93231892081754 7.069482298141363 10.202793991029768
Au 5.012505452514427 8.836459762348337 6.46464120689257
Au 3.6642124651876395 7.973792882689942 8.808041203245311
Au 8.063645331057282 8.880512086261184 10.406057454917699
Au 7.288926181955001 10.538862990335856 6.701241253616237
Au 9.687073437587335 9.669299566384224 7.966320640663173
Au 5.7484968068608735 9.710674873729335 9.105359036306304
Au 7.963522117927983 11.397650197979509 9.218380737850508
