32
Energy = -82.58936141 eV
Au 8.493615346810401 9.374186135909538 11.782206660944192
Au 10.152989641097735 4.725358100404343 6.301250824539004
Au 7.864324571858688 7.84937324325257 2.5427784209439097
Au 9.218648357620424 7.381989691813125 6.8784402242162646
Au 5.115799521439194 7.7260068134888655 2.2515526276899434
Au 9.070497487967547 2.045102596698801 6.6518705319146765
Au 3.6855088350140046 2.733849057052118 7.198921812394182
Au 6.341400258307321 8.76779901071561 10.323252484036125
Au 2.7856751201937633 8.225037344537187 6.354149431161707
Au 8.161846819635773 3.6478119912633264 8.719391952870568
Au 6.5781089671527715 6.482177021786063 6.082721769122582
Au 6.864308838770864 8.78099608647058 7.671663531466598
Au 9.14952496236219 6.274778201853139 4.321049960946969
Au 4.242297773532042 9.28231918071653 8.512514053337604
Au 6.47369202515687 5.637183028467054 3.3860462222001053
Au 5.059948955690965 9.981119371236229 5.969851508723695
Au 10.135789548435232 5.737043011397745 8.92277391116812
Au 5.511890312888109 4.271095481837612 8.468406013361603
Au 10.862740203577316 3.142525459992773 8.453446964338767
Au 6.3874605953375605 2.2031537035873656 6.8477812982849695
Au 7.7285541889572835 8.983079347489724 5.11887443889976
Au 3.4358636370480915 9.12428712188936 3.9009847029868547
Au 5.092119469465476 4.169752711463279 5.336755562929985
Au 5.890206947068737 10.200423499374184 3.3508338804173095
Au 3.9650119536455026 6.514328561120826 4.518176689900718
Au 8.551865481639478 10.417811996479102 2.896000294946705
Au 7.344434384133917 6.219376175660876 9.096747806627949
Au 3.3462416084507955 5.541595363421512 7.097924328002798
Au 2.086091787937428 7.33753195571375 8.809304227163107
Au 9.16640308537876 8.20857474852981 9.52802874336134
Au 7.825834718057664 3.881845621521089 5.010389054730079
Au 4.679228977448104 6.715812389828937 9.340410834419552
