30
Energy = -76.70468725 eV
Au 8.299501422411327 6.412795929564613 2.767991671656705
Au 6.809366180617623 4.049078740769016 3.054474018483584
Au 10.734194958652255 6.359570936585507 4.278064811831914
Au 9.41349427969226 4.056338611663785 3.7895793615883706
Au 6.845620527261951 8.57857120566697 3.5276578620622145
Au 5.420509983147025 6.381958501360301 2.8527072701239153
Au 9.563428617640733 8.744652357494774 3.922553703671367
Au 3.5482431849378515 6.946001045517949 4.757671556865196
Au 4.873101370905603 9.867766782781594 4.936273852048108
Au 9.643372698723946 7.593404200477075 6.511414328386155
Au 5.344063354295601 4.85709952874115 5.22629641550086
Au 7.5165037407978765 3.0118854799664088 5.501513908974442
Au 7.935113564763444 9.700419487035704 5.87033255477522
Au 10.097279332078255 4.815769129456824 6.431508109297876
Au 5.948914581512827 7.638820904432125 6.138863723866497
Au 5.770059848306008 3.3724222866055444 7.613903729524254
Au 4.2887516471460625 5.946392941974205 7.625562393457182
Au 7.407682615958413 5.62638545759864 6.9567358374408474
Au 5.849940254384246 10.267051843480614 7.516906289034935
Au 3.26027085314841 8.610205885300392 6.836138491242873
Au 8.022335944285388 8.779847962149478 8.477008362310105
Au 8.577209103782891 3.2202637187756524 8.04562457217147
Au 4.258907982862554 4.092436336606518 9.72770734067321
Au 9.302915019050547 6.131282467563209 8.86267051660831
Au 5.049882991327693 6.466898652549766 10.739784234952083
Au 5.685064726187046 9.050931078698456 9.972969963851323
Au 3.5218252275193116 10.42165852278448 8.884712741216072
Au 7.00861325592417 4.757539427748445 9.801243336472329
Au 7.651014596119963 7.283221698614549 10.721609064899017
Au 3.0924625613477006 7.698973302825543 9.390164401802227
