36
Energy = -92.0593753 eV
Au 3.225620487659544 6.669738608086907 11.962104772434873
Au 6.131046359300311 9.435869324547907 8.47122021084084
Au 2.3542111573077955 6.1059826196894695 6.829173640689753
Au 3.8420717294531106 3.8708481738969422 6.197161715545526
Au 3.7474784195179303 8.305724443907526 7.616086345021945
Au 3.679407518581048 6.744524784854519 1.7983694115101214
Au 10.116013190617583 7.574075187488536 6.566472767875798
Au 5.692658357214774 5.502535984826761 3.082211056418501
Au 5.2896284133262075 6.41595040862196 6.122796343656477
Au 6.9417638373227275 7.756329803101321 10.58559745140046
Au 8.78841068666496 8.890080168645223 8.764428841927465
Au 7.778107421018943 5.097833808444768 9.86339310347799
Au 10.16487344373307 4.424792051043774 11.01758450494974
Au 11.49471724916211 8.182938154780608 8.843900456523713
Au 12.19451441466117 8.512133049460461 4.966944540334051
Au 6.4975881864383025 3.99034734866932 5.359339372016862
Au 3.3191112761182073 4.327214272610684 8.903131239552051
Au 5.378594125696193 8.324546336254903 3.1159348495237436
Au 4.364240099306292 8.458382001005535 10.295169320959733
Au 10.224684802726252 6.9666502001501085 3.9020408532754787
Au 5.908718113838866 4.310548903099155 8.056536814705353
Au 5.202397261215425 5.557036261155769 10.5030153695524
Au 5.51409082983265 9.163874533841243 5.761952876504954
Au 7.141289643051622 10.199139678296671 3.815236931280526
Au 12.128210543397696 6.26573628282696 10.609181776615301
Au 2.238840719419124 6.820785192424295 9.425227513861659
Au 6.869580236877696 3.0234146428827007 2.8674097388687314
Au 7.931390385636103 10.402915114512032 6.6743730014472975
Au 7.578753148146126 7.483638433401633 4.71357717793322
Au 8.408924579149865 5.114342542138395 3.5403571175765123
Au 9.551373828554386 7.194460543076239 10.79144428056687
Au 7.992291633055387 5.803305246957366 6.9602228671691
Au 10.221586695370226 5.606571131171767 8.495062753555786
Au 3.1560485539250824 5.75463281444961 4.2778956288000405
Au 8.757032068142337 12.15169510920113 4.69029387633462
Au 9.823916379494854 9.70636105365125 4.763496578073907
