34
Energy = -89.77186403 eV
Au 2.4579822022450197 7.722850223663194 6.806713624935066
Au 3.578698606439262 8.52512376008593 9.38061885222084
Au 4.850294108996529 10.107487790593671 7.564161803558753
Au 2.7473115934158425 5.931338589362827 8.892164392474864
Au 3.528998015287671 6.462060912421352 4.5592571154909
Au 4.024471708875911 9.162374777738728 5.101725181581491
Au 3.5292741552025677 4.630845060718211 6.606658594010364
Au 6.307794169624977 8.913143068000338 9.70000926583432
Au 6.012292197870055 8.69144224511049 3.3092348474664726
Au 5.127038130832524 6.374606102588885 10.324171867289161
Au 5.070362064000131 7.147837568568604 7.357704431771137
Au 7.590556833389986 10.594000164194759 7.893859471499031
Au 5.290002821604814 6.181849939681707 2.486605357305817
Au 5.023235656848003 3.8981512645177965 4.418878570199692
Au 7.598097405521283 8.050788922753801 6.683965904779255
Au 6.455313649579469 10.52002888828601 5.364852141932551
Au 4.540429091072393 3.881634334456367 9.147169180739612
Au 7.236747449918029 4.2812116552200195 2.807670838269965
Au 9.069798403089 8.567801712573912 9.165249084051817
Au 5.7227546642559775 2.8816217753679494 6.939787557439453
Au 7.187268641072432 5.445712429711607 7.505731645118735
Au 7.8516032166376375 3.3213767612888447 5.30526921128837
Au 6.391977842347831 6.272053013296848 5.0361895259731515
Au 9.878678650309558 9.592575084171662 6.601295610653442
Au 7.77091717257289 6.8838310183692375 10.843933480396645
Au 7.047787634625793 4.315547429633779 10.121541169254401
Au 8.161664354530052 6.934645489652383 2.8772568233391573
Au 9.713776456532138 4.807060710347116 3.8367327535653186
Au 10.826140075026593 7.175014007383837 7.602794752334781
Au 8.59718871189332 9.360259804228122 4.1438234380279555
Au 9.989370378798839 4.770278920756014 6.539920370184076
Au 8.365455384595176 3.0284985913416334 8.028987970496125
Au 9.475196664695096 5.448416324041964 9.226590341964574
Au 10.135079491014032 7.238163876423942 4.9637531896005775
