37
Energy = -96.35324924 eV
Au 7.529049777623321 8.40453748933982 10.110495834311465
Au 4.7298659067351805 5.457418249969688 9.703325189002214
Au 4.917505328572429 8.092060273409057 10.520467850013892
Au 8.489824117222978 5.84156945659066 9.694399622484385
Au 5.534441849805005 2.8413211935539406 9.909172715453256
Au 9.999626953808262 8.067433305738295 9.112549119834734
Au 2.4912612904972655 6.8609182587679785 10.495609082385856
Au 3.726176159742605 3.401415817604691 7.993469293090501
Au 8.418494340583685 10.329363447973588 8.194236279377822
Au 8.227771748063862 3.1483499144767113 9.952553160910483
Au 9.574402941837972 4.042505746624497 7.7228512554342315
Au 3.3967724283621896 8.34631216434086 8.171940860171858
Au 6.634910626079314 4.437262503778974 7.89954100030107
Au 5.693833242071406 10.009734908659688 8.657236050227969
Au 2.3248699173614242 5.808772136071633 7.9843572123918545
Au 6.156801208614669 7.248921582121673 7.926022549952848
Au 7.573781399951739 8.814951266532516 5.8179552159089525
Au 10.310725320022316 9.192575625134522 6.613785148636821
Au 7.9162240955800645 3.4405531635095996 5.632964146228832
Au 2.617361119602654 4.439137540264071 5.675912013660805
Au 8.825869977652818 6.6282515807033455 6.937131857400519
Au 10.233548895205212 4.926578157599344 5.189987105443637
Au 4.637707942250394 9.579808770468889 6.071056707684392
Au 3.426749822865952 7.088472619503924 5.706991856421273
Au 4.216487748312102 5.3953816874082365 3.6269644202306015
Au 6.585113468650275 11.505566843606093 6.528552248761798
Au 9.26380213836538 3.089816768141849 3.2884855657632883
Au 5.185349161327112 3.4624974869042555 5.65463807603285
Au 6.5747440839585884 3.8211440671976407 3.2671397415889563
Au 5.056042669522296 8.058143324376601 3.7163460323245245
Au 4.887303156856644 4.180709813148392 1.1990664649556597
Au 6.273976587580413 6.37820508884042 1.823935843926971
Au 9.970991799154495 7.6038944794943895 4.4796829187519895
Au 8.733020309819826 5.750693438386793 2.905789530016277
Au 7.741238177078572 8.329663046260045 3.0140885303383422
Au 6.334532824998184 10.49214376976898 3.9861850836932637
Au 6.416166491663593 6.110260041129387 5.441459444285743
