46
Energy = -121.7634798 eV
Au 6.180158162702828 1.733127100045997 3.5914493558943787
Au 5.100848641857664 1.876737865718724 6.088346761120377
Au 7.917261859114904 2.14295129307854 5.694154524634659
Au 3.4422506299149 2.532467192466739 3.933284713065813
Au 7.948986745151149 3.967935221131904 3.566111377565387
Au 6.805151692483711 2.4945435472339286 8.314463162403747
Au 5.33591704024661 4.187788102467598 2.6712752750387674
Au 4.132275479865858 1.9646540758840672 8.651167660755556
Au 10.069545973548694 4.112555564775272 5.417611717496909
Au 2.5180205230229666 3.06779891041136 6.634964098808849
Au 9.48832943223221 2.9512693942633366 7.882057792648233
Au 7.685857209291013 4.8306534934468575 6.708088619319512
Au 2.2827928638734836 4.821156499454713 2.7858967504641776
Au 3.810439776371637 5.0739173241687405 5.017640978270597
Au 6.37520121035425 6.1418048135062575 4.66035698837065
Au 1.0038211505965058 4.984676330999779 5.338336613750628
Au 2.745081023465892 4.214447191904315 9.400509922990489
Au 9.523400326053684 6.282075468535879 3.794877866020991
Au 7.197730922090267 6.312147979339997 2.080007738437083
Au 5.4238058627565495 4.1162798889348915 10.195868767993096
Au 8.116264306339914 4.6403251018477905 9.69905160692628
Au 4.935598278338108 4.560191513989998 7.424041194583659
Au 10.208693788799645 5.592550610077799 8.146991696342916
Au 6.508936203664176 6.483484700941571 11.17786824610397
Au 4.385445884462864 6.77269885737171 2.566645959183867
Au 11.449060943334004 6.464495655798676 5.870332279796225
Au 8.037532455551817 7.649035061455682 6.21281838757471
Au 4.662587425813808 7.355862380809307 6.366703567590368
Au 8.418689792227978 8.637137364361104 3.0480548031541352
Au 5.9605872549386865 8.909394190083995 1.7772884952070271
Au 2.3938382326986845 6.152332541568598 7.452581034421033
Au 8.846063428251476 7.442542946954207 9.884003639679626
Au 6.5658843996234815 6.698234289726338 8.323660892149567
Au 10.283374390012158 8.814963272474614 5.037922949068473
Au 5.835679988573107 9.164205836523927 4.533977149377575
Au 10.423028093195555 8.326770076469922 7.776950968408187
Au 4.007494632168757 6.620447115658743 9.893142074391738
Au 2.1538797825742417 7.321023434359167 4.343977316855439
Au 3.4001323707470266 9.320014917387304 2.9194101642912687
Au 5.7947064138978455 8.854939925618654 9.823820907173852
Au 8.095949384097098 10.432750765232939 5.692710612231151
Au 7.285563527309185 11.080329495690902 3.1085887097503107
Au 3.3177395676298436 8.796945204076316 8.341487910835244
Au 8.10588106529814 9.638686929220437 8.392509156541147
Au 5.652892136055624 9.923848783820496 7.233832742323594
Au 3.2605429642964157 9.627074398212336 5.663995165420696
