41
Energy = -108.55685423 eV
Au 11.720654775819895 6.3608951538410095 6.844339134769464
Au 10.080594937310693 3.5749308078745314 9.898071302426963
Au 10.199942809678728 6.281045185220139 9.161986560268117
Au 10.130624212427714 4.122936908084349 7.254834387973409
Au 11.102017960172974 8.185895115890814 4.954422797110417
Au 9.912858710759288 8.471110103246236 7.517883470098343
Au 9.873107139984127 5.607354028214398 4.926274419162273
Au 7.778914434335895 2.615972983318536 11.029479159001914
Au 8.005035765395844 5.367695621965511 10.465720548628507
Au 8.022030057119427 8.040963858646249 9.530941764806924
Au 7.265232986422304 3.3934537065418415 8.413334765107988
Au 10.374544773208541 10.015990463413411 3.0537531915921767
Au 7.917978011474495 5.978280552936615 7.385373714421835
Au 8.017875356126703 3.5863781387410785 5.630753451364784
Au 9.123745549041505 7.552467532356138 3.023416962529946
Au 9.307911538080564 10.3151489415195 5.563921734384331
Au 7.611322554515257 10.10511701894911 7.744371748705808
Au 7.5558988400464955 7.912998042909299 5.397838178065812
Au 7.7783002027598 5.2036633051973675 3.2184496452693083
Au 5.5367760097172205 4.060367680803859 10.867188378146842
Au 5.722561947148957 6.91503639052762 10.513691302510823
Au 6.189892107857125 2.975244921663897 3.677512160536994
Au 5.849431594615138 5.713583873320165 5.545296658760689
Au 5.712633215342601 7.693478027065927 7.487823823880925
Au 5.618928536100205 9.55682595258298 9.58473946854144
Au 7.613279499531054 10.000329346016716 3.229618158873275
Au 5.373697644129658 3.05901567768225 6.396470747550832
Au 6.8456178503649285 11.510453605571856 5.4104215456311575
Au 4.789240855438982 4.955189004542608 8.35455066892415
Au 3.351561879473053 5.654645739125718 10.990677285090785
Au 5.196630575041146 5.233199818710405 2.275046734799764
Au 3.766171949628966 4.181812246964212 4.386820521989726
Au 6.291007578565992 7.665130489692808 2.6889425085589655
Au 5.133135586368628 9.491825985381823 4.465365155689403
Au 2.9616969624909766 5.771671919934727 6.35688977868832
Au 3.0005107215170446 7.132791556098635 8.663863231451773
Au 4.898887875999317 10.660817786982516 7.056834016536315
Au 3.4208729280453856 8.465726683279163 11.030770450288701
Au 3.836297763822698 7.055486589779285 3.959235960103261
Au 3.223996567829188 8.56751274002144 6.242021591743394
Au 2.8946812198957934 9.893790024078925 8.739632686788323
