41
Energy = -108.04192818 eV
Au 7.605232075257537 2.123403592094219 6.9921314123393525
Au 9.921952335743123 1.237325955426584 8.121812866068229
Au 7.89487434140455 4.029011648525293 4.861842084562387
Au 10.131827518390883 3.1996450200326265 6.284900702851801
Au 5.403315540981709 3.3068711427924242 5.963868265044659
Au 5.898881466653667 3.4549998590145066 8.678226789841643
Au 8.932422371295045 3.683366688236602 8.922525912482387
Au 7.507564139107822 5.557467363528871 7.293394736595797
Au 11.178375297001363 5.126273301562454 7.918313001988888
Au 3.1723451291269242 4.574911623815392 5.065441037737244
Au 7.157433997678743 5.140110472300372 10.41306491804077
Au 8.050845292590038 6.5153607002297695 3.6895000496679127
Au 9.936911500103792 5.935750984753704 10.136595018670217
Au 3.4547264466122733 4.540762075262487 7.776695063698701
Au 5.616130344625502 5.072386449256432 3.770971209763644
Au 10.102365980820203 5.736911504006592 5.335254963974887
Au 11.376319967489064 7.607482782151192 6.8984545172143426
Au 7.850174241673012 7.641056912324667 9.113311638006245
Au 9.663609531645315 8.450277701888647 4.890454888733558
Au 3.513046413285556 6.942602901880924 3.729358771944723
Au 10.822419614967584 7.920359265995864 11.747473904555681
Au 10.594687187609074 10.212022096036366 6.892583824758431
Au 5.100709285524285 6.50224029511018 6.294939547702607
Au 5.840218751226615 7.3349573093910205 2.22730438242647
Au 8.40685134678219 10.945379691832382 5.439614443256849
Au 4.332401526275557 4.962603304437261 10.347779852774815
Au 2.0757871395919634 9.072330341448104 4.682092841461028
Au 7.207101563496246 8.186731353806078 6.3857889471416245
Au 5.602494054024666 9.279097477034322 8.894410741276012
Au 10.46038253534287 8.809867749752478 9.238708879855121
Au 8.165368346662575 7.362273131012337 11.84675656966007
Au 2.31269038193555 6.855825080500763 6.3766725540592715
Au 7.332607964744393 9.192181600296896 3.5837778624427528
Au 3.742286664499524 7.170086153303324 8.813161981383974
Au 6.125785199955079 11.662271723767534 4.044339412053269
Au 4.548164443761371 9.481115588074902 3.2602706113280466
Au 3.578833548217318 9.26903772834262 7.030549355639915
Au 8.156794328626228 10.2302386574482 8.189868494202038
Au 5.572216752660302 7.380330342630833 10.898174140461226
Au 5.879714518279173 10.866365327034105 6.6844691734561925
Au 3.6139452239068315 11.268521413235545 5.104958940451741
