48
Energy = -128.79170554 eV
Au 4.999244981393327 1.2220654009821927 6.308823801311836
Au 7.513219467465345 2.443069839814464 6.702560876756948
Au 5.832238027004608 4.901987091760646 10.472808418855214
Au 5.376002846423233 3.120492258101045 8.363341758214993
Au 9.853787800881564 3.8085494396284574 7.050512235293465
Au 3.3772671342994793 4.850031420875117 9.11992916074819
Au 8.480570463851386 5.260924795346661 11.310014118389935
Au 6.888616620964654 1.5191717453410996 4.241253052653802
Au 4.553219044811492 3.1069724222450716 4.366601265698487
Au 3.055018693175439 3.0615226170735244 6.8659509625455755
Au 7.020659515077659 7.501562290288435 10.812471267320317
Au 9.28395326034154 2.923186575141148 4.5002212566944575
Au 6.365646953588317 4.958404407836441 6.022249682235125
Au 4.1060394623214975 7.165505483480334 10.6348840405914
Au 10.615843620039042 4.674004974212356 9.581898430535764
Au 5.63580686607332 6.763646839340717 8.324131339324847
Au 1.6952127689416876 7.016477856243979 9.280760910179437
Au 7.947776702118652 3.874730534479639 9.01713647329555
Au 9.456849002991987 5.483991891649243 3.4404763943344694
Au 9.593920537030268 7.2464841357957495 9.569715247435754
Au 7.0158882135946055 4.150551293365386 3.3812616553478656
Au 11.51714511437123 4.573031853050604 5.029370408336936
Au 2.2346557894198753 4.5009405699180896 4.560387793316908
Au 1.2526520932069845 5.11135957889519 7.299863222130649
Au 3.790562653434114 5.98091066548812 6.40930765075798
Au 11.27546945223366 6.187948690918348 7.369531105133002
Au 8.234770812084584 6.417408420353802 7.302690025977785
Au 0.18219442348854065 6.2905010745031795 5.030208567429938
Au 4.669055902507758 5.714507081999339 3.522519912983283
Au 11.305135982185872 7.3005049241549616 4.84722167200802
Au 5.434222098522794 9.564546577554529 10.075753544066394
Au 7.095604609820598 6.799288550457152 2.6909811232236436
Au 5.872231063650869 7.747849429364761 5.787344636419293
Au 3.337432149642888 9.085197459337353 8.40684215738782
Au 2.518344975180811 7.430119110869746 4.1107255821707565
Au 1.5459418744988138 7.988399933979034 6.703152319604049
Au 7.874470294697709 9.246505618104097 8.774098468176943
Au 9.847208505673052 8.037570154578342 2.4929209989637373
Au 8.459625487354188 7.805461565291127 4.940250192379275
Au 10.107388121229514 8.662759401978146 7.182557238405377
Au 4.916708406071107 8.490931689778286 3.2558076514484333
Au 3.608625062467829 9.53792714169051 5.612903338940848
Au 5.64226340688889 10.266128669050602 7.419794588643716
Au 10.362868846132086 9.883486138311316 4.670233994059511
Au 7.440309046939901 9.47348872425797 2.563967317717421
Au 5.941592571858797 10.686739729573048 4.663374001001294
Au 8.176393832445388 10.514225537223663 6.3542392551881965
Au 8.429001298251228 11.660295124054729 3.856524823572218
