47
Energy = -125.68313807 eV
Au 4.879378578869695 3.269112843190402 9.061621063428886
Au 6.027567085481913 2.419803611792792 6.333943571275654
Au 3.3656622575832165 2.602055890171334 6.798368495771377
Au 8.69655976661905 2.9798309742035936 6.169007857198674
Au 10.122491779436395 2.6393533009560097 8.514888712506211
Au 8.860800591480869 3.807150746393395 10.685427707239677
Au 6.268184867320653 4.64689033998589 11.208171673857539
Au 7.418375803452469 1.9946100095926664 8.658403591457041
Au 2.3366358788732056 4.512559006933132 8.491314327706466
Au 4.302301905513416 3.492425817603534 4.374942556524651
Au 4.110590196866211 5.867253769093765 10.037445868754522
Au 7.083526290299461 3.6892867777305525 4.043777454308948
Au 5.073773087990145 5.154585791841418 6.687542086124098
Au 9.697701856257403 4.873495220573575 4.1803840037442
Au 2.319162384072245 5.094484868632815 5.772368799159358
Au 11.194132424156688 4.133671545943278 6.425625265473421
Au 5.850559563500853 7.3831989279017805 11.586609612025837
Au 10.101490320580197 5.429481633013596 8.669414951295812
Au 7.806485368705526 5.781235525558927 6.072448565206201
Au 8.305391230326679 6.520104884288429 10.531030393778005
Au 7.23500964689047 4.717832643240985 8.521764762067958
Au 3.0334694269779154 7.053839780948307 7.658398347764386
Au 5.3637380664043235 4.546155166848065 2.0568530284641104
Au 9.26653600589512 8.033825919839101 8.368974615140228
Au 6.153324393776619 7.2330914493362135 8.244443267766119
Au 2.774213768350484 5.459029082236685 3.1072837642800573
Au 4.112540110473905 8.642350800697338 9.615655980498405
Au 7.929903386045058 5.734198071307127 2.2389392297218853
Au 5.375562409393636 10.124728291082048 11.54178826906515
Au 5.806152846387439 6.427474212669778 4.237711834323116
Au 10.487964275086188 6.795391521787152 6.237686885891864
Au 3.2949180571476377 7.568788561317 4.9292789126943735
Au 3.4842321557679528 5.821800939818355 0.4817615661823197
Au 7.472451331081496 9.128718201056405 10.104652932396434
Au 7.075302217030624 8.403938564672467 5.93588986773794
Au 4.416623974911979 9.303840913878197 6.865855609365275
Au 9.027154637874029 7.616700096060083 3.927338215032166
Au 6.126811778616163 6.654660446826047 0.372543004770286
Au 5.686483840250843 10.895184228630923 8.849964167900586
Au 8.377252915381872 10.693022988352503 8.056600118604662
Au 4.2542161847895095 7.762619349459236 2.251748516550371
Au 7.040170002489588 8.520089447209855 2.1194274269666846
Au 5.204068527392337 9.484060775765817 4.141422281042375
Au 9.769926732289647 9.428724511641008 5.964028637305099
Au 6.359296649120917 11.127186219258094 6.139591428774058
Au 7.962160798931686 10.34464283574141 3.868748671381426
Au 8.976086446000457 12.075034992646076 5.745774004137243
