44
Energy = -116.91372085 eV
Au 3.5936334537916252 6.477944520913226 9.192295205600642
Au 2.852807104643934 4.442096458445051 7.45239817583748
Au 1.3953254563645212 6.783948462103509 7.5842875476530915
Au 2.5355969193858883 6.540662593314843 5.075797088918607
Au 2.8414308132444384 3.8290290903476976 4.775133807217751
Au 4.498746588544817 8.71390058832815 10.597214225910209
Au 5.302622393149038 4.213870690449015 8.804935897389289
Au 5.068446115373443 3.1120815635419454 6.2704625087454495
Au 5.929592929957493 6.20475587614724 10.616819402869096
Au 3.212642861159772 8.672356764089656 6.704558667001177
Au 5.013293870623533 6.138742153446638 6.463201210266938
Au 7.481840484553847 2.9664266111685755 7.520308474420703
Au 5.784637688517486 8.219861348205617 8.172220576484593
Au 4.553358684814852 8.263128191923746 4.2104887575891174
Au 4.622912121877089 5.576847594525407 3.486104071432891
Au 7.80964803790195 4.13528125490428 10.05402702630986
Au 4.9929981936557715 2.7817163673163434 3.4859391806963806
Au 4.194049991715719 10.537309726396405 8.525845571486805
Au 6.950817566134396 8.509345480569264 11.86322156145914
Au 9.986120690843247 3.1750178364517967 8.619579569401632
Au 7.484722389221414 6.047665592786237 7.898556406523685
Au 5.196482023365062 10.408200303965705 5.844357545619839
Au 8.475346580817503 6.263348625481478 11.604456984008012
Au 6.668159431810313 10.373666348778945 9.817648182378125
Au 7.347076353180271 5.278864598685504 5.2071767877304405
Au 6.280515575945904 12.184912816849591 7.706737757791045
Au 10.008625272571136 5.96137647534416 9.160203146720992
Au 6.741888871106306 9.892627602664918 3.5292875725207047
Au 6.704650625087419 7.211896647140525 2.7467202556525647
Au 7.051042468915901 4.391656769965455 2.552217860221293
Au 7.079391791822891 8.000795059835712 5.724632370820441
Au 7.419393809855035 2.4750156879842478 4.726697111399876
Au 10.862800463904584 7.460542360164204 11.241969994625071
Au 8.775530229948346 8.484331971142257 9.67123814950962
Au 10.033427848821534 5.147330370678216 6.515965039321167
Au 9.707382951296253 7.867687579759731 7.084755308193161
Au 8.240407867858503 10.186194039611934 7.499901440550679
Au 9.72185820353979 6.98056048768666 4.451681251589926
Au 7.541956469510331 11.851041133932803 5.302704924991608
Au 9.173733231787745 6.032187042937604 1.925670036741197
Au 8.965820139768779 8.73502393198767 2.3158850381600007
Au 9.565564182791537 4.031363524393729 3.7720382978522196
Au 9.852697629226354 2.443105968454275 5.99967180965748
Au 9.253939829388031 9.686700049448378 4.961998086296619
