44
Energy = -116.76025057 eV
Au 10.154679890356482 6.201057590725842 8.662088415002069
Au 9.79838138979367 4.2277252845347055 10.610168225534256
Au 9.160654949983783 8.748281607057969 9.009148260488578
Au 8.310455024221309 6.615002318010545 10.665696157192993
Au 7.634559708083446 11.082022251394442 9.123321231685269
Au 7.29951173667204 4.397849385759872 11.911455911629862
Au 6.736303569601723 8.819015809209574 10.361012003827419
Au 5.560634737413 6.566428238746435 11.62538748757942
Au 10.89620216645312 5.463711168890045 6.1080636250922336
Au 10.335979630480129 8.063770219530637 6.611842161532737
Au 8.7467292154584 10.360970117492807 6.673549241916879
Au 6.281434203487857 11.706870389234929 6.746995059342304
Au 10.1992071589614 3.485912301282133 7.981127506459007
Au 11.469737029802193 7.36502225150395 4.1641324918953115
Au 9.32103780882125 9.150098489819106 4.242544332169049
Au 7.817918363290429 5.478237574880017 6.927192384140046
Au 7.480403390332299 3.7958328910503805 9.17343124072546
Au 7.024455144769096 8.235952050267446 7.140540472117321
Au 5.003735581881174 4.101779831243777 10.391332707164931
Au 5.884255142714929 6.363511357702334 8.82164153178268
Au 4.022312550462689 8.764725701210166 10.780797603138181
Au 4.954627609817197 10.3706356331894 8.780284542903013
Au 10.11452899271614 2.99828832191135 5.240787453531771
Au 7.776105556648511 2.623198050032372 6.751715420843464
Au 6.726322666406161 9.99979357917397 4.6405357057278644
Au 9.573638700886741 7.428425708972022 2.102847511233246
Au 3.1897398454442834 6.213642595927748 9.98428167950115
Au 3.1207321056689414 8.415320857456607 8.186561062944538
Au 4.4156678347776905 9.728470691936797 6.140692040797267
Au 7.512554425477839 6.936109753910783 4.646661714395864
Au 9.906676137364432 5.090638363464497 3.4776777761481514
Au 3.7421796655315904 4.303551436860784 8.01010980080901
Au 5.109821001410153 6.568036952898119 6.143841045938931
Au 7.579639003401553 3.9592098035049994 4.3356703322347325
Au 5.361335929252823 3.5925696759014416 5.96881660651567
Au 7.019538393601593 8.4665101556864 2.3546569127728043
Au 4.5839991812992915 8.45743366944229 3.7004504753113343
Au 7.43881704913259 5.657119009190472 2.0987116034788698
Au 1.6622276683248587 6.172239280886207 7.648912713285857
Au 2.5662655096818296 7.735408715668578 5.5380145093797895
Au 5.087499115252842 4.972092886961124 3.583160846650899
Au 2.9209179288547036 4.910904689591729 5.435843308096704
Au 4.969552594188529 6.751916672630684 1.4952181348409552
Au 2.7247456144403026 6.469107659007126 3.1009717305825135
