49
Energy = -131.42255197 eV
Au 8.450823175887113 10.9369006439535 10.796541694411859
Au 10.016558348825196 10.247574171628179 8.653075089204862
Au 5.724377828205182 11.003504183737668 10.839080683116618
Au 7.254032624259267 8.877014021340312 12.199534159296045
Au 9.802498100251622 8.515144938758848 11.029912455673118
Au 9.09502806104893 11.043816611957862 6.1974640063808435
Au 10.459521962358396 5.903774683761646 10.176928575541968
Au 7.102473261269343 10.361078129462937 4.39994407027203
Au 7.300552980024528 10.89273217267094 8.226692651004075
Au 4.5456311604953665 11.002242328035967 8.359517966121263
Au 11.661754189364336 8.090911746595904 8.877204925179175
Au 7.900563380335163 6.333197878863355 11.143941423911754
Au 3.6881325612940405 9.038323059974587 10.607758784499074
Au 5.278835665464133 6.985824686248088 11.684808130919706
Au 8.724178151141395 7.610144382275738 8.625547269072824
Au 8.445457147879646 4.138935202607142 9.494869894124399
Au 11.069665385382011 8.99464719963148 6.286718205743638
Au 4.635572084424017 10.837634053994629 5.32330724391334
Au 8.234856527803167 8.291530068948784 5.997454260339123
Au 6.26202566422939 8.619523942155666 9.539816001347818
Au 5.6606974133693 8.772885385682958 6.818010804612141
Au 2.308321212973854 11.100952659364504 6.7295599089012015
Au 12.93899127136943 5.676173272836604 8.97721633984021
Au 2.907726669239685 8.702912415114573 7.968674613037254
Au 9.757445032052885 9.673811824214171 3.857586931453238
Au 10.845722879905598 4.15240767303488 7.976568585923226
Au 11.798401902341412 6.346843401363753 6.54275811686426
Au 5.7810704184749495 4.636881907764524 10.223761891788065
Au 3.8941426795099123 6.509102178078701 9.293828926776204
Au 2.699581049252282 8.786428998145102 5.166031398208608
Au 6.377436307628721 6.290786331589115 7.972796438626589
Au 10.249046197226898 6.959557236691373 4.382959394124471
Au 8.67060982671625 5.609143897447909 6.635080081261154
Au 5.112317475081314 8.636183717723386 3.5917534225537335
Au 3.61239575601334 6.467883859065842 6.508389519550173
Au 7.811242651962718 7.875594998802024 3.085986549938062
Au 6.2682521487941765 6.316559328689391 5.220979970114265
Au 8.690059763805136 2.7347611361633803 7.06538037008466
Au 6.48254858584812 2.396041564002211 8.67934599924919
Au 4.615848947941611 4.1362191451594885 7.672542009914881
Au 6.074067076048666 2.4648882654130455 5.945127869018647
Au 10.448656025648006 4.191054104194709 5.149828506418407
Au 3.2148594411662814 6.582806546088451 3.7097274411274026
Au 8.32797517850128 5.151736978644289 3.488382950029115
Au 4.15428337508804 4.204302227671945 4.974373313297683
Au 5.811933966007081 6.14278236428132 2.464323384973706
Au 8.412619645815324 2.509230495959654 4.372161294436548
Au 6.1475468314229955 3.3697285042477527 3.2298604883246527
Au 3.778670985821336 4.339123684385358 2.2294896753880598
