41
Energy = -108.19436384 eV
Au 11.792333834833284 6.878798821409766 7.435802892729407
Au 9.883285124914877 8.330773220103643 8.809229916817783
Au 9.36173690615712 6.93543916084475 11.193054555142458
Au 11.678968765551074 6.816543046231871 4.727765455640387
Au 10.077700635019609 5.365649879551926 8.997293410761252
Au 9.946708430843637 8.588323798237885 6.012296197609478
Au 7.383670529465523 8.53269331403244 9.958076259281837
Au 7.832549328574531 9.671207336977508 7.438458062422914
Au 6.813652072565915 6.8323483112101355 12.118455783365736
Au 10.187941423544704 4.916646613787346 6.237558267579225
Au 8.055790049159027 6.644216547325486 7.452456624661503
Au 7.613665408875383 4.9231564712372045 10.197762270131552
Au 9.616589533206636 8.05971173291118 3.244819376684234
Au 7.74926633388424 9.666061780729367 4.582463795213423
Au 4.716580929706832 8.126700509380045 10.92505683299491
Au 8.180753624982465 3.661354504943946 7.805231452595671
Au 9.766660735892442 5.238119096840653 3.500935390931861
Au 5.2682196383355615 9.69475466201916 8.603148519933846
Au 5.6575334881803565 10.745115454794579 6.040790354330549
Au 7.642192336281705 6.704903159351233 4.719049610823042
Au 5.544977132802956 6.5851625536841345 8.65776471022921
Au 2.6255406895557534 9.22132026248845 9.427241295632824
Au 5.666443633256404 7.909649199070277 6.250976930132171
Au 5.490888477057877 3.69465287174722 8.776254033848101
Au 4.8517031425713135 5.199124776030814 11.035432639294436
Au 8.248367485410393 3.4053309860381114 5.001574768534896
Au 7.660505216725562 6.565158701694678 1.9659231188914503
Au 6.015062105495354 5.08185865324499 6.227519567513854
Au 3.079216278410577 10.51518221199293 7.042618261663122
Au 7.7510668931891145 3.801260558896248 2.2329418884449184
Au 5.411947196867717 10.542953347868425 3.293862929229487
Au 6.122577207697621 2.2916810704375625 6.474659856123566
Au 5.4202827448862285 7.81706357675402 3.1180442391534418
Au 3.3289886133154343 4.966452981528681 7.264714197088357
Au 2.8654344804537084 6.447308229758632 9.51865417965276
Au 2.766686394767752 7.72754650571329 7.018724913801047
Au 5.459464501208965 5.081686673489097 3.144137111480173
Au 3.5152875578249057 9.112295846708875 4.703605939652734
Au 5.9891792230560545 2.3459044720232147 3.708640529916126
Au 3.9042152998909145 3.572145670590634 4.982425670965249
Au 3.5800848765318385 6.320254274523523 4.770016608535147
