41
Energy = -108.27792618 eV
Au 7.016777679127181 5.288312884071966 11.339708035620246
Au 6.802068478148121 9.943055059594897 10.748602519714494
Au 7.70196456669878 12.24090967728611 9.53374040229798
Au 8.302235352406818 7.5523754632278415 10.366649817369227
Au 5.830332068900324 7.702776897299087 11.814133272740818
Au 9.033010725620342 9.81461214841166 8.941031589124048
Au 10.184194424190778 7.42569915990109 8.257086509662042
Au 8.889335121674497 5.002735285908995 9.38273949932207
Au 10.527974619390196 4.849122162888315 7.20161179426234
Au 6.313306961500956 3.7652759306565673 9.174938227761832
Au 5.439024585827577 11.025835902857645 8.586990428483743
Au 5.550317176241099 6.301611456963696 7.64628427094415
Au 4.5374497895746755 8.53017099760075 9.521521859561059
Au 4.525149055009438 5.814588387117341 10.18663864020213
Au 9.269441672140493 9.040358442642674 6.060068409664051
Au 6.742679205922083 8.792372673438395 7.535671294235816
Au 7.894368565428526 11.340120919704987 6.91256236151413
Au 10.299087612329343 6.6236201586438215 5.099733545769037
Au 8.14156090837304 6.34649283879974 6.861931687325739
Au 8.225313470204268 3.2331930773156308 7.231005068997249
Au 9.854396440202187 3.5605104037188333 4.942118994795118
Au 6.441197069895762 4.776847518144918 5.431201986647889
Au 8.499487278145596 8.078379696962044 3.533287770565357
Au 5.566852457101694 2.4504275942766656 6.870644110256662
Au 7.309777769914063 2.1962714132247876 4.710663138618594
Au 9.039696481407328 5.3617270354546225 2.9783787246183504
Au 3.7096644306300366 4.234162083873677 8.10532641538124
Au 7.027118516491468 10.173402714773003 4.639524367897142
Au 6.203060935615193 7.467339556255359 5.137038823665908
Au 2.859679270773478 2.4425649414602066 6.193159018780732
Au 2.900862920016613 6.9494773774634995 7.719796219625904
Au 8.96857984404823 2.580177337786138 2.5439183223219395
Au 6.862414001052309 6.620007149189618 1.8684214468009142
Au 4.589719957287258 3.111228458818507 4.219629692680756
Au 3.8177692765354374 9.487643476348772 7.05706232597103
Au 6.610369883783026 3.994390565309825 2.587954336618038
Au 3.0348521983890744 5.17991024639683 5.5277304866690535
Au 5.401218295046998 8.67841166989142 2.838110879362989
Au 4.575636910872124 5.865540462485713 3.300825878701502
Au 3.33673386458576 7.8175319476336735 4.89613677368624
Au 4.28047179019787 10.455960456900419 4.611572682461201
