44
Energy = -116.78980298 eV
Au 5.271608350884056 0.9968693147292533 7.824444293180819
Au 2.906963394234533 2.212819165778781 8.380503695551793
Au 4.220544437262695 2.8737409862380456 5.971362464616327
Au 6.853866736418451 1.8954873077021703 5.750518368707635
Au 1.9850525012404412 4.265194936779334 6.698629447842831
Au 7.666827236279879 2.2330874869555872 8.42317980596798
Au 2.915250088302562 4.773980993535778 9.356838639171503
Au 5.2842338217716405 3.3474260690843485 9.395185226324111
Au 3.4667780747246866 5.164991628462249 4.559842794575377
Au 5.969869260968923 3.8761872492204694 4.005684078460907
Au 0.6052540656136475 6.051057876888583 8.254850703265111
Au 9.607923724513467 3.8439197389957354 7.413403930010916
Au 8.752911436497994 3.613323488890344 4.726039945091101
Au 7.775222785793441 4.793357138524292 9.525989621365794
Au 5.288216582747829 6.048323863361401 9.997838255246966
Au 6.803573383037355 4.481498718370537 6.7926525593338445
Au 4.555344605824413 5.97440739363296 7.19114403129835
Au 5.086648535767706 6.071339971481966 2.566943103598889
Au 2.1536957274994446 7.118382691669218 6.14868787506693
Au 7.816959780486982 5.666304900271631 2.9202807518182126
Au 2.8587538103033565 7.518364438317764 8.891428282816381
Au 11.507550837306669 5.546121114853388 6.291143826079468
Au 7.072095098896911 7.215975987510073 7.7678408506187315
Au 8.916167532817282 6.316217363886007 5.8067209555068
Au 4.046191951485189 9.095502108424755 6.895578051245106
Au 7.709786316282029 7.454689830409208 10.401458191853132
Au 6.274917786025728 6.781648144005249 5.131261832827056
Au 9.848852480601328 6.400887545539918 8.571382131693513
Au 6.4494779182053446 8.424710101151923 2.8336542700890455
Au 3.9625284490662427 8.058922380501055 4.285658900334445
Au 9.319161349186409 9.10695057317771 8.734906547547252
Au 5.192167891197612 8.742575280656755 9.474875247031235
Au 8.24656758856825 8.99383446530954 5.952998408226356
Au 9.241369293205095 8.007716446636847 3.1185172855354226
Au 7.302739254270378 10.234365125634906 10.302100509645529
Au 10.502428861351722 5.611628014041197 3.685789590756787
Au 6.276938602912975 10.586916997412745 7.676573875001225
Au 11.00503563184353 8.212908308522351 6.632583159739741
Au 5.793585869763265 10.106238931510303 4.99939725238089
Au 10.653948636722806 10.934656016967745 7.026306996468842
Au 8.124762849664787 10.527849924399895 3.3985237700724933
Au 8.649301745229394 11.855266591742161 8.607085461366362
Au 8.162344962712446 11.737111407244143 5.868565832797854
Au 10.582108871665744 9.992486274584751 4.4986046923177705
