44
Energy = -116.20069546 eV
Au 6.141476343966111 4.349343823371256 12.237349387871053
Au 5.093346203798364 6.506905478037047 10.850502827362105
Au 7.916426742986836 6.127501585554277 11.123437060344243
Au 4.527642987133389 8.594217557877654 9.014179234247505
Au 4.373783017391771 3.8708735046590164 10.126522801232595
Au 6.857403341987244 8.647644305031218 10.61753016806214
Au 7.128363094935248 3.8007833227165517 9.739175348664224
Au 3.254492993563807 6.134265715318538 8.849493052321467
Au 2.585763051719518 8.166829108585759 7.073264560667063
Au 9.321218181885099 7.93813643529116 9.580600244161717
Au 6.491345630659222 6.535304346646822 8.346836180994345
Au 2.779165726284761 3.519902306785294 7.943532008610265
Au 5.4427125789791315 8.56836383080249 6.304372265219108
Au 1.3259773235847632 5.537185812041667 6.893801860935223
Au 5.491542827553549 4.021662105904053 7.459285737073373
Au 6.741626934523135 10.11229342337285 8.350836826206617
Au 9.235972696627261 5.242634723274941 8.749722642896053
Au 1.176234813444081 7.174470792038087 4.707859476264452
Au 3.2787173235589346 8.935270045713034 4.545571303141122
Au 3.99669802370446 6.042088377501371 5.920119925868235
Au 11.065249178426248 9.551922971591363 8.131403863319255
Au 6.498878604309123 11.374592871676724 5.918428277742464
Au 8.97248649584264 10.780836172827438 6.874412642291551
Au 12.949472888244083 8.448276632277537 6.339432641937914
Au 8.402615330692344 7.842066993068004 6.904558323778367
Au 3.7900610120096845 2.7746754223330434 5.496727732169283
Au 6.725513732925478 6.022603348622434 5.618586044961794
Au 5.464438264694679 10.294786767416431 3.674886400982463
Au 2.0914880865005774 4.548196101930645 4.358654994278683
Au 7.836927958327225 9.386473917032742 4.575767625765958
Au 8.199133531799474 3.114136314384155 7.339773858230179
Au 11.100416077983404 6.84618196731312 7.625917890353709
Au 3.3468157225483464 6.601094358379811 2.988381403870241
Au 6.085964294459372 7.3312690352486305 3.2472401956542876
Au 10.528170589598568 4.454155948730777 6.414708443826254
Au 6.485282709601086 2.7662629568287795 5.107914768968004
Au 10.460253302636248 8.956415223806088 5.329106191029335
Au 4.935331712095883 4.513441812452375 3.640822235336156
Au 8.940977539439153 7.021900510075376 3.884664925069002
Au 4.127236815676287 8.887822217174634 1.7953781665635355
Au 7.610681546128816 4.6856510900288635 3.2715773132910675
Au 11.68197879274406 6.485287266383899 4.892535623627673
Au 9.163182255883523 2.7897942260758235 4.801087450595822
Au 10.370276924382773 4.7260145222118055 3.3395905343370043
