44
Energy = -117.01181718 eV
Au 1.0104028304365358 6.609386414627036 7.706573420784926
Au 0.9513623628974917 6.581156392446252 5.007216348817279
Au 3.038697042396279 5.268429467451698 9.045435148779507
Au 2.9551257045412185 8.112028303828417 8.886042244671353
Au 2.827742905546301 4.933129992980385 6.328597107705426
Au 3.7004146932168345 6.762937225833157 11.26377778610537
Au 2.393998199877478 8.672120669594435 6.236701002019809
Au 2.6993338814342183 5.019745594197586 3.5432391965661303
Au 2.8699960659935466 7.947773331977505 3.598084791270998
Au 5.030788988823546 3.7906691127824033 7.651454491772263
Au 5.246169169584094 6.675807417243161 7.66550011445026
Au 4.666136331240398 9.766723914653419 7.519493836816663
Au 4.677082839507077 3.4163172274178937 4.918194960507097
Au 5.566707667243581 5.017722181642163 10.14882441050828
Au 5.437038631856617 8.602444913913786 9.92462097464619
Au 4.562717072096235 9.699495074858419 4.763096659648941
Au 4.910846857323568 6.39110297231061 4.877162448879612
Au 7.1251601327046306 2.739898200915419 6.0809878013997345
Au 4.682861807091327 3.681959850397589 2.199289885318508
Au 6.31646731040749 6.996192073452713 12.049335129006378
Au 4.523456498856356 6.49206247799847 1.9579048255977953
Au 7.393995320469474 5.503927610669596 5.884566191720953
Au 8.185429916549113 8.412207607669268 10.504043234658948
Au 6.58407597041295 11.071931932048514 5.9555180418057585
Au 6.933309238153411 2.57757353099419 3.3443846071205767
Au 6.371019571675092 8.158065881071794 3.1085342378483602
Au 10.924935303788876 5.903110881682241 5.216888277936421
Au 7.609762551653753 4.051955052970211 8.581965740772258
Au 8.29571190922339 5.646604195123142 10.778175432122625
Au 7.341241383932413 9.959789774794865 8.379257760949123
Au 9.605947787090217 3.6862668620157057 6.780554662919192
Au 8.369023639932392 9.733579527305464 4.1487785650394216
Au 8.064727475514117 6.90482465128517 8.161773362920396
Au 6.838652167131742 8.231634058450174 5.994566746403836
Au 6.911131440501737 5.342234020909662 2.7848230859917766
Au 9.319237148462713 10.91599767743732 6.519426783293564
Au 9.924453369603027 8.972544297369303 8.414618238426039
Au 12.258770650177025 4.444258218113321 7.295025841850214
Au 9.098342318051102 4.1435580202730184 3.935706780189183
Au 10.28714361458255 5.288306955439306 9.025701068833971
Au 11.529223990691532 3.2361839749532164 4.89693044197786
Au 10.373624161217695 8.53199439197914 5.6285032218998055
Au 8.850655212050063 7.011913901615942 3.8037779951104467
Au 11.768536141601023 7.142425027022568 7.535894922702275
