41
Energy = -107.56294203 eV
Au 6.19206416082532 11.304925076167766 7.037623214895258
Au 3.617201110061919 9.138821298495097 7.234959051688676
Au 8.130899532858654 10.779360880929778 8.900570176523855
Au 5.649527651094371 9.4737746273036 9.135938857377285
Au 8.22797027824108 8.589190255600913 10.735801551576822
Au 4.283032793608572 10.83160151111046 5.134075473274496
Au 2.555779114617099 6.645639494969276 6.532433108558487
Au 4.959586044250441 6.15529812211872 5.070483553323148
Au 5.050800682267097 6.8289263786780685 7.920334469410986
Au 8.685420963892357 10.53806341813742 6.083241879669551
Au 6.012721792560025 7.074211416389745 10.48775685892865
Au 3.4219287411800035 4.651272672083882 8.380747003213049
Au 10.38271927334628 10.23047853512715 10.573999154399015
Au 3.351466062483366 8.415820492679726 4.39670565577121
Au 6.148210872176823 8.682473286400386 5.900016341692029
Au 10.696949492282544 10.502392968426754 7.901468377098715
Au 7.758368042806798 7.922084062846016 7.999685076610449
Au 2.582159620728397 5.910457497354853 3.6502681051074055
Au 6.075077947940664 4.536986379247817 9.60452113254641
Au 6.806845838433953 10.754675656155497 4.114994875214737
Au 2.992945472518837 3.964635506805722 5.679284466696782
Au 5.910391257096996 8.340744920886035 3.0194560414505762
Au 7.560866160032706 6.247544343083674 5.8697362862122
Au 8.582385043109587 8.58494416142535 4.026609437617324
Au 3.6942274441097886 2.0706643721699414 7.5605586633850095
Au 10.418907192828426 7.85882320645739 9.032213029917987
Au 10.405255863642276 8.351536626609606 6.217522048254258
Au 5.8151690183232505 4.178151960708968 6.808886954268234
Au 8.563617061941658 5.859147750082197 9.777304468837821
Au 6.270062224247767 1.976057407703638 8.65164961833745
Au 5.1327857315806575 5.792737294564466 2.3011636017716457
Au 3.8352421391922813 3.509155724259233 3.0664980809364537
Au 7.761019140343002 6.097625571145879 3.0271495623827542
Au 6.502614525752229 3.780424671676311 3.970044812108892
Au 4.601276047723033 1.7370709919496468 4.933154403241852
Au 10.100778704757248 6.267786308598487 4.505175506275888
Au 8.968835544235098 3.9161647451769497 5.334251939618954
Au 5.446721287219907 11.304925076167763 6.867127751139864
Au 10.022615452378348 5.742583338301132 7.297084548539478
Au 7.281525963797862 1.899673060964443 6.005177437228385
Au 8.38853024450071 3.666191446068053 8.107570205032806
