41
Energy = -108.51910282 eV
Au 10.519578746054405 4.745354157349507 9.95046692627688
Au 10.425825883702569 7.108494348247752 8.457901255154814
Au 9.374553819718997 4.673942639977162 4.645895957070374
Au 10.0338029890236 4.485198998718226 7.310953535094746
Au 9.498436208489164 7.129414069813786 11.054830293639371
Au 8.234161286047193 4.669465779099142 11.530952560308812
Au 8.163636969596647 3.4273460616591747 9.043192819469681
Au 10.81772584398189 6.704703861762893 5.845525540435741
Au 7.902311493539806 2.972622186298242 6.3002595924312335
Au 6.737692208554592 5.765725179363618 8.266529337484528
Au 9.203725762279715 8.890444771192897 6.422967100788509
Au 8.540637450932053 5.220025218886853 2.085408829092284
Au 8.252847800129736 8.649141343993294 9.061105284892651
Au 7.600511419627668 6.777144090870917 5.871959795725445
Au 7.136029157923524 3.381273755117837 3.6479304808510498
Au 5.3377527454397224 2.1256464282996252 5.324970165672809
Au 9.304712751008388 7.4140202968902225 3.705152068112526
Au 6.769144387236878 6.90062462351234 10.830543987732796
Au 5.6849163118748285 4.869207153831028 5.849878932891414
Au 5.6419091686252045 2.83190470653082 7.983242301094392
Au 5.788998789869099 4.16230358255851 10.490038300918174
Au 6.6733440357349565 9.79106060458533 7.014886019750787
Au 4.913262642179337 7.420128793133388 6.976291610007965
Au 3.194054770074027 3.643066989780327 6.35504207949802
Au 7.142287778916895 7.5790585470132665 1.9880822136214455
Au 5.529328009463525 8.881111636015284 9.450063486010423
Au 3.3977040373193694 3.931835924157845 9.129767245256614
Au 5.242057408916185 7.023651587172526 4.160413932391081
Au 2.559026091382147 5.946569937183089 4.889765090972407
Au 4.109367810514277 3.9515925363257622 3.6472183201630055
Au 7.263340807310908 9.240093780331097 4.305390773578479
Au 5.842535997916112 5.074671189806416 1.83788469545192
Au 4.227909790895998 6.486671728914693 9.725810141737641
Au 4.586487172639723 9.826383874189418 5.037466295534237
Au 2.378659072124906 8.393119787292118 6.201098258662619
Au 3.9426095096042726 10.107402320320155 7.67189407298266
Au 2.4278158367386586 6.04171480257834 7.655581505043912
Au 5.119364110194519 9.269397510852688 2.3879288409189954
Au 2.58695548084394 8.44429492240688 3.494741570049486
Au 3.379059814897948 6.123291062009323 2.125445486594892
Au 3.0640106704171606 8.468971253698784 0.8136153383754211
