48
Energy = -128.35450622 eV
Au 6.279650137766439 7.5286494666787895 7.546866458710253
Au 3.949991207479611 9.268991408326048 8.52626896680991
Au 3.844208189475716 10.332219658163837 5.989537638202841
Au 2.4673055989744954 6.908078853424819 8.672227797353106
Au 4.279443710844074 9.837962517180705 3.338088178228201
Au 6.278322774453082 8.176020038388863 4.617365910229763
Au 6.283931277015421 11.068586807282951 4.723038634583896
Au 6.2842891424255365 10.410949871885261 7.397556408645089
Au 6.2830416892705605 9.440170787265608 9.991328567181649
Au 8.616903778692484 7.315946399267338 6.042641928147076
Au 8.732419064487024 10.357721134545923 5.98860664529166
Au 8.61243489399779 9.268725440656974 8.515760838221269
Au 10.90184690734483 8.96354776742761 7.027844276468796
Au 10.55334429462146 8.597484522304152 4.319145790485467
Au 8.285080744643082 9.835772147517588 3.342817120480774
Au 7.674867782832485 7.051545741516088 10.103147039209695
Au 6.282182610281187 4.600486571865198 10.434848998988832
Au 4.887867837946205 7.051751832215922 10.111692124308732
Au 9.038086113729738 4.676678662815919 9.949473940878562
Au 10.090199351164253 6.9051126110926315 8.656590699189895
Au 3.943780315315304 7.301111800534283 6.0432931788521245
Au 1.6641737317465954 8.957436379950575 7.035570022258676
Au 1.177236300222042 6.423955854176477 6.012278101705814
Au 4.107383483776788 7.120479441956391 3.080475245108139
Au 1.9270469677979722 4.4008634982269355 7.706735848277493
Au 1.6232508319310888 5.9708610569588965 3.3171046459609475
Au 3.9296608907232096 4.3855151368469985 3.2817585054345786
Au 3.544261896023132 2.469029188694715 6.682372364959938
Au 1.8307045019607495 3.8127097366028355 4.9974423028125186
Au 2.0116280724269537 8.600672295566408 4.3227158462131285
Au 3.8033571561360278 1.808837710741847 4.088989127922885
Au 6.281069244600659 5.57909057517289 2.468236156259301
Au 6.277046987980469 2.6960197709384515 6.415314847145528
Au 3.5251584892807957 4.676965435737223 9.955108376014
Au 6.283156990907127 5.409036087560588 5.178011444241703
Au 8.451670060651129 7.114375983177581 3.0892678304643715
Au 8.751759223698414 1.7945414528574586 4.081291540464527
Au 8.625236922303973 4.384902108465347 3.304790146759558
Au 6.276370157920772 2.8401544594951846 3.596356710237542
Au 10.748061749408949 3.808364324030671 4.991604683752096
Au 10.940227955277594 5.970459051907183 3.316770287128378
Au 4.941941101105402 2.52901501013066 9.002333395100786
Au 7.794587149541554 5.025286607721878 7.4345548854034735
Au 9.009006170229402 2.4766551035071527 6.663766429060468
Au 7.624957572874477 2.530135321584421 8.995341465729666
Au 10.639674248510767 4.389153280633795 7.705034968366929
Au 11.381122810186547 6.41914540313851 6.012821356765938
Au 4.770351673557936 5.018125442024816 7.435112089526326
