49
Energy = -131.45929789 eV
Au 7.238517419922969 9.7561766530543 11.583073431454462
Au 7.317771367308408 10.451208197332996 8.907264142160512
Au 4.977505479195443 10.292711608026005 7.311281748866384
Au 7.450905639187422 11.148550737597446 6.230935616815912
Au 9.512625475586885 8.698521750742584 12.789536554584291
Au 5.1011925980431645 8.187266576352753 12.433429870118061
Au 7.696849433525573 11.626025875122478 3.539236084890105
Au 4.824151989055355 9.633267212792699 10.026457361459105
Au 6.851645582318321 7.680438706745098 9.562217604136658
Au 9.656086706678947 10.076356024738452 4.81276658300226
Au 7.532842998099738 6.883065432839992 12.260511984453915
Au 9.588352137722126 9.192977756675818 10.113818773309209
Au 3.0296392412250452 7.527429920317315 10.818642563883346
Au 9.698652804368189 9.683607668631339 7.4838417939623385
Au 3.1994107708444837 9.078134317603503 5.575726249950899
Au 7.134999505295109 8.460760278964408 6.801000683688273
Au 5.504953779350978 10.151849195286442 4.421352889026878
Au 3.0798077278369456 8.442159633536129 8.246446283660198
Au 10.136743753091938 6.566089748699114 11.130775115253545
Au 9.749211966084117 10.312236322779617 2.112532085093049
Au 4.753814985129578 8.230220042291952 2.34077897881208
Au 5.269808762862543 5.801790750094341 10.971004837037198
Au 7.216158214867665 9.255174114349071 2.193252737868259
Au 5.494408576506529 6.265898736770905 7.340864223188421
Au 2.644569291627226 7.142362243525758 3.661941422467516
Au 3.3469126866943997 5.57254966275987 8.965178872498086
Au 10.735973830031746 7.260389181460506 8.45354337774711
Au 5.284488180705197 7.348700325284086 4.8780724484325235
Au 9.523082008621323 7.758210624090827 3.0666431148069684
Au 4.690365065481078 5.329748549523363 2.8875975341698195
Au 2.529632955434321 6.446606872190674 6.395260477063541
Au 7.927641591322314 4.8525788763085735 10.46363000731456
Au 7.117681304348834 6.5342054353906915 2.452328589059394
Au 10.369056196790265 7.605882483923378 5.706248969716984
Au 10.53367070186527 4.569376557416277 9.340741384091128
Au 8.231415228336383 5.97790200571511 7.887171584411657
Au 7.758459523160287 6.309949925228558 5.210221823574463
Au 5.746763695182299 3.973630197900995 8.89127565760112
Au 2.4978065687289197 4.486003196720493 4.394941217270245
Au 3.863464614744138 3.9958828533597957 6.740643264166652
Au 10.573744842387784 5.049074121390743 6.5424779654068095
Au 8.336725868056982 3.1434750080239535 8.282923783779472
Au 9.784495732725484 5.150942056150564 3.8620936541095148
Au 7.128648619468458 4.04573091404966 3.56995723255635
Au 8.995526996019082 2.9261709337268966 5.408823177773574
Au 4.634117353434038 2.857353196634066 4.21548642090226
Au 6.332571893676774 2.749004081469054 6.484651077646729
Au 10.85747582269718 2.510939393149169 7.431478862970778
Au 6.938900518799658 1.400662047710803 4.199167888235122
