48
Energy = -127.63971277 eV
Au 6.129203236603079 5.962673685766709 2.5203253005417823
Au 4.009207974701389 2.558212024001186 6.235709406053283
Au 3.8255030323860075 6.796952661820571 3.7285661331783624
Au 4.654601469248944 4.000072570881318 3.922661599382216
Au 2.6364999716428645 4.9594455592605335 5.760301594723308
Au 2.0175147115865375 7.613287328512249 5.639158153889738
Au 8.3074017347556 5.543155136688084 0.9736076416416057
Au 7.075302359946246 3.2941103811510777 2.681700793871896
Au 6.405876706852517 2.0344128150223004 5.058722616536193
Au 3.4774156777492036 4.206768443704619 8.370279643932394
Au 6.046251841880547 8.538226030012272 3.4295584847837453
Au 2.6810935734941412 9.514528830555632 7.5610924790770415
Au 3.8461930380517364 9.496227149365765 4.7687728963615355
Au 5.1531612215507465 5.968541873709616 5.985054360437388
Au 6.167903304229378 3.717377330218909 7.576523061265634
Au 8.132484678621834 1.6982111197309502 7.212241487998247
Au 4.3010589605272775 11.178225014195233 9.148519268018106
Au 7.487209441204285 4.761224572285923 5.064203256047989
Au 8.858360056880093 6.913884015059398 3.3408570621667546
Au 2.7187550855719897 6.815908520345805 8.176089400083969
Au 9.209007240055449 2.5253877336214665 4.817533022334694
Au 9.71925835696852 4.201281156556715 2.8050109266199446
Au 6.418874961581071 10.81432454456265 5.123623583453305
Au 4.088655415126074 8.585524547327443 9.925834086729024
Au 4.187017372415068 11.65738144604941 6.458565295727589
Au 5.390121380657282 8.957305651635718 7.132789746473731
Au 7.3851565917863695 7.528810301156937 5.747334195069319
Au 3.983005853875302 5.85907922578395 10.530979006750837
Au 8.257882748466919 5.579560064565705 7.618511429613353
Au 8.56239082509066 9.597774960110169 3.9906743757230885
Au 6.432396907414526 4.606760581111367 10.433592922449098
Au 5.791659660187645 6.565584368893773 8.514969890524853
Au 8.610359761207715 3.3879362672377353 9.389667321173066
Au 6.68994335321671 11.68109345837738 7.819425399069786
Au 10.262755808975015 3.5257871890478474 7.212388542315866
Au 10.394806837021132 5.335423326941084 5.186739770053456
Au 7.83750105184093 8.485731038338972 8.345006257148734
Au 8.899852599309348 10.58730845570655 6.5451598125574915
Au 6.458757074802657 10.146731316693723 10.4099779670537
Au 6.351881403148405 7.420887574222562 11.136754100152128
Au 10.130371626873528 8.058850813508437 5.66962931949779
Au 10.939488254441256 6.254437703362676 7.771151089893708
Au 8.837489212536532 5.973876136294393 10.427463318522772
Au 8.868525264888596 11.087768637802936 9.317085359559025
Au 8.782791844553227 8.691985058650292 11.005605483482709
Au 10.65346155964549 9.085036399563572 8.11612101253049
Au 11.183494656485683 7.3749549470672955 10.255506766465384
Au 11.100763282075583 10.148791408277946 10.612653814032077
