48
Energy = -128.30576608 eV
Au 10.945265993644336 4.185710187601147 2.9962264224265427
Au 12.17096600353029 5.75670521238784 4.949333425013933
Au 10.758142463524198 7.329730475798308 2.8011457061548715
Au 11.25195521347719 8.266646325043432 5.464509149708728
Au 10.687386681608414 3.4539966111278257 5.641824016748273
Au 8.687775868304174 5.0022767941312924 1.7563318149766367
Au 10.193553331045583 3.7267876815540557 8.278566273330656
Au 11.121454297258113 6.252946600882195 7.467803142853486
Au 8.396982780203446 3.1209757745371203 3.8737339942072007
Au 9.345414722593539 5.845531961175557 4.580862268641532
Au 9.893724107642113 10.353813812304653 6.582421209518456
Au 9.909505518211933 8.465618106575935 8.663527655701127
Au 9.160888687099787 9.484743578898746 3.9305675434922254
Au 7.969250549608959 7.5303318532283035 2.3964139706962557
Au 9.300424120412911 5.992385230853855 9.704372219593939
Au 8.228311378588488 2.520280705872308 6.567531079847649
Au 5.859546762060241 3.29617577124217 5.178062681440477
Au 7.600893356714937 3.7030187547975193 9.247290393109106
Au 6.201334327766907 4.49681721576308 2.7405519677931145
Au 8.23186755386357 5.339769368665402 7.018084443465063
Au 8.425971196107364 8.005701230420504 6.165547976825147
Au 7.848012909380878 10.367691350075965 8.560788600407745
Au 7.252376257317667 10.776131238003353 5.842508239980896
Au 6.662448665546704 6.285577784499594 4.869122931664444
Au 5.750048663538149 2.2938635339864826 7.684601959368725
Au 6.298015694518316 9.35681473027057 3.6671159305368
Au 5.1957708206475575 7.048515753279758 2.6047319015014025
Au 6.815319240500455 5.723127078076458 10.966598775404147
Au 8.064953058301615 8.506257704133375 10.90394139992267
Au 7.0821225512314125 7.4968312698692845 8.62223165795766
Au 5.1966375262575095 10.987902606667857 7.812760710062292
Au 4.009002551948061 5.348815338099874 4.583434097097802
Au 5.770831335217328 10.128530854950613 10.366841501090677
Au 5.385239949748578 5.785673464421019 7.383118765305168
Au 4.472341485122261 10.822288435006714 5.114837697758357
Au 3.5258940046463776 3.9202237536917126 7.011374271981336
Au 5.594619056071272 8.474385790047943 6.438010722217476
Au 3.5587593884192628 8.184030521029035 4.493275165694313
Au 4.142342887603778 5.625050720860605 11.663668147214631
Au 4.870219363948577 3.989725104026995 9.632875617616618
Au 5.553441352868318 7.972581561894304 11.981064761941104
Au 3.130995097892768 10.30594398127772 9.550627353676877
Au 2.765642382576526 9.537751451995652 6.838320137376257
Au 4.382292238994673 7.904226876132834 8.883083051664373
Au 2.50471266334052 6.616249679453236 6.562402018431215
Au 2.6633153176650293 5.582126372267626 9.212239550313123
Au 2.857145304907801 7.977621070099154 11.184142414200435
Au 1.494383108363447 8.039596512862184 8.749073053909346
