49
Energy = -130.15504058 eV
Au 3.2766520953558493 8.668135835442452 8.799774919991885
Au 6.289049908715731 2.6406985172976256 8.809450142435704
Au 5.421628390679972 5.294509753168221 8.073224293444461
Au 4.360274025053774 4.107873832630108 10.316358604256092
Au 5.141333584132948 10.771112490231678 7.740132833036815
Au 4.738492775120677 4.516104399905294 5.370078372738741
Au 5.52111949577345 1.787687052234335 6.1018079727711765
Au 2.92460361515396 2.5017514957782496 5.078532375583671
Au 2.685618173381246 5.836950654375136 8.804195379396743
Au 3.5645875928002746 3.17798785457115 7.745279763443414
Au 1.932680136828707 4.992865442936863 6.115432042239367
Au 3.9201821957529424 7.058927604338071 6.449972687797363
Au 5.693901505880671 9.076051329567305 5.386466370003134
Au 1.3089786118196547 7.59665866867057 7.01570057188534
Au 2.2806242379731017 7.421167188320171 4.227240379034716
Au 5.23133797238524 2.7068308272181 3.3558863994976784
Au 2.872844760868334 4.82581536628819 3.381175519525416
Au 3.8956253045787053 9.543210986955174 3.36983945622281
Au 4.8463617871094975 11.653098687608344 5.090428512924682
Au 2.9245426154412715 9.737758488030982 6.0995476690975625
Au 6.840643276141362 10.517737488433053 3.3450129960623305
Au 4.915364943552229 6.849544972748349 3.3224389967640553
Au 6.524342160151126 6.522254126030601 5.667340631629231
Au 7.03990345852654 4.946633999704741 3.321823422566948
Au 6.004281507146285 8.091154086872493 8.074269165560914
Au 4.886257196344437 6.870373916873442 10.523454469440065
Au 5.497752547800522 9.619909092280269 10.305762126776722
Au 7.519357440599329 11.260446089100759 6.090984353085983
Au 10.463661902326201 7.368106956822552 3.380257233171561
Au 9.388642233423237 9.793161653055849 4.232435505744058
Au 8.301029608025706 8.502688849556025 6.459223629915146
Au 10.021574251833007 8.263451975333835 8.806221967564351
Au 11.120076287076136 8.03006142897197 6.109501275732791
Au 7.641891435918504 7.779648624707639 10.496223038348463
Au 7.8590343472729804 10.177892029826358 8.803907033711466
Au 10.892139712540112 5.616365182026874 7.73612666763444
Au 10.078104932735487 10.494539190668128 7.015298248885869
Au 8.145827451352503 6.187238640068643 8.069106708281016
Au 9.803512929416438 4.166791525439431 3.3853182777805655
Au 9.142439277804607 5.979017317874312 5.349379131453303
Au 9.708843377543866 5.8601073250161635 10.316514367162037
Au 10.13279963408641 3.3182632463790873 6.1154515746358715
Au 11.79039604074364 5.437017980391619 5.055780369028114
Au 7.355360374396924 3.9988425183397793 6.457286928531407
Au 9.027671775745207 3.535896671583781 8.802932440548632
Au 7.850900001654992 2.375533473054853 4.235455932700799
Au 8.178542522551536 1.4624284190556367 7.010763680810189
Au 7.618900725264931 7.754969631236496 3.318791577768472
Au 7.051880862651748 4.936298107031137 10.493984974740291
