49
Energy = -130.66102737 eV
Au 11.314790815723354 5.159952777901422 7.462000070597186
Au 10.989928319529044 5.6722680391831775 4.79761896131107
Au 10.002097292531975 3.2492342195073425 5.930011091046023
Au 10.550736236583926 7.750594584952038 6.950628662008302
Au 10.147959945018405 3.4666941729200262 3.2352929948091216
Au 9.631375729238913 5.946021120529092 2.3400927680494408
Au 9.990527404069708 8.158660019591217 4.256694892562292
Au 9.371473505477086 3.675885195515352 8.645501088772892
Au 8.481904928803282 5.764961640266868 6.792808702440991
Au 9.756873996758838 6.412762012872466 9.401653969127283
Au 8.144990538178352 1.8123491040394017 4.227888312659187
Au 7.8360684474894695 1.8493635770428283 7.005373877117093
Au 9.225170816658766 10.078051582613016 6.265980871468045
Au 8.601353532405334 8.909076904431055 8.675566765686575
Au 7.504669639154519 4.020715007166749 2.465216545669309
Au 8.724931564397192 8.42305427239201 1.8110585243827355
Au 7.807513211258222 7.572035849742436 11.002335921923788
Au 7.576766966601875 6.6057604830377 4.226703570250575
Au 7.0430611830911 8.352356157074867 6.2758835515932985
Au 6.982630330998721 4.044671047364218 5.327050253939477
Au 7.546949828436962 4.883250832513467 10.436596488635933
Au 6.698700546130558 6.534294313929915 1.6101556059334687
Au 6.155409846554309 4.115687443357419 8.016876630996444
Au 7.768761420597058 9.955755386498492 3.9426850698661844
Au 5.121309319614077 1.9266782109744565 6.459833885959251
Au 6.43437011912529 6.948739268441553 8.657631496284667
Au 4.920489673069064 5.159857669662616 3.2954361226484834
Au 7.31442996232952 2.223047632469615 9.70158150164084
Au 6.6095181485503405 11.135058339350492 6.225036562884024
Au 5.4241936892870255 2.4530604105895977 3.7035834905549097
Au 4.744978509125693 5.212858734942911 10.163351802677605
Au 5.284747102690581 8.570893361277774 10.844552849089364
Au 5.080715100668509 10.656263338492625 3.9926343358941825
Au 5.034135644330009 7.893496541994217 3.6823599331691863
Au 3.547723549873737 3.9813507021036996 5.391445728662149
Au 5.863234969910021 9.80837528922652 8.490072463444156
Au 5.370010150276492 6.190403026676809 6.096666271930325
Au 6.167289410949222 9.437444681655219 1.7016139344527357
Au 3.3894067721297896 3.272811259686804 8.074067537718006
Au 3.723582771682972 6.970100006457408 8.09327076167108
Au 2.8725980515448093 6.655417650187854 4.8899229266229876
Au 3.8975042052963635 10.510688646141071 6.6271996733565866
Au 2.915467703898578 7.291739519846331 10.869071061701367
Au 2.0107969485027937 4.881603204633295 9.751491050501881
Au 1.8308244265831901 8.615319076015746 6.7126373532337755
Au 2.692023464255956 9.412122989254767 4.312886264229355
Au 3.156472897053557 9.5075392621407 9.13461809954524
Au 1.6812080773528235 5.360202151106877 7.001711136294421
Au 0.9754153847273191 7.324971750142962 8.905139670121375
