40
Energy = -105.02219387 eV
Au 11.50102871529298 5.80616796750996 5.597455507375946
Au 7.886963882010236 6.351237415373365 1.5970270186433724
Au 9.37395168097981 5.729378077173893 3.8003594290714724
Au 1.6258149939701394 8.372111265065918 8.680719326210006
Au 3.4710223991168725 6.230125694286412 8.51598309592416
Au 7.854038892303751 3.559197753957896 6.835259887602239
Au 5.29651989330248 11.115031102331464 9.831936797805655
Au 9.369909898565977 9.484730312739236 10.456998841192583
Au 11.971124307270939 9.711458812042677 9.28884040470554
Au 5.368738303923539 10.386597557796462 7.110215430716158
Au 10.05062832313919 9.886066881687597 7.37045837894225
Au 5.3302863332371215 2.0400654690473496 3.207758293168211
Au 3.9402771872412177 4.5283893052668205 3.5304040516287505
Au 3.085340971134074 9.002165742851666 6.358834327983614
Au 1.4966579633807493 6.681038189114564 6.564293992412389
Au 11.569530992321413 7.481380831931675 7.672032356444944
Au 7.702345598901954 10.810206025010197 8.544573968755966
Au 3.2418350603231048 4.563875656050761 6.306023036519138
Au 3.3515895556441464 6.917672704839205 4.607742838958231
Au 10.08474685734488 3.528368045395536 5.3047194881300905
Au 7.7395340294400485 3.2469580596421186 4.0269406736029945
Au 6.23240267458686 4.281558964736097 1.958963357958645
Au 4.117283347190253 8.56006127973446 9.877718593661998
Au 10.258316130710522 4.7588145319580555 7.824020676059327
Au 5.473327575681673 2.9751462479427473 5.748949987710189
Au 5.3640018276561365 8.814490261280435 4.852413370681509
Au 5.503674439461389 6.721685367600492 3.0020603858804047
Au 2.970020322690525 2.2850386505114884 4.712320750517354
Au 5.500856499983289 4.491342482244333 8.006927619856222
Au 6.737905979366307 8.957983347135034 10.568513545534064
Au 11.170077363507033 7.355960248617076 10.393925764896869
Au 7.727551919651843 9.649069205702714 5.964108371565419
Au 7.782938664490107 8.015535989715852 3.7736531396757416
Au 7.890281486098352 4.657484885575809 9.312127379700971
Au 2.9587335537476425 10.74361628722319 8.509037591377384
Au 9.931284730560764 8.023626037857605 5.435317148170169
Au 5.839268773279145 6.426854528643117 9.90784997780568
Au 10.321304354380171 4.827130307541163 10.556229173145393
Au 10.161250145056401 11.841111348552218 9.377092614921212
Au 8.474204869551025 6.90783765480741 10.736763901581583
