49
Energy = -131.54307751 eV
Au 9.628577835980852 9.833085863999734 4.77478388184592
Au 10.744583113539434 7.5084385814240315 5.881032228022339
Au 9.614272501707873 9.477935345247165 7.546920609559665
Au 10.233932217255967 6.962117215824821 8.707839665249553
Au 9.39350449637247 9.125076336378397 10.254233147676478
Au 9.09033891606601 6.577122003650721 11.226831592059545
Au 6.829630581385999 8.569537267415143 11.15616460988546
Au 6.673641272528175 8.600939315666677 4.863558837792592
Au 6.990539277916506 6.6441638891872685 13.042566301678244
Au 10.214833870568341 4.877501071413848 6.920831897480069
Au 10.564219313693496 5.325209868559188 4.212552298531322
Au 9.301880433433823 7.592568822650395 3.2519782666906987
Au 7.152339821466379 9.992668044291646 8.815939665253008
Au 8.18419462644576 7.032303373357462 6.651606209420264
Au 9.369588985803631 4.394696355827222 9.53909140210033
Au 5.732214688076578 11.188292522622913 4.280423092949196
Au 4.779566002207148 8.57148116179486 9.322156958137352
Au 7.0914346573012415 6.497285928395933 9.1416616029424
Au 7.217468774630094 4.4407591912111 11.453664984391414
Au 5.059449596767788 10.272760342988494 7.034593335033757
Au 8.29091717971116 5.045962782956466 2.7051447824929866
Au 7.763268825981493 9.89936023005567 2.701101394591642
Au 7.631134066837047 10.942122600078621 6.259862891812075
Au 5.005509088249381 6.248683182243937 11.063286736345667
Au 6.827830732547648 7.279824063885568 1.9535403098932602
Au 9.113945987781118 2.468366132717893 7.557714021860312
Au 7.505497183188064 2.2841141921439374 9.925313920936318
Au 5.093737547315376 9.431780531809112 2.2183197996257693
Au 5.214594536511293 3.933909562036136 9.500237172011047
Au 8.725972938409054 3.41887320606965 4.934628088408226
Au 7.013726758385594 4.559782036118555 7.186379375887777
Au 3.52628642910052 6.046214926182676 8.742043750792611
Au 5.429760475702971 7.123833074711662 6.955006041508123
Au 6.432293561970944 5.84501799662001 4.663191336469795
Au 2.903882871699769 8.491617429508054 7.2916533886020645
Au 4.130868790413038 7.502301115119051 4.515199413609798
Au 5.617232990188151 4.644973428674076 2.274346122756568
Au 3.275020213471241 10.206168074357356 4.96189565254964
Au 4.0711572716785644 6.822543118103233 1.7266591013586412
Au 7.8074805796432205 0.15008457088599697 8.286372363026734
Au 2.4479567513063465 9.00274591674464 2.6072094503099237
Au 7.567013493142178 1.0090936180049284 5.634725983891053
Au 5.886767000829953 2.0309049250560554 7.567388226048121
Au 4.116714220779157 3.99644888339645 6.876906017063111
Au 5.908802384592133 3.0251980338137274 4.74504897504351
Au 2.3046983060389787 5.944755142657857 6.204601127987915
Au 1.2278585971785891 8.30459551121261 5.132982095249398
Au 3.656379534606868 4.501145463524779 4.1833222640071925
Au 1.8289150144072732 6.301537960561754 3.3258193275899
