46
Energy = -122.08225106 eV
Au 11.700498988895571 6.242990677765018 7.584703312139801
Au 10.411847693176453 3.942700546453572 6.887327380551767
Au 11.094449252787111 8.42523997683877 5.945919389207737
Au 9.654679406655875 5.33614884075326 9.313492479615732
Au 11.290943942467084 5.777767524147345 4.9209654783274015
Au 9.772075949242677 8.03502879568495 8.350959723226806
Au 7.892942250141957 7.330922515977609 10.220914159712548
Au 9.484206441178092 9.445095103102542 3.8365145091546946
Au 8.856431931619309 10.003814131332962 6.550516138894098
Au 8.934535131520796 1.932392620586205 5.795964351143858
Au 8.148549856925186 2.939793989010885 8.319579601825176
Au 7.962866849334931 5.505460254952483 7.21931827361473
Au 9.213153857481007 4.196002105943663 4.149217152441711
Au 6.1850455405136024 10.722730888136978 7.333430044638758
Au 6.746372947933137 4.811778826483337 9.848880050329209
Au 6.98674967014106 8.0911982173584 7.611871706326564
Au 6.27825428630128 9.609043697846001 9.892353361085357
Au 6.813271818640338 10.264487675873378 4.687007257674366
Au 9.708786541041931 6.73871474674019 2.9268618565516937
Au 6.857609033364378 2.5869306511426675 4.12926082586476
Au 5.14442007322057 7.084784756358162 10.279116982213193
Au 8.440494966738976 7.388968814816901 5.329898291921282
Au 4.476679221342946 6.753566042667966 7.532466658599302
Au 3.8585558473582893 4.7170128330959225 9.517613037605205
Au 7.299433227495369 5.429159862849261 2.2043770423469518
Au 7.267220093567936 8.213618952510853 2.7090415931123557
Au 6.34491723351852 1.4954662978875914 6.664463549160231
Au 5.532122251647032 7.75578114129873 5.177175440238392
Au 6.64250788656226 5.259356563732606 4.8231349916791375
Au 4.74717978410521 9.55528799427865 2.967132874356748
Au 5.446037931455127 2.3944371522068004 9.132295921625369
Au 5.472723021040632 4.204210791179352 7.089331590162461
Au 3.9515668469739236 9.413586382445404 8.413261619375156
Au 3.969698292145748 9.967953730259785 5.68040217136932
Au 2.4251804299030657 7.266732675085771 9.44564392693916
Au 4.809531778512741 6.828992773722021 2.4495832308859113
Au 4.887814251079737 4.103531249742917 2.881797278429892
Au 1.881763839692823 5.35000682812541 7.547710347320184
Au 2.0564701108451113 8.166488522586047 6.74465764606148
Au 3.7970130384777185 5.448174854092176 5.200510211246324
Au 4.201480209958803 2.4380604050638484 5.085399056957235
Au 2.648469162317838 8.081295901501084 3.9946595781407748
Au 3.078666627955604 2.7543462979173174 7.620420486636398
Au 2.3685853819703215 5.456531699189072 2.862444494045195
Au 0.9078823219126699 6.257343925196875 5.107103620006082
Au 1.6707777502026513 3.5975247354221582 5.3357642766019575
