41
Energy = -108.32679634 eV
Au 5.377019190523622 8.996795666470453 3.443490724740079
Au 9.882060284027737 7.378311650714632 3.4370701749163945
Au 10.770013357265022 9.983661934360713 4.086659803686653
Au 12.562872442452358 7.899278469336098 3.8947269080867817
Au 7.202625123407023 6.858319952025448 2.9964896514317854
Au 8.065451672912788 9.582644349138794 3.6784451914543728
Au 4.481855720218428 6.374774042157363 2.8369405945307022
Au 3.737412772675527 9.897250720009376 5.476130025250755
Au 8.90396973322844 4.92463891770206 4.170762556973293
Au 6.131697505014366 4.431565661567742 3.9661021592412746
Au 8.122031149324862 7.446417668755879 5.727667364749944
Au 11.586874289787259 5.561518998580365 4.90544432943994
Au 9.16489999753147 10.204450791976601 6.301679193501916
Au 3.445235638624134 4.7254122292267455 4.841578066640888
Au 10.94018645939131 8.009204185200238 6.1732603236234125
Au 5.375570096935103 7.033004092064326 5.434786568700795
Au 6.424429158396178 10.234071239790705 5.824862453827514
Au 2.693108341687751 7.463918129635324 4.751730800062019
Au 7.880483701214103 2.6522828293853196 5.33060599549975
Au 4.713011863792195 10.40578385005532 8.032065094404873
Au 10.479804313662754 3.272601954774782 5.791092866400201
Au 7.493118299535353 10.342598673467524 8.422717147442592
Au 7.214390323034213 4.964059726194577 6.781752402620077
Au 2.8976713625136186 8.331597941041432 7.543749387209199
Au 6.293850277592838 7.635950753260049 7.886833109307633
Au 9.969076794943156 5.569701339415786 7.252435667702558
Au 5.189177550243089 2.8005068602070655 5.98289565799891
Au 9.204120906993667 8.08768979638179 8.338536113012015
Au 4.555238544368995 5.43896744978675 7.52743408061804
Au 1.7726073660547088 5.880668089533202 6.84962283357501
Au 2.6713379278137386 3.300163410177348 7.168447412066359
Au 7.028346046356991 1.3375989235167587 7.538617704092923
Au 5.886800008747075 10.608396452108023 10.598320989467167
Au 8.138131195432681 5.730474010736471 9.371566613992922
Au 4.342082870981633 8.434980620821127 9.99187481929686
Au 7.241317696946125 8.177470045292182 10.414798504997016
Au 6.483733439454017 3.5222098877041024 9.122364646716361
Au 5.484936593899586 5.904667058002885 10.287846719451478
Au 2.672146415777546 6.347242718105443 9.46447647319277
Au 4.447593047303667 1.600388226731449 8.392094360441005
Au 3.6808588649299248 3.8410576435135626 9.750997909619517
