41
Energy = -108.88027002 eV
Au 7.980582159022512 4.341328323224973 9.33692562165036
Au 9.902946330928176 8.220984127356822 6.205388665220633
Au 2.849590468515086 8.870052467120857 5.747743152740229
Au 9.997367358125706 8.6152167125843 8.917730466178895
Au 6.701613456681195 3.2306494767471206 7.050145473111407
Au 6.5919886086055 11.444477293537654 8.831294235987555
Au 7.955210645024488 9.547247954211263 4.751235813670051
Au 2.595964661690057 6.186552672695649 6.2017030104653355
Au 4.002972341419007 3.801182258277921 6.737814026023725
Au 7.791910615352702 9.475662414454241 10.25705495150323
Au 7.895567356154078 5.878545799696539 1.5682817050436657
Au 3.3651625081972663 4.553956875334727 4.133648321434578
Au 10.160400794041372 5.938229756013208 8.422844283619547
Au 5.401723449301921 6.983710452785112 5.877520353668828
Au 5.179634813350444 9.67909080812923 4.587242481378077
Au 11.014972909934384 2.959141013917014 5.005483951958331
Au 5.032971471382113 9.405078950670813 9.929576246659998
Au 2.963523186137734 5.368953367053526 8.80870846001753
Au 3.749564827813764 7.285757575131093 3.6951528959345628
Au 5.201518291380308 3.8194387727154497 9.264044742585547
Au 6.480985317900964 7.834597273295752 3.057534701629495
Au 7.210980527276839 5.321009047855706 4.467800849181706
Au 10.36938109327742 5.604304878161208 5.635807787956875
Au 5.583355981505714 3.0357317830517916 4.517917084746488
Au 6.528375148142513 11.547103828027986 6.102014669784572
Au 6.30850265432318 5.414322286302743 11.212277683876637
Au 9.709458187954338 4.546223007271447 3.130149913607758
Au 4.339799533989598 10.412529863150716 7.405863261800268
Au 6.7960931472430826 8.786757963349618 7.509462454351423
Au 8.892855139448768 10.555335843939021 7.273066171137954
Au 9.152627575589577 7.279422813578221 3.6943178553897202
Au 5.320014037420739 5.340214198088521 2.3618317997669873
Au 3.0791929314514013 8.10244668651982 8.36960652315775
Au 7.251584502135126 3.230131832158773 2.2806762929612447
Au 9.457421667779286 3.4874699678284724 7.211624375611492
Au 7.826324125810397 6.186177543390651 6.9786081277718255
Au 8.595956358667395 6.8447854367633685 10.560466675081893
Au 8.292366290019283 2.6520004754630397 4.797782860586538
Au 3.940474161700311 6.980439337182417 10.821621712186253
Au 5.643590023770833 6.592352194339764 8.634085761811747
Au 6.246734751886526 8.002646078974958 12.009203989100358
