48
Energy = -127.80369058 eV
Au 2.905719691097161 7.62818749812667 3.931941163650504
Au 5.192194791946194 6.766022473287562 2.4868747590298774
Au 1.3138768275839476 8.228707550082174 6.056370465162928
Au 5.82786060289009 4.213414297248874 1.7277057587677846
Au 3.570530787924411 4.921380121210106 3.786696772350619
Au 2.3930592901653838 5.71564712924239 6.213456233394466
Au 1.9494106611418633 9.993449720317946 7.987906397057842
Au 3.579544562046585 9.804320575865956 5.634363451781636
Au 7.864663529563355 7.593424472225481 2.7961713878460754
Au 5.595289039900635 9.077017509569414 3.901432677345219
Au 4.907230422510719 2.543716828110619 3.7845726636561126
Au 4.231469985983451 3.650122122807895 6.231059549544178
Au 8.581954668939654 4.9953134881058565 2.3203381694590095
Au 4.4406705788954985 11.076965406830583 8.009979972053875
Au 7.673985667215522 7.5094247470452675 5.509672197399146
Au 6.015503769123164 11.121691812169184 5.708395956714472
Au 4.918178033215349 6.966063424784471 5.717767384490466
Au 2.2904720296091576 7.234078336044078 8.516596612444593
Au 8.1928039387998 9.96383209772778 4.162086519235923
Au 7.618126498008873 2.4863339514047293 3.1054957924298363
Au 6.931272200567924 12.100374029639937 8.181751240527182
Au 6.608058281987958 5.076530913242249 4.298900115279336
Au 8.728730714419196 11.667992803324413 6.191740178903057
Au 3.756408305064457 9.201557378015863 9.906566660220307
Au 10.097697303054105 6.409040319334158 4.132768913886855
Au 9.267431002269708 3.6814005988650784 4.915230889545199
Au 5.2533240404888355 7.346426071587091 8.427495219170062
Au 6.781576629891937 2.5853461767978865 5.818931650783098
Au 9.040979872261083 10.333380367321277 8.640402475955616
Au 3.641729367805922 4.8441805450344875 8.644256001155906
Au 6.423895251980757 9.780399264940314 9.605393652026727
Au 9.502091672502038 5.7620039293539485 6.887620967612005
Au 3.9940438067149495 6.6369940917684325 10.82380434417716
Au 9.981483158860982 9.230313413379937 6.156717282129248
Au 6.7122078352636825 5.303288969579664 7.083730218534255
Au 7.925181197909117 7.675813647168878 8.207594227383867
Au 11.887077358956223 7.284018859439319 6.1571237350345225
Au 5.847877526746009 3.063728143938043 8.457256392127803
Au 8.60843955530908 3.1750847936845625 7.7321403958125465
Au 11.74046590669806 4.580016582337059 5.677190526812403
Au 8.645334939434449 8.497537820009342 10.705269070690537
Au 6.862846051631221 6.389770335760719 10.814799232783736
Au 5.18438306731485 4.177465098312555 10.878304881434309
Au 10.710274963560527 8.070187042370998 8.593211505287295
Au 11.838327134948472 5.495561203443993 8.395034218562138
Au 10.512490103192917 3.4645760432296675 9.617173737688864
Au 7.865440351796736 3.7682822947398327 10.38571134145675
Au 9.585929715070307 5.974859259528242 10.131694767010774
