42
Energy = -111.19508046 eV
Au 9.689237108432188 6.597086902453988 4.224038117261976
Au 10.357338846103472 8.917007336399573 5.456260331395516
Au 11.310911887432159 6.459132514541014 6.49507322751122
Au 10.388018678408287 4.1094413817253415 5.238540347335288
Au 11.071990794292844 4.000517126109248 7.889683453315873
Au 8.829870235782796 9.062514448148582 3.167748128729094
Au 7.833220524937457 4.482684366339166 4.406362347836554
Au 10.733071735751624 8.639821547098641 8.104048453049218
Au 11.042871077654071 6.2500947073109945 9.44203058717644
Au 7.34164005074802 6.735074849853328 2.773565564017785
Au 6.824502125692708 7.406632779232323 5.5280011053974105
Au 8.908086108597384 4.178059656390232 9.516469017090381
Au 9.990866300734348 11.093113898166338 7.1716942555133665
Au 7.939908158173578 10.304128123384949 5.563530161987025
Au 6.855230778608432 8.945393015262761 1.1887642939004124
Au 8.380421851781717 3.164984237207189 6.921002301390918
Au 10.64586502341319 8.641560152389307 10.788493880976903
Au 7.728783072958413 8.275804225099439 8.15022671118225
Au 5.792867024003909 3.4612695096391266 5.992385905053279
Au 8.604568031022042 5.954372172495035 7.113101017449004
Au 5.2846116769679785 5.285975991058555 3.900789672308114
Au 8.634221585666918 6.795015816597515 10.61622957342179
Au 6.043804151194908 9.534715195019267 3.768775851698499
Au 4.693806157438658 7.583947880740055 2.293699614618432
Au 9.831835874132338 10.92783098025147 11.804268731613774
Au 2.6689137321350587 6.0745221863827465 3.368275446744807
Au 3.233349696355358 3.823609414039222 4.904316228431914
Au 6.274464277528309 3.6292329029523756 8.72417633413573
Au 7.367752961066264 11.011873270872576 8.188832609825834
Au 5.828139698916204 6.265257927441671 7.788333947368359
Au 6.850282620381317 4.772944933955045 11.207967683843206
Au 3.933779257856402 8.025016162759457 4.931145230327839
Au 5.369257218510012 9.806592324737858 6.493849179586589
Au 7.813933531432204 9.590610015253992 10.672444284731272
Au 3.727946424118049 4.312817247708774 7.605543048076543
Au 2.2173114790985116 6.164394020441562 6.10578420260276
Au 5.331017719910818 9.484217057346882 9.247339316757849
Au 3.485111459185232 8.125017424807405 7.636321415035752
Au 4.398753017793775 5.299059527637667 10.059214025096555
Au 6.029592799620886 7.427609615072307 10.919986926584048
Au 1.9273892839457665 6.071828095526686 8.811224142968952
Au 3.338089471709055 7.861852569643684 10.37309683614544
