47
Energy = -124.64425581 eV
Au 7.774669579978562 3.089287455201171 9.671678310140205
Au 9.434451585998662 3.7829849318407875 7.46823559704119
Au 7.646363640745623 4.977725458433658 11.770930737389186
Au 5.4418466400560535 3.4809298447460733 11.146728796103172
Au 4.7951752670575845 3.246989786166178 8.532079067000495
Au 6.9633502160313006 2.4214735124933013 7.073482536602032
Au 8.903059711079575 2.3215512945404697 5.132690882315511
Au 9.37725290526191 5.569815165958035 9.702192670653867
Au 4.518274346624273 3.380248127332558 5.813797137340796
Au 5.252575398782921 6.2639996411009 10.980525128845668
Au 11.33072310205285 5.507497208226135 6.3596216182724845
Au 6.2906268262138 1.822560289056574 4.440656668441243
Au 3.1260835856118137 4.763621027404577 10.167867253313213
Au 6.854785387619353 5.1851829919308345 8.205262050579863
Au 7.71733460900685 7.550692069125253 10.866007542771253
Au 10.2534924028867 4.422321524828369 4.062918986291111
Au 4.856449338569333 3.6446909003117236 3.068123977277752
Au 7.755035306710555 5.10059357244377 5.197081570382464
Au 3.153857939566077 5.263286748419343 7.431842222953087
Au 7.8071487439823475 3.4871045565169068 2.8004448003902556
Au 5.319619203658806 8.917252895560138 10.659130440409651
Au 8.945229672439778 6.726508916467423 7.18789896499119
Au 3.19433953719774 5.5163549163029835 4.5663000375398175
Au 9.786339244378345 8.36795498180742 9.27656097091935
Au 6.079959071274477 6.559903555197138 3.4543422801598993
Au 11.177297222002409 8.342044810957093 6.806613002922422
Au 8.684300258517192 6.12306791733027 2.478714212759578
Au 10.231027609414785 7.233503132778512 4.461408919281692
Au 7.327457797654085 8.103265369135688 5.4071201221933185
Au 3.202826279582979 7.39054635046397 9.231559781758282
Au 5.418307612579049 6.245989068390528 6.156218229236141
Au 3.6049470387763147 5.748277693438091 1.8694566353510502
Au 6.50344895202345 7.924988072497722 8.176969996250259
Au 6.371057102760901 5.150629666468737 1.1223009694176467
Au 8.900242320561828 9.921237331638723 7.088671408392348
Au 7.634111607658634 10.135970641854906 9.587758263913353
Au 5.987135628768133 9.605829847672473 2.803100370661757
Au 5.1500508970161265 11.504343602356677 9.699622866048081
Au 2.829319997325088 9.923289103376664 10.353981974259899
Au 8.61258034978508 8.850068972375274 3.0299329990681256
Au 3.101489446961218 7.787497045258052 6.241826865063514
Au 4.835728092550954 9.850058443089232 5.315697162621732
Au 5.251209376595505 7.746706182820303 0.9956005390975291
Au 3.970053642775304 9.762279915275883 7.895670288163195
Au 3.6941208836390276 8.102944324783696 3.470241831569689
Au 6.396300255785171 11.103266653679862 7.271425741869029
Au 7.52874176385475 10.776784481892644 4.783793816915477
