47
Energy = -125.36323956 eV
Au 9.779545597710364 3.3439448842742503 5.622663059605104
Au 11.084911308078441 5.406529597358921 7.043517950509163
Au 8.870086087991531 8.386827199058397 10.225269619809787
Au 11.108448722971303 7.689160706592878 8.588225154438865
Au 10.811347370878511 6.502493996967985 10.989977416736272
Au 10.70715451186965 5.691885927872429 4.355110750917541
Au 8.376175357100216 6.239156775095196 3.048446374080585
Au 10.317795906726797 8.188556873172056 3.1985941520729853
Au 10.064722642529055 3.208083389786145 8.375871572020047
Au 9.248462793187427 10.10550284770719 4.907968552729526
Au 9.169126324968474 9.474074979787762 7.6394590975413195
Au 9.520032496836398 3.988669993046613 11.024077224944621
Au 8.335886674559617 6.308886529883012 12.154206870690516
Au 8.413228714864342 5.7483169004712 6.101250473041105
Au 7.640900427769967 8.895438209439769 2.6833139820609806
Au 5.736200784885659 3.197728353094309 8.40643676621629
Au 5.6700967323749 6.7396945365384 3.331573060889747
Au 7.90927454434698 2.179814029494365 9.745242494323502
Au 7.083004057726838 10.910866255446125 6.541447118321244
Au 6.281731560122477 7.370694011594698 10.666605248370425
Au 6.81306141031446 9.860825701148123 9.167526139290027
Au 8.930115399684837 5.733484129628337 8.901795783209982
Au 10.864096490161256 8.052054114430387 5.915874050238384
Au 4.664099257286541 10.974056597869149 7.874979270067242
Au 6.773315541647265 4.616929498391746 10.55642925254113
Au 4.814385167798463 11.874816644949291 5.1430993114114285
Au 7.8967088537165075 1.8165344869239177 4.3731542870088065
Au 7.831224421219495 1.9082666630942782 7.070076142366915
Au 7.066172076545727 11.40635060963468 3.7764696047281845
Au 6.912499065829752 7.343608649418935 7.9193974980510005
Au 3.4448425139301464 4.097450337944997 7.2424072902758905
Au 4.681075527448417 8.340736328874375 6.346008695015549
Au 2.507459022990698 12.087980192150122 6.586885345164977
Au 4.282650175858878 8.441796849610359 9.142124427700349
Au 4.63656146967997 5.658943878358744 9.175073445420653
Au 5.080329160828643 9.406605907073429 3.6014058150758514
Au 5.6737608642175354 5.541268687566879 6.272529162535903
Au 5.433471183500521 2.536055364687788 5.684764055214061
Au 7.223602763734142 8.154258302105058 5.318622237988541
Au 6.78068587611759 4.2209575570491875 3.887716526862335
Au 2.7362459707878624 9.935990759047339 4.877690522096845
Au 2.6514347245913705 6.7435463048795725 7.483545521438173
Au 2.2301429710795357 9.461412619345927 7.587609256813656
Au 3.0434067155806144 7.304101150444813 4.292800730530743
Au 1.651415937969212 5.193138745830822 5.3808771587414945
Au 4.051969215680016 4.668775220470199 4.110905514665868
Au 2.6888348399973876 2.5354279380846143 5.1526752519221715
