41
Energy = -108.31099539 eV
Au 10.166354091776855 8.463479205674101 8.848079530500867
Au 8.695364058012956 9.558930893031622 6.770126694117233
Au 2.4248552129935144 7.977899809126365 6.808953023093865
Au 5.856703113388486 7.872506922433476 10.86888978347913
Au 3.699879565271377 3.6269092538690098 6.496263265309985
Au 10.429363926500603 4.690032123169928 5.865555872322598
Au 10.680496936492434 7.5416615133876945 6.256350380246298
Au 5.7106806469350095 8.26385003431227 3.09763670784988
Au 7.842586560654046 9.635557154574501 2.03937878861238
Au 6.045167342872851 10.267535000214963 7.210641801818995
Au 8.214750052610507 6.610245780857366 8.072114674231093
Au 3.3434588072538984 10.426710903460183 7.674327768084725
Au 3.627127929568491 4.025142219859751 3.799543142278793
Au 4.14368522725442 9.62226093089901 5.127862565470682
Au 8.135416291134527 6.668685326697153 5.354170525032948
Au 5.068620924973954 10.32661293914537 9.834833880152816
Au 1.6449813572670295 8.631140871467037 4.333238004202185
Au 6.603313234337818 4.780495644820288 6.603306310652461
Au 10.955586479274409 5.835172009160425 8.442293952535694
Au 6.126811497652657 2.995807918501692 4.4483400324382885
Au 3.5268081121339434 6.794755653942833 3.720581541789831
Au 4.8741811766478 3.820666257861883 9.01368515489003
Au 5.904637256567415 5.448549430988 3.22370589267071
Au 3.4969948758070544 8.102698023464363 9.340894633042879
Au 10.277920739071751 3.186567987447818 8.170824507297556
Au 1.9662824421037384 5.5543197322347355 5.574813862473763
Au 8.489572389690123 2.6998449631570915 6.129091156073879
Au 8.12325922525147 6.914953533062045 2.5093796598013336
Au 8.578537878916812 7.231890661303995 10.79022843248046
Au 7.604736504242804 3.1063294604567058 8.89354962092437
Au 6.953013748207398 10.137408956111667 4.66548274834487
Au 9.426534560169944 4.606267122962368 10.378695919862382
Au 5.515649815596956 7.325035268099111 5.787085243565347
Au 2.9164037937832235 5.637836805371144 8.223246869460041
Au 5.883888326967681 2.0449938461713453 7.021729566163854
Au 9.430309126736196 8.902643401272545 4.173598842965076
Au 7.6550198813105 9.4949648938947 9.353703957569174
Au 5.533738988103207 6.570219988669972 8.378623757352903
Au 6.693630910483852 5.193874584152363 10.541392668113518
Au 10.577299393089039 6.366447812960801 3.6787216625405814
Au 8.474226187915404 4.3569437507733575 3.7969061892082343
