48
Energy = -128.54205004 eV
Au 7.739425830984432 6.197276334941696 3.0658257349903124
Au 5.058693190959179 5.940262727423129 2.2657099554150872
Au 6.843999279675855 3.8180796354436524 2.055615868407352
Au 10.748132362509361 2.2283630983537615 4.249632059472651
Au 8.535342483676764 3.8387671698156596 4.401339813258566
Au 11.061102372855316 4.19991845567795 6.126689388992349
Au 3.6365560354507402 6.144441232452684 4.714953371992659
Au 8.529518968542872 8.617465528095734 4.0149769108137745
Au 3.754106945899658 8.231635369745817 2.967029846991231
Au 5.81692781378514 4.508278070138452 4.5287853044791895
Au 2.0835890438666667 8.42536199034041 5.088555422407412
Au 12.22717103295822 6.6680138349006395 6.028036381782263
Au 9.29859322409347 2.0480895948658433 6.485539945589076
Au 6.416058090862638 8.44554643199299 2.2107592072594198
Au 11.944442395945362 5.457658820771232 8.414132902309143
Au 4.641270258583626 10.616366665757115 2.0510628865735816
Au 4.576377506488867 4.808846235834126 6.96217483406944
Au 3.787249725277807 10.595969097327663 4.667715109894353
Au 10.544517934410424 8.842525083025668 5.831160637746346
Au 5.844645376588449 3.751096670180079 9.201185414212784
Au 7.910818818824965 1.9149553374307877 8.769557781906922
Au 10.276316587279313 3.3422431307938716 8.78660173491683
Au 2.869933114744015 6.926718149412184 7.21587504683255
Au 6.771944159556848 3.1975101775041614 6.65143168925887
Au 12.470922419335036 7.172433502010508 10.442164177932554
Au 9.915469525645 6.324818608654486 4.6692710916435
Au 4.099168713479983 5.871914924386778 9.457591439232274
Au 12.190165510117762 8.475593545231558 8.020587756314859
Au 3.2626927475214433 12.39386394592208 6.655126252439173
Au 8.216623164757802 3.7915377110909643 10.677397538118608
Au 6.617897159048333 10.60213664628707 3.9225987724828255
Au 10.656098138074709 5.16081783573242 10.834290392974621
Au 8.405579521058595 10.579504723056981 5.9623111682717544
Au 2.6775175075758835 9.835433328108998 7.325871412285967
Au 2.693024491823203 8.247454196939417 9.511791001446623
Au 10.0747460244326 10.315088662706263 8.097886726044106
Au 6.1950070801815045 5.603162426208276 11.213729601447513
Au 10.138642583118802 7.828752438424067 11.750966033860001
Au 8.59213308680185 5.730759550026946 12.527584841769128
Au 11.52499067990799 9.764855488490005 10.347809812262746
Au 5.891057698473992 11.632089399266897 6.310812098578871
Au 4.700808462164595 11.338164847543675 8.749737955328607
Au 8.851138483616948 10.062580445721936 10.631432555317515
Au 7.3967851233337125 8.096124876900262 11.923713765802722
Au 4.771868339724133 7.916613938996502 11.252685846117448
Au 7.468749262177698 11.154376959256235 8.510226482319098
Au 3.436783097079095 10.369051090373574 10.961760005475101
Au 6.171903757747179 10.303987197456562 10.824811153979644
