40
Energy = -105.96549158 eV
Au 8.040613918400753 2.6504437270378842 2.2771888144413137
Au 3.2799668704517053 6.685965761470654 5.614299511088825
Au 4.51872238537187 4.2189317771253 6.1659506436409774
Au 6.151301752672448 3.1746854402682247 4.185587844358452
Au 3.1934076495118067 8.595724632066286 7.574751402610001
Au 2.3062273495833705 11.111367905997072 6.978225594095639
Au 3.4453093759716023 7.72157159075632 3.02948720082517
Au 5.053314491356423 3.617403669447031 8.792591153049385
Au 3.904174787520291 6.0346984689335 8.223328906536006
Au 6.888478079929718 2.8436916560560497 6.841100099475596
Au 7.797206899514238 5.251058447801272 3.1168335186582543
Au 4.792479271170203 5.431273288159951 3.636602110702164
Au 4.758845749737139 9.420467573611896 4.727797706226097
Au 3.6077042308907483 10.802290281516099 9.380563405661078
Au 6.9492839497920675 5.7996062243176665 8.372602991082617
Au 4.555946620813774 8.228623528116183 9.979539335957417
Au 9.966275906320925 5.115602054791314 5.095728466231094
Au 7.713936295569588 3.191945273346355 9.441477468670001
Au 5.330125919803639 5.6911240620986225 10.655228389103133
Au 8.850846145289779 2.666880562366317 4.826374293487173
Au 9.587459224927816 3.4148230511486006 7.287616103141457
Au 8.021707638106164 5.320145254213828 11.150988424430295
Au 5.070003540692668 10.85584848646571 7.002892625608575
Au 6.367818308615456 7.6624369395578125 3.257145869644581
Au 6.131571072291307 8.220313029569956 7.148724245975351
Au 6.844625826631674 5.949241837342297 5.63541936893816
Au 8.819047989245743 7.26281722704438 7.069325637543893
Au 7.236642738215289 7.894719178531347 10.608701727879637
Au 7.402955715877287 9.743210636027092 4.801766803134338
Au 9.021800227454701 7.605325336599583 4.072638563758346
Au 6.356417908371319 10.27227975358948 9.475294175386814
Au 11.20228389196108 5.659759933904484 7.668363245134466
Au 10.249626763863995 4.270799897390533 9.796458302060094
Au 9.81789555510702 7.000485116834869 9.901867991949711
Au 7.790067920484563 11.001767870973827 7.180845194199161
Au 9.86522876614196 9.673462108917985 5.976945788192438
Au 11.389963694703475 7.40832927280121 5.5025673582850905
Au 8.992082952186163 9.506250216112303 9.090957511933734
Au 11.313925384872622 8.46326062711214 8.082765770865695
Au 2.0712633793170547 9.217924449318671 5.030012584778059
