43
Energy = -114.09948775 eV
Au 7.829183922040526 6.31230424456515 0.8002615193816373
Au 9.196175910418926 6.738814035485689 3.1189999804687703
Au 7.855498933482811 4.324057114613317 2.7288090834067575
Au 9.288527690124408 9.380643907118412 3.8829178438670833
Au 9.144202492562501 4.829088117201211 5.204559265599799
Au 10.060363492488943 7.394437499321198 5.660041550170758
Au 7.064771270976009 8.566639270724853 2.344964587960799
Au 7.566470163451317 2.5710897350771607 4.806592095913937
Au 5.720411008424367 6.1498160065356435 2.5852666462878977
Au 9.73891031010495 5.666199030295898 7.821140087962873
Au 8.90826459051188 11.963146746113413 4.569257190577188
Au 5.187857476258352 3.510868386535345 3.408305412681937
Au 5.13076863244075 1.299792860533059 5.106745184446492
Au 8.988922497806469 10.273637833381045 6.656894960735125
Au 8.615138471475525 3.1835004252857213 7.3283889631445795
Au 10.4827792484317 8.340423134407178 8.15529909581244
Au 6.730900954600943 10.242857851859503 4.718124250140812
Au 7.207616097552758 7.375648641247785 5.031319365485407
Au 5.996562057530271 4.916326123450726 5.608582679213309
Au 4.74086584833664 8.399075909254993 3.959341092304127
Au 7.160318706851895 0.7450896512088708 6.869438323225818
Au 7.583124347301362 8.075005508476425 7.643919107214528
Au 8.652609382390413 9.981425714776808 9.457880727507595
Au 3.548116622696401 5.781592405748875 4.160309292574124
Au 6.509559785657454 10.713153311408924 7.838223310664603
Au 6.713795856571981 5.494665568349566 8.124033294391028
Au 8.97195601837191 7.155118480909792 10.152699334796257
Au 3.3764664259620334 3.3476742751409447 5.616331906401707
Au 5.008457347436303 7.314715284167541 6.811255575593891
Au 4.344094660329062 10.055998697904215 6.132612183650479
Au 8.497510325571781 4.293160444449935 9.919621564539018
Au 5.1633396544230115 2.481818551536103 7.63995652297051
Au 2.5289102269695887 8.034428917944243 5.5342245742627245
Au 7.305964728884975 1.8464123331579037 9.362029674166761
Au 6.475887444486242 8.541555024439603 10.301658586799629
Au 4.087252551346498 11.82805286640421 8.19529151384347
Au 1.7192519948996834 5.425454236957171 6.202187340640983
Au 4.148789634580997 9.191025577352825 8.89413385381711
Au 5.469175793582749 3.8898965095677807 10.019100360275349
Au 3.4939889738508367 4.575475481304779 8.165923996989216
Au 6.760378171253063 5.958579622373507 11.279240478751857
Au 4.4989196723818745 6.60136852965246 9.90656373328399
Au 2.4417683163766415 7.143793844957902 8.191381599275132
