40
Energy = -105.5434415 eV
Au 5.451622142390461 11.290116171555686 9.573546185744998
Au 4.518529212937243 11.41347373573938 7.04282407476543
Au 7.2247575753711235 11.70420361581649 7.254337901825251
Au 3.8108308047621438 9.01758694326394 9.41202272197509
Au 8.245250938743865 10.306791903918674 9.37878669262739
Au 6.271553085140086 9.09767942674609 10.940196433693615
Au 6.1176845672826445 8.947077762429346 7.851878699787602
Au 5.987517732049053 9.828117294340663 5.178847241825759
Au 3.997642543127513 7.9871935962078995 4.116583217813756
Au 3.4166351071477674 8.97479216229834 6.638122782493022
Au 8.67100513206103 9.415577424896524 6.7507307340494815
Au 6.157667589572635 8.804504381228746 2.6498403861368995
Au 5.390863159894061 6.699044819218028 9.887465616085688
Au 8.122296083349697 7.521043131452462 9.446912263587903
Au 2.9451765508395926 6.516124523571931 8.522962231197566
Au 2.1539176478314594 6.687973545577306 5.789927266501997
Au 8.282148443962132 8.3591116893684 4.270248803359777
Au 4.812530452724326 6.497295360437161 1.9170704740352267
Au 7.637813591335391 6.703560269724212 6.749819900124499
Au 6.442460154293276 5.752896843949771 4.458714590278544
Au 4.923887236861232 6.605252865215032 6.620060199289526
Au 4.52184652184503 4.227361066698594 9.097314270841688
Au 7.386894558819367 4.87332103912427 9.362117076232522
Au 3.004364486520234 4.254470039688816 6.6363319729188115
Au 9.810943818354666 5.644443017470276 8.175873222765071
Au 3.503748970484101 5.1166159497686206 3.957523734275295
Au 10.25846769467516 7.305819690401022 5.99172543163754
Au 7.592811131713906 6.469957581755481 2.0508010988760224
Au 5.692944739667813 3.973992837096455 2.446255539740581
Au 8.523361755886189 4.0410258677053 3.2009964173105185
Au 6.252024409737204 4.176568522900176 6.70947514859664
Au 6.604253044329042 2.2867585672007658 8.932858591875075
Au 4.302321260671064 2.009926404461146 7.4267305626342
Au 4.601870881607888 2.7080945918774186 4.762903724746254
Au 9.967317597828266 6.326874873915558 3.4366740096131916
Au 10.19811333979411 4.567311423804686 5.589529021473359
Au 6.943607531713339 1.8485354340106086 3.542240564090036
Au 8.846098312327152 3.1200075603525956 7.55179813589584
Au 9.245154082250517 2.060798787952531 5.032437305500743
Au 6.7864089435437105 1.4292316697572058 6.221754235995134
