47
Energy = -125.25457311 eV
Au 10.829396422764887 5.728008910402409 7.011840108398806
Au 9.934007762062555 8.132725150566673 6.002380371232376
Au 9.929150804587927 5.741173121984981 4.419547433707449
Au 9.55020889048187 10.132575612153802 7.868062139366711
Au 9.716802284408798 9.463854394340474 10.500659843713525
Au 9.340078203401438 7.307070028755601 8.749847384173085
Au 10.327704941527236 3.3116711188374124 5.821344674453385
Au 9.213835527444575 3.9447048986769415 8.250030223548116
Au 7.898973223532857 5.066125031863339 10.372883863027127
Au 8.393215096134757 10.323537490515083 5.284085935127753
Au 7.938545899075712 6.13399384297091 6.520970617150349
Au 8.497469595660913 7.965616837953242 3.6307184686458958
Au 7.352747989496385 2.38047489942065 9.497511166595164
Au 7.503846551283443 11.926931530722142 7.3861329176246
Au 7.205494071433272 10.406697548120365 9.680484371303065
Au 6.63857611577226 1.0544667344136425 6.986337923590369
Au 8.524122136318272 5.616736621525906 2.094686746313921
Au 8.798138203820372 1.1412170200650447 5.358536210765458
Au 7.042198963402965 8.760605840103443 7.276652763611357
Au 7.521034897009544 7.823678461592238 10.829000818505545
Au 6.262078116989864 6.5156591153853 8.728900197895697
Au 8.593541953141433 3.3312207166896948 3.6404551197766066
Au 6.4900790849630035 9.75619407810116 3.350486870983011
Au 4.727928407613333 1.7395003591143092 8.794643454379516
Au 6.42056557677679 3.8738651697874844 7.3742009085026465
Au 6.34501778373133 1.8685620641952572 4.347506696689911
Au 6.166516148917375 6.975860881927618 2.321267909147089
Au 4.267596625146431 11.303804337822482 3.074468750540518
Au 6.187917575029946 4.744164094975383 4.826426285808103
Au 6.2197990534498855 4.059440653646678 2.212275628173448
Au 5.880728450706305 11.79923696302848 5.251329555015943
Au 5.020854402923353 8.739557248710781 9.830701671126985
Au 5.855676521437885 7.61934621766007 5.08527213194819
Au 5.1851347151817295 4.197198997725264 10.045367839280797
Au 5.0357592402744205 10.707555841172086 7.818216903654972
Au 4.4998198761340555 5.894162088766611 6.730326100850364
Au 4.119078966340173 2.1649438904603917 6.140869118439728
Au 3.556598067324764 6.363344781836244 9.485506877429387
Au 4.0396460583608835 3.0619493204842727 3.561625684033413
Au 3.9258124897465247 8.555500649322852 2.960847122499706
Au 3.8273114710575027 5.755583877912777 3.1651972563823745
Au 3.048388219913417 3.83126617519238 8.168555145377077
Au 3.8259384541348482 9.92355531112507 5.442129819969148
Au 3.3090415742221353 8.472974966978152 7.668511120060375
Au 2.5042157721923446 4.3988311765158 5.361507564754766
Au 2.66242026247393 7.355106580494444 5.124995686112926
Au 1.6842190939620565 6.127005106346089 7.401731502048209
