45
Energy = -119.45512197 eV
Au 5.430656444193854 10.762314172545247 11.334897138608898
Au 2.0283409108899018 7.885758112594379 5.602395880410162
Au 4.9779875862647724 11.140106306452248 8.700561614137163
Au 2.468138331392535 5.277523082463558 6.542842409652854
Au 4.567011494486925 11.862462033686137 6.1631409533843735
Au 2.975376917490762 9.803021163398043 7.265402130953081
Au 2.409419155357119 7.329890144869117 8.37461759197044
Au 3.4925931537937043 9.172902784678776 9.984541671170756
Au 7.250192508951355 9.568281637439222 9.44941812848844
Au 4.0847428923622395 9.637626380371229 4.613104768576837
Au 1.5120937619552208 5.721712746698292 3.9763007121383507
Au 3.4916551229086736 4.920290414963626 9.08839887650364
Au 5.669457301307963 8.067549864123764 11.306897665453995
Au 8.383008711485578 10.133923264225146 6.995593055619359
Au 3.8785077479729413 7.135056237682206 3.54866652274928
Au 3.9324971624244065 4.396630766233265 4.300502944113719
Au 6.414936130395415 8.395409881450611 3.4948903342172315
Au 5.625520376638355 5.368038734278686 10.85512220761032
Au 6.713745501088313 10.82026015436597 4.854052058515869
Au 5.786632244432818 9.044057916136964 6.857208777444728
Au 5.211550889995255 6.346631051494834 6.046108222818694
Au 5.264963489653777 7.107803937811558 8.68048768214988
Au 7.906762477671551 6.870445179839737 10.278165358488755
Au 8.992743870524068 9.4198184849737 4.326835134073468
Au 4.636570170779352 3.551842635209046 6.916237882324206
Au 7.824539628477065 7.352956560510369 5.778059913747998
Au 7.498949307613342 5.470793205412335 7.621520285384359
Au 6.216267056442259 5.6543489795242445 3.270672549393028
Au 9.61221376582807 8.366756856784813 8.689258647265003
Au 5.447857397918046 3.002455610888573 9.50398039349543
Au 7.990484793070974 4.047294387716615 9.976618001321935
Au 6.4240916447022665 3.35285042987938 4.848373573900433
Au 8.732834776601079 6.812220212844555 3.1194022448473278
Au 11.071497584028288 7.63009766768994 4.3842567575903
Au 10.981347435554332 9.421037832247713 6.4380462030550705
Au 10.028250607671396 5.892357210267056 6.565568677770213
Au 10.223889177536217 5.7286540330572695 9.361843044102427
Au 7.193274351914221 2.5729817577077023 7.416883054775725
Au 8.367030864323478 4.00387650442212 2.968783027185475
Au 9.772518079902195 3.2603362737881447 8.075306182177462
Au 12.067037410011181 7.320366603571411 7.949938639833529
Au 9.090665173170635 2.966006670272767 5.409233328502438
Au 10.707711105888384 4.902531751164449 4.005723697463624
Au 12.740067630723823 5.911751174083544 5.704856328235007
Au 11.69099943292507 3.366135301412738 6.149993326926638
