40
Energy = -105.14859138 eV
Au 11.129340363902397 5.941619166454906 8.557244354251536
Au 9.946026644886292 4.190393161689077 10.243878622204946
Au 10.720656453630104 6.182539085833512 5.9045479506678245
Au 9.48180564572412 3.9637709411234816 7.228752627651134
Au 9.950827953744938 7.835524845402811 10.256380196067642
Au 9.654806182624688 6.13056608138339 3.4197549538398286
Au 7.790279472687039 3.4284201667411276 11.863020710065603
Au 8.562613818772583 3.778711872092127 4.541818096482252
Au 10.331585055971166 8.476261397368473 7.526542821913886
Au 8.400309891778189 6.088457122221992 11.65345157659438
Au 9.427443359539605 8.495329869212997 4.88495982142883
Au 7.520840369144166 4.932722522242049 2.2031678140242583
Au 8.311781381185494 6.068504289491142 8.750722665474798
Au 8.80991173901186 10.116333567899334 9.317863177626752
Au 7.649384081007574 3.0723768953849877 9.160407658751156
Au 7.8322739347758725 6.073910194457725 5.903351893232727
Au 6.7478195142251405 3.3359785574815723 6.610023363338836
Au 8.801260895015009 10.6541871869989 6.532334087477762
Au 6.978346243921771 8.08835432817118 10.34936040447634
Au 5.995241306780991 5.297830458407494 10.539589459850198
Au 7.75661996681549 12.49607247829634 8.479306415969187
Au 6.010299564786184 10.350033831001488 9.054753559745068
Au 4.968729673353467 3.3422307766515558 8.7582207383129
Au 5.750335428437265 6.093024899726533 7.8148272251469635
Au 7.3116751626243 8.411453861939155 7.372622779423965
Au 5.776617979627297 4.513053754503138 4.317494016455219
Au 7.424488460370194 7.646538267132928 3.0386718347462987
Au 3.44718656846833 5.579317284072447 9.321636776801387
Au 6.104036826939528 11.574916168299254 6.519347495559332
Au 4.361775162826025 8.175389786630594 9.340497633459274
Au 3.9532371952662775 4.366288246077224 6.44101137236073
Au 5.518710605539273 7.511906110180423 5.382814352387407
Au 6.972691666333117 9.901531232980586 4.5745357320182585
Au 5.114150226998683 6.213377319180094 2.158891563221807
Au 3.0701340113518523 7.078055189651931 7.048955831254339
Au 4.220447987363865 9.651917888773385 6.966676139937143
Au 3.309210820508558 5.91837710206926 4.326591382819234
Au 4.996133863540306 8.943381054329887 2.9979532226615007
Au 2.868009507990082 8.649000786255883 4.8091858475152485
Au 2.718763985487006 7.656933034546128 2.1910492505564996
