43
Energy = -113.5273582 eV
Au 7.457827741217589 10.702983954734256 6.985460647851017
Au 5.705542559729154 10.43928139472763 4.746214327528409
Au 8.75297727316399 10.328493668404848 9.484205698434446
Au 6.130859387608149 11.166800123354546 9.502315377180617
Au 8.288602772991897 9.287479495683936 4.716189454280306
Au 4.957791427737273 11.870583372547939 7.160278686850009
Au 9.757957545687109 9.11586812400371 7.128887428005363
Au 3.251226652176232 10.09659913022226 6.048032115007252
Au 6.3122404519649 8.18719654373919 3.003607762793721
Au 5.897848655518707 8.003378191526018 5.935159176244787
Au 10.284490888902733 8.016672287951046 9.59575769166909
Au 7.93917921836495 8.128223624582976 11.026599416662014
Au 8.127475811784862 6.800539354378408 7.146227080729439
Au 3.7412056100019377 8.26154368904626 4.067470678981195
Au 9.001049153505633 7.713776021321053 2.4945223000947165
Au 5.263043591145823 8.886104870860201 11.007219493737558
Au 7.9956636257794385 6.063303522865866 4.406180949033831
Au 3.7752765159621795 9.750885115519445 8.719039982276655
Au 6.520622873250969 8.484053898324218 8.583553356414926
Au 10.355534133897965 7.37319563419698 5.08944836040416
Au 10.757885767005709 6.145889220797975 7.626624509174318
Au 2.891011121339958 7.505263889939607 6.741236931539016
Au 7.142513009033233 5.602120103644728 1.7898002116502716
Au 5.567326480916456 5.903677020145583 7.668672160472224
Au 8.863997777690658 5.647608418473748 9.770304842029308
Au 10.264780402111985 4.557181076957855 5.34870124957084
Au 5.363901284927369 5.416747771444399 4.894909752310011
Au 2.6599238941667562 5.74735022496281 4.531984880080292
Au 3.6545051700842315 7.092440572102907 9.365414387509672
Au 7.348201158056574 4.157888249620426 6.270386475549019
Au 8.251669937667284 3.4677069970213314 3.2349022839261474
Au 4.439866923888064 6.100785313240824 2.3700950273438695
Au 6.137211118364462 6.147004010174975 10.51237477225735
Au 6.934103373126497 3.7005960891957703 9.26499684999157
Au 9.110778481723603 2.0814258960836933 5.390471109418885
Au 2.9741038844719307 4.758779300523439 7.089916498397608
Au 4.882020289532723 2.6976338202940795 7.331467673030854
Au 5.550778542001652 3.5286178388589793 2.7773922965464792
Au 9.497400094079987 3.6254226534120013 7.95726082590544
Au 4.249066547090374 4.338766310595929 9.531457116878114
Au 3.7287796535729028 3.122549567752949 4.791972645075517
Au 6.277556156562828 1.874136584957389 4.897595162754124
Au 7.437566520260401 1.6048105298738475 7.4970558324763905
