45
Energy = -119.32827517 eV
Au 8.526265891941446 6.112807526222604 2.906816040130313
Au 9.935073889222041 7.3600107452740415 4.978836117422677
Au 10.352539177007682 4.580548863838266 4.586272041709288
Au 6.537506326280314 4.836048218146869 1.4368463693974116
Au 9.22033731856178 10.047824468667368 5.832670814682589
Au 7.945184618332519 3.3459934812089056 3.3075620412086617
Au 7.736196504007733 8.650737859490032 3.919499668373114
Au 6.203207703419094 7.471101020219096 2.0284738368509636
Au 6.513199533024419 10.660075924436978 5.405296792472487
Au 2.574454116846562 3.932602629473086 3.0284366949687276
Au 8.055081414737153 12.245520793843914 7.129008016239987
Au 11.666396601545511 5.967197944688425 6.572510046867075
Au 7.640031013481264 7.8681785247084415 6.6447318114582234
Au 7.756687908113801 5.2162033529107115 5.459518944372099
Au 5.209040012137987 3.1813739929109683 3.163387835196809
Au 8.922487815170111 2.4323966349989576 5.6738963998152325
Au 5.472590530938908 11.761139196158283 7.81149617392626
Au 10.774755527413513 8.415473490764217 7.4702583159802325
Au 2.024956491628647 5.972423531019278 4.795586742933101
Au 10.100925797769017 10.939042288119408 8.326509739846282
Au 4.508790661264449 5.9319853970538725 3.480859314584281
Au 5.107231033660582 8.985575626855006 7.202965673856751
Au 6.217866027132543 2.7331212624630004 5.69965733086143
Au 7.861056704455866 5.595482833371853 8.159355886289154
Au 7.595318604896408 10.9837570761499 9.60352209628727
Au 3.716911509698114 10.823343231008707 5.761446663281745
Au 10.188148934948483 3.899557661629649 7.566029152982872
Au 4.934131578527013 8.523985806209687 4.338053304174428
Au 3.7792311555988607 3.919270499240621 5.516848341203021
Au 5.370484832128761 6.212623301408674 6.3129225580016834
Au 9.397821986127845 8.79748553189507 9.868798964381979
Au 10.481542926935603 6.277887149392799 9.14228720991546
Au 7.595769931639734 2.7942017575382176 8.124726010734584
Au 6.238170100136537 7.547526309633232 9.158319075788427
Au 8.310597068697248 6.474830073439422 10.940398766576866
Au 2.8195229001024154 5.737546350948132 7.477470287789168
Au 5.025904890160071 9.988629794847398 9.885531708683061
Au 7.129987360399296 8.993291178748372 11.45284548626509
Au 2.684560514690562 8.222575400496682 6.08852523732034
Au 4.949434713536016 3.799157884383179 8.001069518233995
Au 9.174418357324319 3.967817749843608 10.156227488321342
Au 6.392788144281526 4.275478026138133 10.313035483055264
Au 3.9073752316994486 5.438968589970571 9.993298205822185
Au 5.665363609377308 6.640181055352653 11.736339744685946
Au 3.30499990013012 7.963366834010421 9.06619891618113
