44
Energy = -116.54827832 eV
Au 9.680156888816155 3.3419467470671123 6.234389232816459
Au 7.143662289936191 2.8627115022449683 7.448557976875777
Au 7.4008110896914285 3.337463650734084 4.746524362777503
Au 5.896841787614634 2.7960903086807427 2.572547895350004
Au 9.213837216125537 4.3703544708919715 8.699092960790177
Au 9.402508765739453 5.504708297485055 4.5106719704666185
Au 6.211615547556981 1.1326841414465179 9.416984087416774
Au 10.672448017547303 5.933990886308716 6.914049016956209
Au 7.550375410756052 5.068648019126104 2.5328607094026134
Au 5.392396980338069 4.834702957425188 0.7588676756092368
Au 4.930297231912971 3.5485814060483527 9.086190001707047
Au 7.40226064710833 3.270220068629754 10.448524215378823
Au 11.06129923240133 6.169760671433675 9.60235985987741
Au 4.968902411774585 3.946594560478574 6.000180930874574
Au 6.277970928092983 5.733371043167531 7.945316522178879
Au 8.198515089083324 7.684946269987394 3.260343168759249
Au 10.241140334555961 8.07061184148395 5.205652793335282
Au 4.645874765840503 5.113020683042412 3.438052894089683
Au 8.820617359190118 5.38222308151625 11.28063849079587
Au 5.859560290775145 7.26142657742924 1.8101068815578676
Au 6.706573201700497 6.179209895738745 5.223361857102419
Au 8.356224323530446 7.411637660656309 7.218093239747369
Au 4.409813455395338 7.8239408078658 4.138785651450704
Au 3.0256814369659244 5.917370092490487 5.495245184730714
Au 10.327018397023243 7.507074893115871 11.941399515345802
Au 2.734682107707778 4.167929870689657 7.632575665637058
Au 8.466417596594836 10.243135467159126 4.408994549374806
Au 5.804822086589663 8.249367718528362 6.75602661153392
Au 6.132221761943345 5.705655855983586 10.746946185876409
Au 9.432869743405503 10.087067796573058 7.0968912088778415
Au 6.1968584086417575 9.669034479192863 3.003014443879207
Au 9.86162753933839 8.583441444159064 9.325887302243796
Au 3.6500778717653377 5.998146199946527 9.572462110447288
Au 7.750123678784351 7.986220819991537 11.10369289525747
Au 2.9922314809841355 8.620840100244806 6.459813205820046
Au 1.6001088852739205 6.6416838206805835 7.734457495990359
Au 6.507740642671046 12.177868512789859 4.201635301962753
Au 5.2346362661919335 8.253770236683062 10.091045182393374
Au 7.313608378318902 9.644074028590804 8.920041132306952
Au 6.901925632123048 11.200052185366939 6.723855483492518
Au 4.6276961018107095 10.288711657836767 8.207355205279418
Au 2.6683662810702558 8.60649136400154 9.262032564739815
Au 4.675076938711897 10.390050728068633 5.254495274687524
Au 11.043482533847373 10.67414421426561 4.96095812005322
