44
Energy = -116.48605243 eV
Au 6.255809531656975 7.163020825580498 2.7280809211635457
Au 5.025573674486512 10.460516629720821 6.032466767740691
Au 11.017572527347692 2.4207344353380327 5.893307454027515
Au 6.66803476391637 7.516205224331609 5.390221203052138
Au 5.854331069266404 8.481412675411836 10.288752844760602
Au 5.277531746393425 5.100745535631781 6.569194249272358
Au 10.208595390729295 6.693942833364313 9.197109904771818
Au 4.00473406003014 6.170093878957059 4.144211229733485
Au 11.172015630562036 4.956244890143469 4.7852397451313085
Au 6.6252609012665395 7.070186339712002 8.10664401814974
Au 2.45442117892919 4.742213225688439 6.254295189931844
Au 8.696961493599806 8.746842442588928 3.7007774827333995
Au 3.608064247497137 8.915152667713912 3.9759865681137243
Au 8.046581301640714 6.817149759037148 10.938882452312832
Au 10.634548884764499 9.725876821761386 5.581304909155498
Au 6.635846622340087 10.438728467842452 8.27008753373812
Au 8.611384818756385 9.127889699472593 9.67795197191611
Au 11.16128792592194 7.537377408035707 4.033234315443917
Au 2.3623352667039064 9.908848807042212 6.20386556599358
Au 1.4938099467850148 8.4182198447838 8.269069724308455
Au 8.645729054352715 2.6593824550104985 7.366872704327026
Au 3.9986948841401504 9.691733242396278 8.58350279852144
Au 8.818697093549464 3.3983337713856803 4.524737753374006
Au 8.148562172457872 5.361805583440109 6.454895683294108
Au 8.383747340383161 4.597957818999471 9.33706018830935
Au 10.670874999103239 4.572932606308563 7.575038663921724
Au 11.708888937650434 6.987605385923745 6.677618298348527
Au 6.143100742096048 9.774198422373356 3.611475485912746
Au 4.176961258802592 7.5945990549435844 6.74412161840763
Au 6.474392413351389 4.639498442066611 3.697471393134099
Au 1.685037396438028 7.249463331422816 5.597352610503034
Au 3.9326391045397657 2.4801648734942208 7.016803683717501
Au 9.371351222194527 11.040131337707946 7.874474806212033
Au 1.3348454244891235 5.768715455981258 8.546482050680167
Au 6.135546037493244 3.174821982349347 8.57993053945815
Au 3.5499377750609007 4.305078555649237 9.036979454206636
Au 4.129149967777012 3.408173511167189 4.410776908969456
Au 8.970628747246188 7.985564558583524 6.8965297353569905
Au 11.2352521133635 9.091365546638421 8.357116575791814
Au 8.888989785204048 5.981724059569648 3.4566881481726406
Au 7.804286011979617 10.468012975966214 5.713304291242153
Au 6.435676599896868 2.591468614453124 5.749526784583187
Au 5.764485283175876 5.440540848535233 10.23683506514666
Au 3.5391265935790917 7.086627094395863 9.675022647877213
