45
Energy = -119.59895994 eV
Au 9.843429878719718 11.32777069858985 6.097983698114138
Au 7.808341144320909 11.313324818217518 4.030449749053513
Au 10.561368045153538 8.894268068336435 7.025453448906733
Au 9.809618157403555 9.239509466695768 4.2663443219376
Au 7.266598184530427 12.23523319348771 6.6447189350014115
Au 10.106670999571302 8.506748470651278 9.763002197244424
Au 8.64415216493239 10.54036034747836 8.5346261063741
Au 11.081032011132363 6.078837509360448 10.632498560697318
Au 10.894261846378607 6.326297190689963 7.898321309820755
Au 10.467425927088474 3.8667570653020955 8.873450784252737
Au 10.5434185408002 6.718403994530642 5.221587014030163
Au 7.85218952527935 9.25487194762589 2.2717114781216536
Au 7.53790716526868 9.421278830650381 6.149172309297038
Au 8.489193685468342 6.863546217824952 11.288470031964136
Au 5.774060895355015 10.52631883452181 8.207113734781265
Au 9.298473605892408 4.4821958298285045 6.355698905501531
Au 9.418881857108536 4.125054477040781 11.487479762171771
Au 9.192798493572985 6.897369427753176 2.87064536868594
Au 8.096376008174865 7.422978527998008 8.118250505966571
Au 5.240918373522382 11.232179868470896 5.12366699554113
Au 7.039444435299459 9.033604831684928 10.197219141300208
Au 7.046884336348502 4.8782359034616904 12.587552153033931
Au 3.118308769219197 7.086319132334313 4.984285475658555
Au 3.878905626558847 7.1440129047708725 2.40257797430174
Au 4.02335205666416 5.028111760880697 6.65814466930651
Au 5.183701225530356 5.309827872804735 4.120919914635689
Au 3.3634676860463446 9.676688151995746 3.846429364906095
Au 3.763295920112194 5.731326802636216 9.38314668115709
Au 2.5518914989417336 7.311404871871426 7.601398819376184
Au 4.749445147000758 4.092818442673274 11.28101862960063
Au 5.2669249513112355 3.451238933123717 8.567465640895403
Au 8.015634303815357 2.7234771295165814 8.09153885066642
Au 7.692235466029393 6.704016627558355 5.482572952614035
Au 6.597639435449999 6.715581058950541 2.0582604065665615
Au 5.8001294643951375 8.394027550761665 4.283853529502846
Au 5.676326793684374 6.808438611386748 11.138849122904444
Au 3.599031371261015 9.651908153024415 6.635819784484995
Au 6.505435559763479 3.902884274501484 6.11706001765649
Au 7.011005367316114 2.665893885107699 10.74460721627665
Au 7.901955492566914 4.61643221195148 3.809236577922235
Au 5.505428027607898 7.513749133090333 7.001847437916781
Au 5.209594929691659 9.444166154479674 1.7533962489243613
Au 4.342975524164322 8.512645195915155 9.362954387167333
Au 7.264124570022305 5.189424869788373 9.358204607744444
Au 9.50205178764932 1.6767670067997467 10.207301434139286
