49
Energy = -131.6897348 eV
Au 9.566444169971406 6.223064523258385 10.926015509970957
Au 10.528224867955933 2.915980054252049 7.798564711503671
Au 10.020140093182835 7.399183996879486 6.300151146465132
Au 9.205361910617244 3.612527533478827 10.120427980497245
Au 9.405719159680526 8.116201074750155 8.987734604333529
Au 7.289386078590154 4.805896118693589 11.699362266622998
Au 9.985931461104135 4.660674031884189 5.761815688128733
Au 9.227132807240768 9.953862728094743 7.0094873489616125
Au 7.024904351830098 7.281094702660289 10.58380197216958
Au 9.432969314385675 6.289508866835447 3.543398695730646
Au 8.395633326172073 1.4097997939966254 8.67352893836799
Au 10.352965048191606 5.584675478980467 8.365624465560787
Au 7.609885818839902 6.212217018335905 5.596212442342226
Au 6.955957543489692 9.477775551467431 9.063382594872081
Au 8.022177924706154 11.37585444286822 4.907999105848477
Au 6.461989036191352 3.0229164795483263 9.791671837671682
Au 8.466417959997344 2.2927134745602733 6.048593895056959
Au 7.010254047840356 11.690167001638146 7.590829730806647
Au 8.794615325336178 8.863182787790553 4.266211403537836
Au 4.983199178253181 5.359248462396844 10.244546917546261
Au 8.443569918010827 3.611041673514201 3.6356377521870633
Au 5.655229874771676 4.394848909089212 6.481858966432731
Au 6.861317206988497 13.694126953916852 5.732327433083829
Au 6.3169764326867 6.620036648960418 7.975450648700355
Au 6.736741254604663 8.910298483602311 6.223273998559615
Au 5.9997876181630145 1.7728456137539965 7.34913353100733
Au 4.59429181359979 10.08051439671525 7.63190330620182
Au 5.1377876218879 11.641727398858405 5.401601898688719
Au 6.1534056667987995 2.2190108243919004 4.567882923310222
Au 2.7175287116195697 5.808610634623811 8.765970324474575
Au 6.19259862979191 9.795583125986896 3.512940627864878
Au 7.268850294112388 7.660346133799114 2.2076302676034425
Au 4.430823791267895 7.995515153528455 9.457754840386562
Au 5.750866497656517 5.144679125491316 3.7445906814982006
Au 6.233402271887538 3.1330983745790335 1.882309728188176
Au 8.08107745665215 5.181850134093696 1.4029560818359041
Au 4.00408476996725 3.296057302728772 8.629971646727403
Au 4.800843909177413 6.930888446807013 5.597055638795161
Au 2.727810051358993 8.106447195322215 7.190034709423572
Au 3.6374430544940033 2.43154409729505 5.955922090298333
Au 3.6739439057396313 9.45388212374702 4.914804629039299
Au 1.6492439027428278 3.6614669080286126 7.339502540446233
Au 4.447252488230842 7.819065889668171 2.763159535580171
Au 5.437034790135406 5.882539498007648 1.0269802528159544
Au 3.859386744477968 2.9960253871386184 3.2661923116543
Au 1.9151377765574051 4.353210649284397 4.644580133280627
Au 0.9145771378174148 6.1568097874167735 6.56678976956047
Au 2.273155697509648 7.119854911516832 4.419178623656121
Au 3.061746027734746 5.426804343483078 2.3296585142084383
