45
Energy = -119.47523631 eV
Au 8.856913636304935 10.529509427310865 7.997122912098276
Au 9.961491716582357 6.038841684622597 8.93255749575569
Au 10.095782592037496 8.153474796124762 7.1614565221505995
Au 9.081634375676751 8.47303753060103 9.94602263197496
Au 6.248655132192104 10.613499915059043 6.676256594600563
Au 8.603185956659736 9.695696573455164 5.365416034838008
Au 10.638963917525706 5.6351196551915566 6.112306306134907
Au 9.570583535961728 5.658421250042169 3.4441769634448938
Au 6.67477518243157 10.27406333723018 9.60339406140068
Au 9.677950706875484 3.608778788358272 7.750568148624544
Au 8.227889715690953 5.994654563836607 11.03116281897135
Au 6.195163635387498 9.629978907287926 4.058641045727729
Au 7.143174899056852 5.47312042402382 8.020315945512785
Au 9.294728093239472 3.410175881774796 5.062737968342206
Au 7.238496574187215 8.208695444410717 7.754035196207702
Au 6.797363151457493 8.194623386542268 11.517784959489992
Au 4.175967514405869 9.749446438584263 8.34536696118917
Au 8.4728794705545 8.213463095848413 3.0644973637563373
Au 7.660301528986922 6.070823984303931 1.482454925143294
Au 4.517913498365413 9.638643144751965 11.152174820213032
Au 7.826662331205227 3.5053050819102127 9.781915897166275
Au 7.981604864710664 3.472304604844155 2.6037604345847374
Au 8.158340270605246 6.748965307832772 5.5673606207156245
Au 6.572953492632556 4.482199833413694 5.078615805953038
Au 7.217835422498277 2.5360517352008314 7.199249097111712
Au 7.1980481960677904 1.6436382438691437 4.590414396644009
Au 5.194628077778235 7.293308276013724 9.335283398243131
Au 5.698926147927155 4.9840786558696895 10.76880908641225
Au 6.123905418236898 3.957037918752785 0.6587881363799764
Au 2.595265290467756 7.9512488709117 10.205449325523091
Au 5.283391167038067 6.680645952870069 6.369956095743022
Au 4.988316949186807 3.437430307041931 8.516800878527194
Au 3.971875564233688 9.18604893048486 5.641248771833317
Au 4.9172321582803935 6.3929181823918295 1.179462845524856
Au 6.09339345427066 6.7704468707155145 3.7033419712516356
Au 3.9731412094546243 8.356490606318278 2.9524175005990454
Au 4.739501508984844 2.557300334230175 5.84029143639182
Au 5.241379662980625 2.6085325411680738 3.0118253147701437
Au 2.7801367464521807 7.403298714329564 7.529730820046923
Au 3.205508561043826 5.309369795664101 9.494877095828024
Au 2.8078575008193196 6.698235489808472 4.913285171425538
Au 3.1582692142841933 4.6523295742536925 6.789885509002366
Au 3.483822910670914 3.8361685541782222 1.3478976227316242
Au 2.383135307997044 6.141555447913603 2.271637256661651
Au 3.1287716233507 4.048337698488112 4.076452188329519
