41
Energy = -108.3680775 eV
Au 6.722315315210246 1.145855861394901 8.113656944007612
Au 8.140010046482358 2.6857508218573085 6.31234527900672
Au 5.288419564019488 2.2263914819498956 6.019408959905259
Au 6.696251607211272 3.6232982874652646 4.0996069843667815
Au 3.8143218288370706 3.3692328393940443 4.080769860803786
Au 9.118847221730867 4.8367058851492875 4.863820068663917
Au 7.843452668461516 3.40435425512483 9.167032240774075
Au 5.052315600007974 4.999651859602738 2.318357060909915
Au 9.788582967935854 4.6210741505015065 7.552719793375811
Au 7.757389710235339 5.635409688099382 2.5489616998570384
Au 4.940250380935966 3.249865004144928 8.537018560154243
Au 7.02088227077124 5.11430573378104 7.092984043452803
Au 6.0975449339415295 6.837016449918923 0.5898628403276337
Au 3.3569725613104286 4.415667589719925 6.574185638509262
Au 9.867117933888537 7.189416949398568 3.5840668403726132
Au 11.22053644434155 6.476446079245631 8.90693355164815
Au 10.545885314236015 7.007969682198818 6.2178122688519
Au 8.555963566920955 7.909748326093648 1.219911862651504
Au 5.499025073404806 6.131162363526072 5.0342318458418
Au 2.8758283146443695 6.02683879918643 4.311086327024373
Au 3.407008590696059 5.49596877170399 9.0781777773176
Au 3.8348907547197286 7.485191174845686 2.112861288296915
Au 8.630320456792676 6.090893392572652 9.889627405711181
Au 4.0645161048594405 6.460811510719772 11.549704530791844
Au 7.810092454474453 7.42707185374326 5.52925261724416
Au 8.658062258862538 9.687941267685787 3.344139158315152
Au 6.212576309586324 8.67169391568888 2.7128705834136313
Au 6.013188728216885 5.257171048298711 10.051571062205596
Au 6.954087259363485 6.819642367712863 12.066078580684762
Au 3.249852201356625 7.201782083486055 6.8479459437694
Au 9.394905313876793 9.696595483347206 5.942830014554089
Au 3.8248563826417357 8.231047894229624 9.38316447207591
Au 6.068840115239921 7.507266562375232 7.746583394107475
Au 9.401921816393513 8.402969210260911 8.371577179166891
Au 4.111313430998563 8.641977433184717 4.606115485013094
Au 6.540328332508049 9.994534708317724 5.145183049928353
Au 5.173538496610278 8.945702340089841 11.852363108489355
Au 7.333159816374583 10.15395187225388 7.773101960832134
Au 7.396849426074541 8.690332337794272 10.151105847686132
Au 5.363244897558755 10.54831587454281 9.667248424980986
Au 4.548315113045887 9.748925543216043 7.099988166559505
