43
Energy = -114.33362189 eV
Au 8.990321078958331 9.810991547556492 4.541172487982362
Au 6.186111270401385 10.088112705747934 4.927239160371751
Au 7.971295371324182 10.193959459244025 7.0212765058369975
Au 7.868127740799525 11.187379576689695 9.517855961529472
Au 7.335955162152154 8.376792317868999 2.9940075411842506
Au 9.981069843582594 8.114876223929341 6.520856459794224
Au 4.063858810519913 11.381318845158402 3.590207264299061
Au 9.674617609175789 7.118291743371184 3.960905101451638
Au 9.437523664753238 8.90558238948479 9.090016403118538
Au 8.682974841310985 9.654734663336889 11.6790128766322
Au 3.5135036890626963 9.1832273028189 5.1560249168339665
Au 4.673867860968575 9.018287936678902 2.574054722041134
Au 8.41076949018845 6.212477481662699 1.7178927963771258
Au 5.334456242614479 9.427408757252381 7.575596643211748
Au 5.421565060031134 7.2259626405416135 5.677012252722844
Au 9.924955489592609 6.201330774985693 8.635262848304912
Au 10.335228558686863 5.391507230181833 6.0122391534015485
Au 6.636870921221986 8.751943758383852 10.01557960528244
Au 5.616452969056447 6.736241828545191 1.5645893187957158
Au 8.732992515604465 7.008219524279898 11.094641645033864
Au 7.438114277453041 7.322278685003873 7.5731784363104335
Au 7.628652658260917 5.68777137916312 5.192678258968503
Au 6.341253383888797 5.977519442425474 10.131272794224687
Au 4.25415428000703 7.593652514258523 9.446625175130292
Au 6.600183341949168 4.448199311049356 0.5085908701368771
Au 2.5800565080686537 8.906732856274099 7.690913048879476
Au 9.670240886127129 3.521706324152362 7.919964357982545
Au 6.014338589636899 5.013283610095617 7.30112695693642
Au 3.7014844723113076 6.6195141996771305 3.5534419083422324
Au 8.91450584312968 3.121846060584504 5.3228092698218195
Au 8.661770244615623 4.395606095624333 10.391232766116824
Au 7.791657106242305 3.878962132425106 2.990749110359382
Au 2.472073517263083 6.675876498705593 5.9961478001630155
Au 5.015693843198615 4.249546539257206 2.753468522072427
Au 3.948560675305795 4.778291181981706 9.28345073549639
Au 1.8542677407024384 6.486643233453862 8.721336076478613
Au 8.481957321989123 1.7216405461631754 9.702595414243888
Au 3.6090379861383104 4.292521588107185 5.072443331413475
Au 6.083739525925464 3.0374237597347715 5.029061920698644
Au 7.2672204245337575 2.0268890048716095 7.277102194726946
Au 4.466933754003397 2.718157824226244 7.306435057067523
Au 2.089241708911629 4.166709974988279 7.310139162919945
Au 6.216227524565982 3.2644643342926214 9.553676971536936
