42
Energy = -111.23697751 eV
Au 11.849629089792154 9.395650371453712 9.150547141421244
Au 9.171740145606615 9.822010989123525 8.577155127200943
Au 4.321560926134334 9.632810870304695 8.90226849094454
Au 9.918167406176105 8.108754800357815 10.617891980532734
Au 11.120640435167669 8.997521675093992 6.515096367063105
Au 6.644388520851591 10.169623193442144 7.620822319750666
Au 4.530295078484127 7.20435212206917 10.384579874301203
Au 8.83141614666319 10.50913591138096 5.936516199719761
Au 7.259997178560506 7.7387091250651014 10.45134934802181
Au 4.321717959269156 9.609263036847128 6.167711702845955
Au 10.974335238389223 6.86999191571052 8.286699410563793
Au 2.8857656850515108 7.484927561702603 7.746247505476698
Au 6.386011617520903 10.686425890493865 4.725206074420898
Au 8.459801905527295 7.73371527605878 6.780322715350728
Au 9.074700763937091 5.59483466221651 9.963805320905902
Au 2.1832115871120936 8.534818347563075 10.19584701053023
Au 5.958583702441625 7.405618948761675 7.993040877469017
Au 6.367556566566218 5.129703030390976 9.979302082937318
Au 8.752752509390692 11.007240084102422 3.2437148628840724
Au 9.941049269662273 8.638625658094325 4.029931753109888
Au 9.760646132358653 4.5555149187274955 7.493159695885073
Au 7.377977516896444 8.698843534663578 2.8430707256928045
Au 4.029703227247939 5.056211214330359 8.577637300500866
Au 6.164449090166749 7.511202888546047 5.247707152449196
Au 10.572490161562497 6.387027756640618 5.496990632921721
Au 4.605950776427539 9.051830721821773 3.400596987631856
Au 8.146158608650252 3.148344003763757 9.235281325918294
Au 3.0640981305546466 7.382643024144483 5.012549865429586
Au 8.54446012141734 6.267054308428447 3.484886059712897
Au 5.4791334449582925 2.726310446482376 8.587887893629471
Au 7.042696176989901 5.296373988081428 6.651753517601917
Au 9.338557509379735 4.039204528459542 4.847842789796243
Au 2.3978639605425425 5.1735738468113635 6.360352557995237
Au 5.861155006027744 6.446644106894342 2.6333486294179966
Au 7.285328768511863 0.7138872814341316 8.350459679497744
Au 2.9411196896614684 2.6967302092907817 7.541388455691233
Au 3.1603298846466017 6.983602367111236 2.3142202475072957
Au 6.715031997249302 4.201761808122918 4.023054850053146
Au 7.617481232864791 2.616854191443535 6.437681727894571
Au 3.9513395633227724 4.766180961969632 3.717951206153598
Au 4.9392069768088405 3.2225080619438384 5.807970002130921
Au 2.2249563918596733 2.957418461065663 4.83960863144804
