46
Energy = -122.06340935 eV
Au 7.446110615919761 1.6723006892918932 5.600363364259333
Au 9.883139550672565 1.916803973752583 6.814837758600819
Au 7.585943559625055 2.0677667965157407 8.335267573187457
Au 7.249288649947107 4.314830546453786 9.985050221086178
Au 5.199530792985614 2.558845252103537 9.473250948127724
Au 9.647799366642976 2.8240213607147298 4.181154358983785
Au 9.597021878875946 4.02744489528566 8.574021716433242
Au 5.024755016214024 2.7390962632300124 5.099719106677229
Au 7.739456481448549 4.831186270550337 5.376344288374614
Au 7.081416454543153 3.0830318352912305 3.2331301463894326
Au 10.631431043002038 4.59060897008521 6.059639369840328
Au 5.886885462446248 4.332249431602193 7.283815345331429
Au 4.643399785912493 5.419498165242887 10.409207720302765
Au 6.974044283572252 6.9591607613176825 10.446160071994564
Au 2.7110782371633944 3.5198260638246386 10.020068850108728
Au 3.4428610313453962 3.00534269691217 7.3563250090392325
Au 10.744634610270044 6.469408545491702 8.08820256787874
Au 4.671129184502693 4.40133537125231 2.900165534377107
Au 9.716308866204454 5.507601099456683 3.5775695245610932
Au 7.920740336736808 6.22283540990719 7.787150914099022
Au 3.457460118068012 4.976416856515132 5.4432909584160685
Au 10.61427024227869 7.342901209415051 5.474338530282887
Au 7.108208669655751 5.876370191329708 2.7272412685647276
Au 6.008410085156902 6.963316685581689 5.401017711985044
Au 4.945776997225009 6.4933061953154105 1.1015687150483822
Au 2.747864417808241 5.6161551766400075 8.144219340851688
Au 3.7694813258262294 6.967739375721961 3.5505449159882994
Au 8.693245252525776 8.058343502536134 3.565716105419351
Au 9.528092815765996 9.952192206813022 5.591429829508331
Au 11.033720564902286 9.160965311082855 7.671312429906418
Au 4.501741496952523 8.215981983598853 10.674818283270085
Au 5.226693537429176 7.066735108501134 8.076510067990686
Au 6.723238422456776 9.664485708275812 9.808427535245537
Au 2.7425956406490037 7.5403677166808265 6.057811460791531
Au 9.056207215826774 8.292469086952266 9.338438107172475
Au 6.044453513851619 8.456951466918692 2.6998561327073305
Au 7.117084243447821 8.893527945668978 7.027693229918341
Au 9.145405676555157 10.70951757010501 3.029794638309273
Au 4.407655279082993 9.34586951012094 4.835480492063567
Au 8.819204103855178 10.866416078463349 8.160281121768014
Au 2.6992596603823076 8.30142915842701 8.659518661180801
Au 6.951417617557637 10.332471013683802 4.538592622123673
Au 4.195555265060589 10.596452300117233 9.134396391811544
Au 6.490129270361015 12.201241536879069 8.853155377363993
Au 2.684404624352749 10.303135492265975 6.760604251975246
Au 5.374969602230826 11.115673743715092 6.658786776001376
