41
Energy = -108.81124903 eV
Au 11.070637917809691 4.76832907802381 7.376948883669923
Au 9.531484912838478 5.400209366031539 9.685570605730597
Au 10.89274318743587 7.450858272617002 8.177143231632812
Au 9.642136473261688 8.058981493273825 10.460574691271137
Au 7.311054852865227 6.782730099619414 11.031007644069636
Au 10.134833211088 2.5917899855257556 5.827376505577915
Au 8.813955315410803 3.3112859315667666 8.07117965406802
Au 6.977834678386229 4.276382988923123 9.895176488244974
Au 12.124134208849014 6.903130110677444 5.857440858106008
Au 11.599066684894945 4.544375803953733 4.638111846129331
Au 7.361739641837577 2.8328208623028686 5.609569774564212
Au 7.401367313327087 9.601745735805757 10.721932267894084
Au 4.827858413016851 5.62372583071009 10.976361893950628
Au 9.87689424300547 8.696509283643302 5.867326758808138
Au 6.22621561298173 2.319653158331401 8.045434342181139
Au 8.00576993993207 7.093300721917673 8.012969029219413
Au 8.915597114511545 9.719723059865416 8.284671982176382
Au 4.239748293664762 4.005828456615038 8.838707448297717
Au 8.971020969313917 4.219321042699368 3.874452395327613
Au 5.0718783869732915 8.234979296069127 10.127231707990308
Au 3.1204338060187577 6.603251062719416 9.024741185501965
Au 10.205095028420383 6.838644749418954 3.8376636854919317
Au 7.735657903594301 6.6025160198478225 5.313992747381734
Au 6.35223748595904 5.138791839905612 7.1673744020321335
Au 4.523374889831244 3.3923154415431425 5.986610122981523
Au 6.150006182169394 10.157540143305505 8.380669281482431
Au 2.3791630074408148 4.861534681352819 7.022476233874372
Au 6.085314920232408 4.617155637940339 3.9426370562680946
Au 3.479086981472082 9.17819636974099 8.12304814297582
Au 7.8482292406656216 6.246536191373935 2.453551408235422
Au 7.496101363651004 10.16378174567243 5.927035475702301
Au 5.584276583363553 7.819364980543774 6.676284708648756
Au 1.7721210461370207 7.481460922965081 6.731737067759189
Au 8.160811293826196 8.810297788927747 3.5986004073705136
Au 5.580281692606381 7.404983662555728 3.4143359118074903
Au 3.8369662598380287 5.902493568288827 4.9806375232673625
Au 4.720383345800872 10.686863321568621 6.14853169266961
Au 1.8270535729163078 10.150367916625846 6.107287307255637
Au 5.826039532702466 10.209502537127706 3.64119418722537
Au 3.4523085127241027 8.537552347460759 4.59986576342041
Au 3.2607338226100864 11.191502057397194 3.895890992714029
