40
Energy = -105.53839235 eV
Au 10.679873034976074 4.510343781158033 5.297275339494607
Au 10.306665251213838 4.364766800325194 8.009008245568651
Au 8.95020853954956 4.615020890693369 10.35003803432025
Au 9.041450280208513 2.5094604580867834 6.2022692335665175
Au 11.135721893437653 6.807806688610743 6.667487027578888
Au 10.217276076861491 5.781840982045913 2.946838934707735
Au 7.542873691992241 3.339193144483092 8.346294905472613
Au 9.659983535469548 7.004910335091442 9.044103346392726
Au 6.166386876844763 4.564028643740064 10.402290691269174
Au 7.616820338468147 6.980089359934744 10.919143247796987
Au 8.353923374556617 5.769426011878143 6.585646430815408
Au 6.384674609327632 3.1334734643373388 5.815944760180604
Au 8.283185208895226 3.9801959256949573 3.9604615653164856
Au 5.269905517658758 6.468947731295491 12.149322618255892
Au 9.804839890126615 9.108609505147758 7.22993874497177
Au 9.624648036624318 7.925356134399885 4.50313844637255
Au 6.34168600581637 6.644791159102099 8.302335768319926
Au 4.89224610062793 4.03352470490044 7.9789560026241375
Au 7.780245308963241 9.09213850581634 9.204948868836135
Au 3.746500649270736 5.943190427064194 9.802978129414484
Au 2.9622387233472187 7.7675610381503395 11.723220335942036
Au 7.5460924085736965 6.514799375571823 3.1726855497343576
Au 5.778355011452384 6.011049791625089 5.6401128906921105
Au 7.255047282307052 8.318888123249174 6.21642170468606
Au 8.99644329711589 10.48104627236381 4.920458189102051
Au 5.686953231751414 4.3990978630992315 3.2477914796042278
Au 2.5701970936096292 5.371021244345216 7.425807345656054
Au 3.525707536343072 2.730066986310304 2.88483499482856
Au 3.732371726397342 3.9076335299048175 5.387607679992303
Au 7.968066601079494 11.227423751749724 7.529701360185389
Au 5.475551379558698 9.947656782143193 7.822793211267169
Au 5.116779653086591 8.50375991942655 10.135785645604672
Au 6.913528911458905 9.185533607633047 3.538403055320006
Au 3.6561932282760803 7.912652936835342 7.706978731076039
Au 8.205304550527995 13.003910265918368 5.3829695001256015
Au 2.994395279624662 6.868347390929772 5.1841885538440495
Au 4.9002002560329165 7.363330979692375 3.1263781366486025
Au 4.498653056037982 9.135607034495958 5.26801200292358
Au 3.077091242759281 5.358102933606828 2.9298555907107553
Au 6.185018806036382 11.199464626381598 5.366648232865869
