46
Energy = -122.34181482 eV
Au 11.608485611439274 4.403604779599984 6.719239416134743
Au 11.292302486755235 6.642321993551808 5.252764625107471
Au 10.516131035432476 9.049855062248207 6.639933026437242
Au 9.757556374323261 11.107149843995321 4.927093019664685
Au 10.896414065918503 8.894405342925683 3.841572550838275
Au 9.74451822830144 4.037954561366349 8.794118990988649
Au 10.294302448060616 6.6015198485203275 7.889700376266428
Au 9.863053265690978 2.315215576154624 6.540380036243101
Au 9.625790703599955 4.372473693796624 4.698005652895877
Au 9.335354695766238 6.628453900746783 3.119333496415323
Au 8.935787970278831 11.169774850223211 7.53314397047587
Au 8.616539285765356 8.698222833065605 8.73439605403538
Au 8.140157779945302 6.181920450810966 9.686271376952863
Au 8.399812579050035 7.406314837598607 5.6147910157529735
Au 5.280530333752227 2.4106042193934076 9.79904253476622
Au 7.047413436168285 10.632707182925495 5.5515568139138285
Au 8.228683171539346 9.298649376515897 3.3530109389246077
Au 7.79880038111907 5.07563743386193 6.988252055163835
Au 6.677915278214406 7.1927452543580115 2.312302345204119
Au 7.372733467925432 2.7118516231070737 5.384004552811648
Au 7.572159210401654 2.2926906990044182 8.102948090048388
Au 6.30537356131518 7.585322542169558 7.39172917097933
Au 7.640870030731582 3.606887417325984 10.516971804428705
Au 5.495996802082617 9.323124032571199 3.652668249937193
Au 5.723896026644519 6.754590948534691 4.874695397451449
Au 6.01854606585176 7.930330011393011 10.05625776122014
Au 6.409273380591171 10.330473871430657 8.263774631149534
Au 7.192766965337557 4.667982007157692 3.4212919765036918
Au 5.435669693441674 5.2015531845219645 10.089710181144786
Au 5.031439118549212 2.2661658787264147 7.0324873710664875
Au 5.048230251473838 5.115837350609635 7.045062372793943
Au 4.5075967765749 9.70677839968662 6.191590498073461
Au 3.3642656275624914 6.63912577835511 9.044622181378937
Au 4.608118234566578 5.310765395386881 2.6086009598511337
Au 4.90493975601312 3.2299295425067753 4.438052334030574
Au 3.2021291277075448 3.807063233683898 8.750425263352867
Au 3.9417979244816594 9.29824053848385 8.84822814339301
Au 3.1430110208296647 5.645354408169747 5.127881795425059
Au 2.425185080964238 3.593478373646936 3.2722784971603893
Au 1.4800171261106785 5.4762556754098695 7.399309716734906
Au 3.035268689705288 8.340161356455651 4.276922979637529
Au 2.5677546933006994 3.0005968877674665 6.106193921241811
Au 2.269901136614667 8.189793747823458 7.003990630898638
Au 1.9868605691340977 6.307923372511631 2.6642502848631073
Au 0.38170929025847106 4.280079601063063 5.095933528613304
Au 0.6569369204275232 7.019853900660999 5.126597132003483
