49
Energy = -131.47055108 eV
Au 3.881781453180072 10.517023547063289 5.078222315751388
Au 3.046608100230324 8.041988371684527 5.921199410962118
Au 4.156849904719764 9.971955382671814 7.749615061172933
Au 3.357670757012321 7.385007906943718 8.839330250064611
Au 2.2622492788092514 5.643322230104665 6.970799096683373
Au 2.87969190993028 5.759180455915697 4.232175731272321
Au 5.529330486838813 6.616989891581343 4.318909229140125
Au 5.657962029966162 10.553361045276887 3.0780647201569216
Au 3.6724095576950324 8.47960280205869 3.1816416694368255
Au 6.510343726113806 11.147162560256705 5.861746450667256
Au 3.1330296454850832 8.219306193467103 11.488176744564825
Au 5.945531084091074 8.488307139670539 6.323815781321775
Au 5.247858813300404 9.173747749093309 10.07404981719198
Au 3.7312628713356997 4.3977000339867685 8.956496236362362
Au 7.714526424360546 10.3304944756576 1.2927673937820279
Au 5.142749766663039 5.915566786897104 7.113910388900916
Au 5.153398983176356 3.948329708620892 3.416552682961177
Au 4.506910653622278 5.859537743080433 11.10708333272701
Au 7.006207639180707 7.117449264307817 8.752307846379901
Au 5.733223327269116 7.934273413292191 12.522451031033876
Au 5.9096033840549 8.237658118876297 1.4547219665343742
Au 4.272445423937005 6.07570393476753 1.8374785548691712
Au 3.8655201529396317 3.665026364437607 5.954657894374587
Au 8.390773043599062 11.127750396706041 3.8286035083982064
Au 7.057518207771576 5.66153351249728 2.0826121214870525
Au 7.224154591657903 10.042756923441313 8.34014441185029
Au 5.321128323374247 2.402794087180938 8.0071180866449
Au 6.043846749496303 2.1434525678526737 5.247816555819321
Au 7.868406139049928 8.69075822936897 10.840375984346434
Au 7.284328621044423 5.887191151421151 11.69533863041854
Au 6.046054997825654 3.6989306523981718 10.447952486772527
Au 7.427068367954586 4.506937306724548 8.02449601386163
Au 8.727144012616426 7.806130381317029 1.54526853264966
Au 7.534912282295131 8.451483043754518 4.068935832728153
Au 7.7507034411159905 6.346730913229888 6.026172693355581
Au 7.865113164666257 3.9781115499015947 4.144600426639299
Au 10.231835924354918 8.983110881146342 3.728333412547932
Au 9.099053487918896 9.95692397176531 6.259370901240526
Au 6.938130468368292 0.33469702081560826 7.15992789163101
Au 9.58282112737953 8.509878110756663 8.581475864625258
Au 9.790503442820857 6.723950677883234 10.810326680415086
Au 8.920071728059959 4.117692943834905 10.473497601036176
Au 7.871566308085948 1.9373182540214688 9.187443995111959
Au 9.480057580750286 6.228523251829044 3.6665920518941406
Au 10.006719996652093 4.6570600443961085 5.873286977294354
Au 8.585152855797515 2.3656912818161837 6.316882570325379
Au 10.409339555359832 7.496430828514552 6.06451593301901
Au 10.325049333618596 5.861009617827741 8.30884694766649
Au 10.332428574115768 3.1234535977785733 8.295734732233761
