41
Energy = -107.46696106 eV
Au 12.646756773663325 6.492317208070426 4.672420604777266
Au 11.301322888193553 7.830895018631996 6.611882477069556
Au 10.282027043448073 6.548730005895593 8.8762512406171
Au 10.518394533012462 3.8458743643641564 8.98386733208508
Au 11.710296582089633 5.122652824931135 6.866797754169163
Au 10.028597772530281 5.937497066804821 4.515865722332237
Au 8.079833924733718 7.223188926690887 3.0518227502049515
Au 10.111149129926705 10.038447219371402 5.661883973272031
Au 7.5788949682068045 10.530813621829008 6.655812009964624
Au 8.223219717416363 7.712365961781363 5.857168501544016
Au 9.074919260698662 4.350572094194552 6.664834791506738
Au 8.05898256691298 9.90682882382782 3.9064066032062676
Au 8.901610101047313 5.06317289821466 10.888182588357061
Au 7.369100803199667 6.330193149001803 8.219788658525381
Au 8.532554262725213 7.869051829933577 10.530631319974427
Au 7.38377765595742 5.081832232778736 4.681317255565817
Au 9.34274469990485 9.034304923359684 8.174370870314322
Au 7.756522398648937 3.426796346215208 8.971212789223141
Au 5.604922077986402 7.7629333247787855 6.558208210955729
Au 5.388728861957485 6.638788526852536 3.5992464895604726
Au 6.099955158391925 8.907080866134976 2.2183078803913356
Au 4.613444835307424 7.152834669572133 9.287104395760466
Au 7.296907582067902 4.013035081751593 12.917198291876446
Au 7.715358377194764 6.702984499571662 12.90626877739834
Au 5.754275679145228 11.424359852613646 4.7728917759587715
Au 3.0315979441800227 7.034653830932774 5.11894190435279
Au 5.505595995133687 1.703855161452147 8.500214051699935
Au 6.646951533955556 9.291617133901669 8.976772914823732
Au 6.760221398012363 11.634841843707363 2.222939498700702
Au 4.8332928331794065 5.024882986118781 5.7523730263124975
Au 3.0574114658302984 8.564447411377918 7.488437163232194
Au 5.9624802187888895 2.7447662727327824 10.94927635911266
Au 6.60730529853448 3.0913457723153694 6.428525072998639
Au 2.8756107693440067 5.7792343628317235 7.59376457629362
Au 4.925167439083941 10.538202628073348 7.2316495481375025
Au 5.9388487399637535 8.272182222927416 11.432805443230146
Au 3.3804484919256783 8.286873447339481 2.7019069148866723
Au 5.999800542903379 5.516206736135583 10.970244917330575
Au 3.467297417187758 9.807632646329335 5.024321309265836
Au 4.142829986040278 10.884417432267588 2.519602050341619
Au 5.036377993637726 4.422824496452887 8.584017906738133
