49
Energy = -131.67874495 eV
Au 11.77290070446922 3.287632689479185 8.555195439490202
Au 9.053574857201925 2.727371924387402 8.045435786068111
Au 10.016007593111665 4.163528905410018 10.432100048879555
Au 10.936005861815365 3.438994399832703 5.959282117601572
Au 7.3306772902848385 4.024678051164863 9.854232438352785
Au 6.447533832850743 3.386682750724618 7.254048964083342
Au 12.532372104658371 5.560428639864956 7.197711560852518
Au 8.343521931219835 2.594400675546866 5.348110769134434
Au 11.433695733506408 6.610800262829917 9.885081895904607
Au 4.6928703410088355 4.498959775009144 9.099671488569676
Au 9.8346167892989 5.497789857111954 7.955264257691669
Au 8.766120682539867 6.588828014448616 10.841865602979922
Au 11.027391040122014 4.764434726016719 3.5676769921721183
Au 5.999877847264433 6.214293827117744 11.061904474524841
Au 7.299234061345064 6.431935791171208 8.39251279299584
Au 11.601824513728625 7.016136708234429 5.053831455394798
Au 4.017548228848356 4.438881409594753 6.415930366228515
Au 3.18202658694564 6.120300901464376 10.828881233480018
Au 8.368722852441229 4.254228022425753 2.9682524882619923
Au 6.051477266259006 3.9626090157041327 4.509253094090422
Au 11.78046173747672 8.164259068989823 7.578404529887523
Au 2.274336519119307 5.824384606767635 8.244291936243163
Au 8.825038961609936 5.357253356503466 5.445505271920417
Au 9.73316791115641 8.830900073254638 9.46616746688745
Au 2.209255476890489 8.440644084494389 9.456583070030069
Au 6.645942137496631 6.429752149753272 3.004753577590963
Au 4.71431744061691 7.379245383774647 8.733017455992732
Au 10.220661387630697 10.35844296672201 7.187049969816037
Au 4.404405544568984 8.60949609497379 11.251687195750229
Au 7.776415824690496 10.725468023484053 8.516848154796325
Au 9.014752046357112 7.827291304771049 6.624356171360938
Au 7.121714082571042 8.80447716059821 10.45933636852851
Au 9.40845839775706 6.991680136601728 3.165278589632841
Au 6.3033852729511635 6.393033573073347 5.848797894263076
Au 5.101828653884014 10.413263222154141 9.327215189742992
Au 6.383162432797857 8.845652505546585 7.0809907193557695
Au 1.7635790473358517 5.784964805415013 5.5737277131254155
Au 4.04840339509012 5.878124049521545 3.9527881748511295
Au 3.977511821940514 7.802542870781856 6.151840181229476
Au 10.116077218133817 9.302225651119063 4.573148304497057
Au 2.8988035816721407 10.446437158820945 7.709893293796666
Au 7.938853292967381 10.771253270812352 5.659623895997257
Au 7.580247199903876 9.03814744143923 3.428219733715109
Au 5.34493199702155 11.403589488025577 6.750454499356439
Au 4.822971998626191 8.515919306243008 3.335112002047703
Au 1.3454184693551412 8.282068722204516 6.816656200032068
Au 2.1518731365345833 8.055198089985769 4.0453675669088565
Au 5.74546199709615 10.997551231127288 4.018683274758427
Au 3.280790870166906 10.384045827840184 5.008186303466057
