48
Energy = -128.19667233 eV
Au 12.746242144170962 5.012224713438508 9.272698980438278
Au 11.772129768993944 5.352677919033601 6.793692762091293
Au 11.163131589121445 7.204124745176584 9.178306744014474
Au 10.39983948507734 7.794642079056101 6.470593936424096
Au 10.571956658581769 3.440441151988945 8.658006910305335
Au 8.969115381082633 8.805252515864419 8.72656339970468
Au 8.374950035700977 9.708403826705858 6.16267771301403
Au 10.456771231115704 5.72106809572304 4.466958724482955
Au 6.795665749014752 10.605145822722333 8.349241309882036
Au 9.051357847775131 5.755820482652664 8.08837845921386
Au 10.107635913142213 3.310907939268933 5.8972714802778885
Au 9.326992040736513 8.261716949754446 3.868379990269154
Au 8.84825073040133 6.829789860146984 10.757107316403626
Au 6.193401881786511 11.483957125736309 5.781706967204134
Au 8.45354616792905 5.9831795665220655 2.5454598806878472
Au 6.374309946852441 7.979892569205096 7.648852429303688
Au 7.280763068261845 10.149998963571436 3.673401207958227
Au 6.740350039939022 8.581790843157998 10.4368863735494
Au 8.065434541347026 2.8042160711731245 7.763795121521935
Au 9.38684611369078 3.4482238723810354 3.24898616352452
Au 7.980590831525649 6.613024019908584 5.704709850572156
Au 4.0236795131698795 10.82299717820456 7.300581682793431
Au 4.577498021663853 10.22324376039904 9.966868433876128
Au 7.487156726715196 8.3289640690429 1.6368544737786632
Au 3.9435014062886875 10.34696977390265 4.616058311678947
Au 5.6941604929784395 8.107560406647046 4.911134199893658
Au 8.343121329825664 4.042137215779869 10.246180977557339
Au 2.2419221062874195 9.409156366001493 8.834493483133771
Au 4.14502693262421 7.512302432305946 9.67178725737723
Au 7.481680763056784 2.7594667585479025 5.070540348349898
Au 5.777613140949452 5.217152350738692 4.952200888391989
Au 5.496623377410037 6.487051049897748 2.410376435557858
Au 6.212574245034314 5.843405470000713 10.397836389118917
Au 6.680145868175733 3.9217082853236778 2.6381485896507706
Au 4.0854715276698865 6.718531367249512 6.680932449957631
Au 6.397045820629656 5.224384243475506 7.637845040613639
Au 5.0005707102173576 9.321104968151756 2.299927191672498
Au 3.0998762602343777 7.837887357556144 3.690155815030735
Au 5.766672025013764 3.198426954663414 9.557960751325105
Au 2.1534469970907235 8.901292049206324 6.162343606028995
Au 5.4184823721047355 2.596653839256648 6.826897891091479
Au 1.716536149248767 6.805109023407244 8.11916150171757
Au 3.3173791668469077 5.113918076436771 3.64844306256323
Au 4.641168373153042 2.745960962293063 4.17536198208707
Au 2.9156232768389256 3.9326740234122566 6.188401170336313
Au 3.647647317047729 4.959951857592502 8.92304944168256
Au 1.5370544742282075 6.262825375992814 5.413910453893459
Au 3.247137192755932 2.3329846232209643 8.434088711610235
