40
Energy = -105.56742276 eV
Au 12.16223438934835 6.378075503503003 8.542285111788493
Au 10.138563777051676 7.732997834032476 9.92528144879561
Au 10.406817359839872 9.30723579272584 7.7395511353019675
Au 8.249503547149166 10.642532413152304 6.641995719431683
Au 11.902002964696134 7.619594442455341 6.100145883482432
Au 10.294662518248542 9.56365630950198 4.942966453410657
Au 8.08874679157306 9.502255457801486 9.336119507307128
Au 5.793094824993361 10.618499934585813 8.293157978039911
Au 10.628479410352359 5.134792095444791 6.56753069876724
Au 7.776088548536177 7.219895649061776 11.244105539850068
Au 9.905642397153567 5.040583399557659 9.280965045761722
Au 10.35496187102352 6.4382429456892725 4.018915966916905
Au 8.92387438762847 7.415674907827007 6.179752009035559
Au 5.745117790370678 11.02662559531439 5.525383633950715
Au 7.697490320266343 6.724559261892311 8.541996348804874
Au 6.435840249356965 8.47397454457491 6.682863771258322
Au 7.721822007600341 9.44166600513936 4.040446195256477
Au 9.957765977409192 8.542900388483202 2.3654717491657955
Au 3.30212517118613 9.676733589040456 9.045556156674763
Au 5.591019564392818 8.680279548344794 10.313600330058964
Au 3.1008815675072547 7.381274856234318 10.504687989278983
Au 7.588653878020247 7.180749119357003 2.367547505471956
Au 5.0287644617691125 8.880131441479449 3.9530548218745984
Au 5.3257284498848945 6.013077218615666 11.240430042392282
Au 5.421785161878893 5.995708387338593 7.3108754479732045
Au 7.3856915503445 4.470603406818702 10.154554140431982
Au 3.6980499054336264 9.314733150043413 6.349399938941067
Au 6.68814937623807 6.469831905239237 4.862155945238811
Au 8.151120889668922 3.928959368366153 7.459115115486598
Au 4.8822327238509615 6.547539156329614 2.6151310660022635
Au 2.877420364656876 7.112461875777211 7.741925661689306
Au 8.715401067144509 4.350058261316148 4.7963807837075825
Au 3.45197383531456 6.794273836881834 5.0696773669236075
Au 3.581064874730517 4.9351775533353806 9.311961607252227
Au 5.060153849397837 3.252535046210178 10.986273911073633
Au 6.707240145979474 4.496201626476941 2.939070881548621
Au 3.4066002715190944 4.3143316593555845 6.597733180357466
Au 5.564858448410731 3.2504419252458283 8.25304198645387
Au 6.12896962923955 3.5465602971420087 5.569042910061518
Au 3.9725871005927123 4.289277437569101 3.935731768173266
