46
Energy = -122.00946037 eV
Au 2.0345995617217407 6.563807626524869 4.9554132794115295
Au 6.157518523259767 5.7547593472672505 1.4067973180239786
Au 4.940439977029002 3.3756485122386253 2.7810424459134873
Au 3.9439094970814947 6.050762505480638 3.0689519395544353
Au 2.200911754552295 5.033547568717864 7.217170160764263
Au 2.9747697299571643 3.888655874866558 4.703879071561085
Au 2.97355219390243 7.905885287600383 7.20854946273219
Au 5.696899856410167 8.184857036878245 2.623946655809504
Au 3.9033426193297958 8.627191588009715 4.637760847945304
Au 4.6223695346921225 1.6851025509875945 4.899782500384285
Au 7.663933799777013 3.477135934536456 2.207515318246752
Au 8.770074453735525 6.034070464476589 2.4655784076098253
Au 4.633545143561865 5.845145150312076 5.940363279359363
Au 7.230850124746679 2.427706556231858 4.708460487645087
Au 6.413833966964243 10.365556590324525 4.448428282354131
Au 6.623300192716686 5.284197689218872 4.130281570243487
Au 2.5042118641066047 3.600993843187022 9.59454211611559
Au 2.891940962917113 6.371219710202042 9.59093337965022
Au 3.336045665170824 2.483135505195511 7.160650385988271
Au 4.727095377770204 10.057907562588872 6.821892921489116
Au 6.648005308153602 7.831123911430408 5.358693935122034
Au 8.31072341734398 8.722584897831027 3.094245393441956
Au 7.0581192069755385 11.683280987368606 6.819704847380196
Au 6.147779711732368 1.7710548944675657 7.185159325681664
Au 4.854517365883155 4.61538212432378 8.515229263690207
Au 5.549994349156693 11.10532265612605 9.191319428545066
Au 9.197930844116934 9.996475035995102 5.322394647051591
Au 9.282373051456231 4.500104861859624 4.845311373834925
Au 6.253066436723599 6.929334439870003 7.965436541503536
Au 7.065990289860885 4.430188025320178 6.691409662014899
Au 7.793777414526199 9.155484378212789 7.615179682740544
Au 4.979986053359279 2.0795346030671484 9.604762881415262
Au 4.18414736295229 8.776019834912198 9.503248271680139
Au 10.340174282313281 7.309915969915793 4.247499876658919
Au 8.811933420730433 6.78086179580948 6.640017357214782
Au 8.240172795682284 11.231600711226822 9.550676781963585
Au 5.583928318940701 6.460076967803936 10.572000916765425
Au 10.242286000073802 10.701395701816143 7.7835455139330865
Au 7.320686223230566 3.6417280936341556 9.353064577246139
Au 8.327685159188768 6.274886569859451 9.846010945514008
Au 9.566360903209745 4.401180763383684 7.952991525647675
Au 6.852645514106262 8.880711585501485 10.34238417516624
Au 11.218180834467246 8.498259931700094 6.580770068197075
Au 11.429542318396797 5.6914599214303285 6.250751223066231
Au 9.596988261932122 8.819956263413404 9.86550488161188
Au 10.89631561647999 6.755293323909101 8.790438657109387
