43
Energy = -114.3051028 eV
Au 8.45027185273336 9.246645093192944 10.23275016538977
Au 9.579571023912898 7.7918341753835465 8.076173324075615
Au 8.747271942037742 10.330198576521346 7.7333484320776105
Au 9.958508147027286 5.148214359403054 8.477367797651992
Au 9.691185199692395 8.972231127860493 5.49269909181152
Au 8.296485669133618 6.533139588720508 10.241203945885863
Au 10.21185160601718 2.4381785871538826 8.891508478999278
Au 9.946055308146018 6.203712555789346 5.8488612572880685
Au 8.084466496913546 3.8105220547115364 10.093386459070476
Au 7.228028329593381 12.566642985582767 7.5389773138167815
Au 6.22792662567898 10.559586217442503 9.20240932777383
Au 9.764950472847646 3.374875419668599 6.291060747824339
Au 9.203787057736617 7.227267897266385 3.378649718079904
Au 5.956936908450351 8.026677745572051 10.129473768517201
Au 7.5114797970099705 4.979245336968315 6.863329965156839
Au 9.112196564118884 10.079383239871104 2.9867459684924307
Au 7.270043963183473 7.634451469979797 6.004703302951872
Au 8.830529156939802 4.532150657753765 3.952576936256115
Au 7.684599470941548 2.139772422148829 7.862293351277763
Au 8.217436405418459 11.397783444383787 5.19684601526827
Au 5.765407258159459 5.295606782404688 10.29156925295331
Au 7.41732121238006 8.413899481886993 1.6101589844950357
Au 7.254911413127403 5.74074937547401 2.021797257695129
Au 5.626976486803976 2.5856364624398016 9.681319707178437
Au 7.342190197278914 2.4162181214939813 5.170064124985167
Au 5.925462232970304 10.328186967233378 6.503312905324073
Au 5.357493685112146 6.513647561694175 7.666852887744041
Au 5.5317126661225515 5.512735234339915 5.080112947302656
Au 6.5046843976813715 9.589854282378585 3.929950197297112
Au 5.124319830184059 2.530432470671924 6.9589811305109865
Au 1.4977034097986386 8.392186290218202 9.075565440952499
Au 3.4744967834343097 6.761021082240658 9.784723893300477
Au 5.108574805568038 7.456779359194796 2.8626046558800944
Au 6.8444534324453015 3.1053384486569926 2.5576088990366674
Au 3.746312323064022 4.281476602466766 8.598792354139206
Au 4.616949909324677 4.803344268717637 2.482457381042219
Au 4.0359242351542095 9.095015489490656 8.158880637401214
Au 4.4424544266861 8.338509963954492 5.41127406964429
Au 4.741558462466305 2.757286914760154 4.310106206792373
Au 2.4947861186286033 6.961783192550245 6.952327196006829
Au 2.9647063600542762 6.246820792682004 4.260882266860538
Au 2.920838263888635 3.9194222823658516 6.011504791693953
Au 0.7284958144324362 5.4028513396094855 5.566103166397904
