48
Energy = -128.72703381 eV
Au 6.870067862373829 10.880888719474566 5.203429586402538
Au 6.482241426182611 9.834923933597988 2.610214767273113
Au 2.8906303650606926 9.921008087563232 8.909981483252109
Au 4.689157936307993 10.83758453021917 6.976341839046954
Au 5.315646180256692 7.333402138584684 2.820919380598969
Au 5.082488182162894 11.26342616101918 9.67409600500215
Au 2.5710396150657373 9.019506770460804 6.338207130657327
Au 9.029329994159637 10.106918778204566 3.594179527681232
Au 9.657954498286793 10.460737723688416 6.234331675545186
Au 7.298695931028155 11.236815400413214 7.886818266801374
Au 1.6814225419291091 7.4903898938807805 8.529833829245053
Au 8.106253233300423 7.583694578200656 2.759889877383273
Au 7.859206994541384 8.50198242643511 6.686315121744481
Au 3.2573691641266858 7.864234246138966 10.765646890758163
Au 2.835251486525992 7.489159923914429 4.0361819395923595
Au 5.077098092591141 7.865628348700521 6.8769702156370744
Au 5.3674238280512725 9.299109230096214 11.634535575467924
Au 4.507007446154197 9.626582814931439 4.47003096859788
Au 9.572704079192699 5.459794405242406 3.6111796566068453
Au 2.795975759094821 6.105905375365376 6.432805993624853
Au 10.106555146530246 7.927769252329268 4.782985531673157
Au 6.833203738841341 4.9740423956706925 2.834638610460136
Au 9.607927763223522 10.157575806992364 8.971836363980502
Au 7.568343860322857 10.943560258899524 10.736669460155033
Au 6.552392654049723 8.708792486425937 9.121506716685483
Au 4.293489098217322 5.17120914324018 4.224945745981812
Au 6.7912957198398995 6.460040752854679 5.1520557934963325
Au 9.980367128547721 10.154306998081902 11.732132515396115
Au 10.674225020744368 8.07422212719362 7.511692766589692
Au 8.4191137930604 2.8819087481353822 3.6356179298226627
Au 3.8187115108849703 5.768558286800957 8.985952873445513
Au 11.161329689783358 5.796646405709009 6.085321672617951
Au 7.142252717336497 6.1857093402059515 7.860674504095464
Au 5.753316376975221 6.583345246259142 10.81374700741588
Au 10.39185435524434 7.83903124019154 10.368420217179345
Au 7.924947801125183 8.236260033228607 11.654197293945135
Au 4.611985059674285 4.125701363566949 6.89392774364124
Au 10.891063660184333 3.3464101440354592 4.7887147242545405
Au 8.548487361141692 4.50885973648098 6.075342480042537
Au 5.796719441178483 2.989848785553474 4.646134389583183
Au 10.830021858868484 5.640486595907174 8.931272954981466
Au 8.393658058380398 5.841671976824084 10.360345085317475
Au 6.0834564008017225 4.192003777980536 9.35567378367387
Au 7.349228696439906 0.7817363297031257 5.054459597998826
Au 11.361552778404722 3.398998140856974 7.534935280087124
Au 8.80151219260671 3.6655626647339767 8.7237603472578
Au 6.721284758625643 2.4307670069107576 7.239007542275393
Au 9.369116712293525 1.757659438815765 6.596499306747121
