45
Energy = -119.78585374 eV
Au 8.154796126870414 2.5130561525639834 4.989006210826863
Au 9.52056669211502 4.898566644875571 5.337199105106183
Au 9.210150387369344 7.035147347175864 3.489577693409064
Au 11.131238430596788 7.06340708823684 5.566830378204732
Au 7.8328042340866855 4.698483228637578 3.095708944624141
Au 6.189440855183034 2.4368177835950515 3.017156416585034
Au 7.634070323588832 0.9697246374817781 7.247303976685407
Au 10.04408791228219 5.951030946264917 7.972412423666836
Au 8.62388381554669 3.525684066032885 7.535285847544185
Au 6.019245751765353 0.6105919746711427 5.021050691728889
Au 10.643623261474032 9.347738282211512 4.119815716791263
Au 8.05340727104249 9.543336443371963 3.0685133128340865
Au 7.769529940188874 6.796697342928864 6.736299988067817
Au 6.3828229832057035 4.690186429199572 5.51141928055218
Au 6.599133338218673 7.14332721795002 2.626242579512691
Au 9.729056986836325 9.066917730605173 6.693790785892202
Au 4.953222899738988 4.884267602778028 3.024405284433779
Au 8.096113724711948 4.727823686681429 9.908250877622564
Au 9.768746653594258 6.6640974719393125 10.702475242577309
Au 6.57234510753287 2.5873077294084434 9.195096424523536
Au 4.830423191159611 1.3604871786298032 7.3797191935937505
Au 4.234172577841005 2.7598296940248472 4.97112103690733
Au 6.877085423414775 7.111675651764743 10.67747691562123
Au 8.921483920329116 11.255723674066651 5.103028661272666
Au 5.313955194318976 9.578885137464088 2.553541848917259
Au 5.405154868814002 4.66621977577392 10.771881898270879
Au 3.8879496679936034 7.373113921312225 3.3476002646095817
Au 3.8776250274057893 2.321966120010522 9.766186022700383
Au 3.268338890447747 3.6657236768550385 7.3637920841467706
Au 6.870888278228099 9.086310218425613 5.6315523105330465
Au 5.817924362600951 5.195929213274346 8.09428014652136
Au 3.0328920627118165 5.239738900369004 5.047140864446311
Au 8.641474438796688 8.480368448942523 9.085951222616547
Au 5.03420560339417 7.0573290846607035 6.10841870399814
Au 7.950396143160999 10.805237334545627 7.882180528767801
Au 6.234200616307754 11.484786006520268 4.308328228966863
Au 5.951086984907717 9.311329525903686 9.187716964931889
Au 7.199233762965665 12.97777020985035 6.427315227352035
Au 4.092112057126783 9.773343938227164 5.021708373008732
Au 2.783960459295942 4.794689430491696 9.881266466413138
Au 2.6026112876926786 6.352436709952604 7.663072755415619
Au 2.1854439183974854 7.880153903410665 5.458264456046572
Au 5.286752893141803 11.112041507171554 7.15739785996487
Au 4.3153436061836725 7.146391280850755 9.73816593340045
Au 3.6068364113266513 8.970427770345763 7.696048050461919
