47
Energy = -124.54239961 eV
Au 8.910364908144699 2.8642690970937927 3.9818664048887373
Au 7.966184183475124 6.754203643430594 3.0775209033607385
Au 6.497711498175825 4.323396511115776 3.5523592218454447
Au 6.497569010932744 4.0438542689507875 6.775629870050296
Au 4.156861293344173 5.1144532558807425 5.571657499182749
Au 5.029939631685881 6.754423476944312 3.0778409332866725
Au 2.5937442914726536 5.39188082122906 3.3216345200971165
Au 6.4974845522540905 1.8879868551659948 5.004268092270849
Au 4.0847972989730525 2.864562376688835 3.981681487712359
Au 1.5738041170841708 6.504681430393403 6.02971578202975
Au 1.8997080300169522 9.317631605513848 6.229724964469223
Au 2.6157169865639194 8.117727473721033 3.71437339795771
Au 2.592860742957669 4.6945783463107285 8.021659558805569
Au 4.080196118489415 2.4656343017677638 6.832934181421881
Au 3.6554715276439094 5.8344524004916405 10.35354841598809
Au 1.8083795907746194 3.713031566631429 5.5204949422815375
Au 4.235233536563358 7.966876715892347 5.912305937552662
Au 6.496375639459809 6.524869055671294 5.4564481405842935
Au 6.49814567014516 9.00733555009969 4.1404879496303515
Au 4.0882149200035425 10.09089851720272 7.914143546464607
Au 6.498321299183193 11.732051757786843 3.9796733548746412
Au 4.160176369789762 10.575726090052822 4.982245412900594
Au 2.6377650005897046 7.680411788157597 8.422723963899747
Au 8.762365965592938 7.967718765489895 5.912206959711603
Au 6.497949179752648 8.542535165021716 7.469869575899308
Au 8.908434806855851 10.090433175937212 7.914149516248225
Au 8.836382095857758 10.575136644919311 4.982553955480635
Au 6.4982674678555 10.572445124309588 9.35928536720649
Au 5.035359381753397 8.277570853091783 10.026800427211928
Au 6.498280642966882 11.159450272221573 6.6225593082105885
Au 5.045192428408015 6.174109426926338 8.00333510947804
Au 7.950753776091768 6.173754120447946 8.004099349628518
Au 6.497952544974795 5.776022602722651 10.550851309763791
Au 10.38048065441189 8.116827410305694 3.7146694443965536
Au 8.840194920760773 5.112895785967399 5.571220435376143
Au 7.9623320299393985 3.5891893161660153 9.324360947601448
Au 10.358323226203668 7.6797800543425305 8.422679653139582
Au 9.34025263934892 5.833903647195989 10.35344940921107
Au 11.096184104474377 9.31660124984761 6.229685661682045
Au 10.401770242989246 5.3909870715961725 3.3217187387614544
Au 7.960913242416753 8.277237783172216 10.026798755206283
Au 10.402720321277997 4.693813505728308 8.021577356782908
Au 11.422000827723936 6.503740645323983 6.029788911312771
Au 8.915103877145114 2.4652349495490102 6.832877219310826
Au 11.186579339301082 3.712389139186232 5.520469025604319
Au 5.033139469210853 3.5894112318109905 9.324371473921333
Au 6.497514720701571 1.5873492735761934 8.009157725659419
