48
Energy = -128.66502152 eV
Au 6.895564170958882 2.4733580073628287 5.9865079357344095
Au 9.445125361758256 3.7717440827187447 5.915963670963649
Au 10.80466213105481 3.7630265679795016 3.564592797594661
Au 5.308295078236202 3.2130936950922058 3.7910154372985643
Au 4.746854443856307 5.182080764780152 1.7739615012319236
Au 8.053535801412417 3.2812503380631153 3.546187233995807
Au 3.7509265321837235 3.4565215868813812 6.132144083520646
Au 3.5245624493213668 5.424802575670406 4.169470034361663
Au 9.257746998969175 5.989086549229282 3.6750694086963804
Au 11.445238122761454 5.844534361750538 5.407238819737932
Au 5.474259107994935 2.6900945967540366 8.322664097755018
Au 8.16334806361033 3.763305583274043 8.272697123266202
Au 7.632327614762297 8.289298046142195 3.4835835339234196
Au 6.003797437151935 4.954217283789163 6.620822067487449
Au 5.020473676499226 7.7988444608706775 2.6117051501381128
Au 7.923973843570194 6.829914893676211 6.000804360066104
Au 6.511808103476341 5.72825286546517 3.8008903518363395
Au 6.527393399262403 4.483724949693475 10.344010812890064
Au 10.595672875516318 5.222238564039779 7.95021096800743
Au 11.855653402175463 7.954939656822066 7.100504902376703
Au 3.6023536508058256 4.828580743464909 8.651666489257662
Au 10.022934559759523 8.342032861964388 4.985984663981062
Au 2.734329043383827 6.299117454433136 6.6021952590608874
Au 4.189730423149296 3.130264823702202 10.717277700505438
Au 11.424604227159998 7.0767066844523425 9.781610308607945
Au 8.973052171826057 5.7214997185498255 10.138324816881932
Au 9.291879826403495 7.942048256231344 8.180432093711072
Au 5.2314619824264605 7.502866309052005 6.3350667637601275
Au 4.2756090068849995 5.9454616300044085 11.085201325350184
Au 8.1364635791911 10.541946955001489 4.9291718594954235
Au 3.1199508892035865 8.170126537744869 4.595516753974114
Au 5.484499872222029 9.794563053437276 4.4834393031682716
Au 6.72677275497987 6.79293027853395 8.64386439918936
Au 3.716797877934455 7.676464381729572 8.828917301925802
Au 3.7502363368927223 9.756133635912803 6.822000777227412
Au 11.267524746167842 9.778455026950132 9.31469063173552
Au 6.8892547785647364 7.110203740149603 11.41655123289501
Au 7.143611482475032 9.31856000071278 7.43072735452048
Au 9.338477300493066 8.37810599396439 11.11311509339006
Au 5.879330703682482 11.593093866461208 6.662701314471336
Au 4.567363142061369 8.633296227187035 11.308864226552032
Au 10.281360700005264 10.408258624142348 6.749301911592804
Au 5.056434949025134 10.272907204149785 9.179264445197456
Au 8.468758371259007 12.576720736770124 6.6851506283555295
Au 6.974353716045882 9.92254244858982 11.199726399395178
Au 9.408687226562623 11.072492444139822 10.940172114002994
Au 7.401732356189392 11.74197411261241 9.109393457682847
Au 10.240670344549985 12.353877879638157 8.709842644996167
