47
Energy = -125.11681752 eV
Au 6.18131829119203 11.28204534434187 8.337331949947306
Au 4.032799804182046 9.474990900611408 8.767949562729196
Au 7.438532739366532 10.95169253334114 5.847094961669834
Au 6.477786490389696 9.100941674688984 10.080488494893283
Au 4.109447877235372 8.037145373287386 11.064723365385104
Au 2.298966348625844 6.859250289187135 9.130771355570724
Au 4.650091789298603 10.437688505961338 6.181740462761245
Au 8.656744274909846 9.97118194247276 8.44071418611866
Au 8.724273830368833 9.733485954109566 3.744154922620117
Au 10.147510427060135 10.282671533549705 6.118292280252404
Au 5.930698343922814 9.738040967545583 3.7656312829506935
Au 6.577267972959482 8.564544013326122 7.214935361152168
Au 2.561609121017437 8.440830028151694 6.731879162713532
Au 3.1602772049810866 9.681421769662373 4.027779042312478
Au 10.631844785924345 8.130242351687599 7.802136473771191
Au 8.663752969133386 7.476744045419031 9.750095679809561
Au 6.279604585396612 6.328204458391743 10.643258090700114
Au 10.42304019747444 7.759495347393396 5.047528078638827
Au 7.589727191713992 7.38869605220199 4.737169322969127
Au 4.820070147613463 6.679605169812255 8.065465924551603
Au 9.651488843184481 7.538830875957656 2.3898313878839645
Au 4.3037373365200295 7.546902337864204 2.590667080195593
Au 4.832918805129158 7.466957324776115 5.353999268236265
Au 3.652954093155696 5.373765944705854 11.1370478470055
Au 1.975661316346631 7.248865365737605 4.2742380919579706
Au 6.978692880658198 7.7730595660884125 2.0014361733184107
Au 10.793085263569706 5.437834582395875 6.597516404368976
Au 10.857371709159665 5.85115929105774 9.302757647315197
Au 8.351651343597842 4.6400179550500695 9.864981909618503
Au 6.274191989866085 5.048770525449708 5.257050630932102
Au 8.182987908736827 6.30735051045193 7.1994733617829585
Au 9.743332310827185 5.244975891040133 4.09364627495583
Au 6.3262567559182115 4.4322886831494674 7.908807858026191
Au 8.4806935825711 5.215717071405825 1.600100957720024
Au 5.682499493840083 3.6174039815936414 10.509451998342461
Au 3.423170408155024 4.137514001948014 8.72088100649382
Au 2.494953921520566 5.631339139697065 6.526749751573673
Au 5.8485820868497935 5.213240894863385 2.3429412294205227
Au 3.562395416373958 5.055188821795638 3.988944512421418
Au 10.375869113141757 3.3079073937727266 8.42986674820941
Au 7.841605376305562 3.3450636523137764 3.5313735409315155
Au 7.955013268455117 2.1409914355148727 8.340228056457253
Au 9.319586130299589 3.110741800871133 5.90123286710563
Au 5.185237708697149 1.9048797839134948 8.353111989829731
Au 4.0649146023344835 3.347033105344176 6.161238928183761
Au 6.687779496763712 2.235548572560497 5.881213339781737
Au 5.142463381713639 2.832524668584336 3.584243286718836
