48
Energy = -127.66850613 eV
Au 8.439179580640952 6.923998034460586 11.653719136436074
Au 8.835741856810216 4.658842365266825 10.200690074231133
Au 6.2287161663293125 5.343681751884639 10.968872695074964
Au 9.175174846541696 2.5350324664611525 8.433144108356377
Au 5.947966238143856 8.088190929203986 11.407902879501552
Au 6.588366437038641 3.022701670517018 9.29402763056495
Au 4.093199547700626 3.837367954234628 10.061880311842105
Au 8.895596935346225 9.279806115089118 10.411463326921215
Au 10.71924986397307 4.823622806178606 7.995028975971164
Au 7.34565959707868 7.430689233004565 9.082941065175005
Au 3.7121719523094754 6.533105652147443 10.417722463377787
Au 11.881302132022315 7.234076775064602 7.538727179618454
Au 7.926847107703632 5.09247140369233 7.570645205427406
Au 3.7032163248331154 9.254761929474427 10.396397269124407
Au 10.71980911344614 9.57412303412707 8.231608667129606
Au 5.319817211569987 5.768144670464542 8.17065518804694
Au 7.031213807761488 2.2285254888095083 6.639516358052732
Au 6.340395633148898 10.256916567088714 9.704989839562298
Au 4.419776876154712 2.9706563448740937 7.486859530825218
Au 9.121949791273956 7.662675363575659 7.026859405197635
Au 9.47358493594904 3.3514522988595035 5.820630160859521
Au 8.763839269910287 11.44637417303718 8.737028468075549
Au 4.265988130458501 9.889786122933554 7.880845425422574
Au 5.163968622550433 5.960742337590045 5.476008351326268
Au 11.069247901229792 8.672228073221751 5.293158408487527
Au 2.348928502918444 7.870353765897145 8.335014741955744
Au 6.350180363184477 8.240689902575516 6.4879824863735545
Au 10.866285019357997 5.845856004458095 5.387698715983188
Au 2.6074267112123604 5.084521044642822 8.091293116607616
Au 6.729497178328222 11.04451591721046 7.048112481129166
Au 9.636910307970991 4.496943645778264 3.334677572575084
Au 4.894368924597929 2.3259366549530083 4.8784312409776724
Au 4.6649820147278405 10.676007044501695 5.303574826075705
Au 7.270439546068096 3.336533242779576 4.042252814079633
Au 7.155771185172575 10.208973043736046 4.364665849892386
Au 3.1855551868014653 8.446513666106426 5.731374649039705
Au 7.848795854644801 6.196670045148789 5.01827886250143
Au 9.312711125592767 10.685982302014887 6.067797370935005
Au 9.589613514966226 9.902072923124582 3.3272497794921887
Au 1.4460389112290817 6.424964926538404 6.010045805692193
Au 4.976275018466133 8.606561837910515 3.5951159018792467
Au 9.772131779408515 7.209766828122609 3.1649851282668457
Au 2.9699717820026663 4.215436572163777 5.405132603643712
Au 4.877810765533497 4.441127166329775 3.1088190055068514
Au 7.344703372239015 5.616630610494727 2.3322390337245964
Au 7.393973890313884 8.408382915789193 2.2137838793182514
Au 3.006466457062278 6.504691896820029 3.64624841799012
Au 4.989845056058567 6.791556829424969 1.6245659395343361
