43
Energy = -114.3022673 eV
Au 3.927694252872558 3.7877712249831195 10.537187685928599
Au 6.182449645348973 5.442503233135327 10.26181755616
Au 6.4506623694638545 2.684769388185949 10.347095654241267
Au 3.6309029038906293 6.432633401029626 9.564334805272674
Au 4.960129846829511 3.0155604097542748 8.021145941553732
Au 2.4639540008647236 4.2390723385617095 8.261312760673988
Au 8.46006134258296 6.998996491065673 10.136650851953238
Au 5.893970082910196 8.122394847593954 9.68749171810895
Au 7.804283957610361 2.4565257504510565 7.9561564224440104
Au 8.739945037105151 4.161204860740306 10.019912190038191
Au 10.785454710900202 8.487792853676497 9.545935950027536
Au 5.239461101479075 6.245207575717656 7.3278708357945455
Au 8.26260338501193 9.67725572940082 9.564733870630443
Au 3.7444550484561425 8.717165966691958 7.985868481711585
Au 10.943138577967144 5.789776811666626 9.716874906308506
Au 9.10454919767788 2.643836734608832 5.6026965426836535
Au 2.4667548364971306 6.4992125000875856 6.707463617612351
Au 7.753342437595134 5.242942938315523 7.531040013684112
Au 3.7479660746354604 4.162566559437875 5.809315345003852
Au 6.299884893901332 2.9835059422683603 5.653748711193674
Au 10.275656244840855 4.112562489115282 7.629266781925404
Au 3.512590007912586 6.421501424803017 4.108406600990542
Au 7.575655532166833 8.008762249104851 7.246223514364738
Au 10.524269835355247 6.944825189875906 7.200593109599973
Au 5.982594210591581 10.474385200422567 8.215476026588124
Au 5.098606643743463 4.226810217803413 3.4542425557548544
Au 9.924496124801298 5.364224931429307 5.030540153152653
Au 5.418768368355363 8.54531939197859 5.613054941738687
Au 8.396381100382627 11.907739799704713 7.890275615708181
Au 3.9379674577490875 10.977262647997824 6.363630023713539
Au 6.811054754016339 6.111918424034744 5.055602956112782
Au 9.95183741939808 9.680886247257646 7.209374840410807
Au 7.772443181356084 3.898375326019782 3.425857774259777
Au 2.609137066720434 8.83191641025263 5.265145233491632
Au 10.38814014315091 3.3114031236507486 3.269984350838862
Au 6.202137937513552 12.563270417456929 6.355790955130587
Au 9.333280193256025 8.119506449940463 4.953747421009294
Au 7.9254843932296115 10.492423216055181 5.509343122201396
Au 4.276840589317607 8.907103156922155 2.9914709103893693
Au 8.541604248704836 6.513125495153844 2.844326916214463
Au 5.7640306395338445 6.647705036957707 2.414130843634257
Au 5.521544622852518 11.073732051599876 4.0991497295867765
Au 7.16148689415792 8.890925225351076 3.36685028233233
