41
Energy = -108.82800852 eV
Au 8.607387118172836 2.121328525281871 6.715846926699305
Au 10.051115135461618 4.466602646930436 7.224909928413807
Au 6.914450206748211 0.6482864106276243 5.1165231722442375
Au 7.735646069927137 3.8778461603796996 8.7008478299676
Au 10.40172109677786 3.160356955378386 4.81850408600744
Au 9.38341981558531 5.91340871056362 9.482839700909494
Au 5.856930197791594 2.5864923047506037 6.936533316607541
Au 10.817929412891768 8.311894857613469 9.570769087932682
Au 8.214577783912418 2.302951392098095 3.372355550625842
Au 7.753391641843303 4.468797543766562 5.481067629603818
Au 10.446826889792826 7.188182691709546 7.1456274007166485
Au 5.558566197538453 2.8081239073830284 4.051565299959502
Au 5.04046388178758 3.9806385074269786 9.309430818600422
Au 10.135203568438257 5.9817456061995005 4.783544612064201
Au 6.749657461481935 5.90577432572542 10.330285858316302
Au 9.622596393545138 4.508387625882596 2.5034952025039234
Au 6.885858328494102 4.657022007501661 2.499173378683171
Au 8.215048979604124 8.298131648718988 10.35177413230424
Au 5.594909769246414 5.357271426551033 6.988359735878515
Au 3.517796197156467 3.694455707429438 5.635659205090885
Au 8.5133475488189 7.040395052198207 2.774161025422071
Au 4.060599540013385 6.58719278094905 9.818856638700133
Au 5.851119767070437 7.128499847893054 1.9307596379638006
Au 6.497999993708666 6.786827490554311 4.8317053362518765
Au 5.642977174831886 8.371931767685469 11.128220336644947
Au 2.8577755504304974 4.9777560972154395 7.949921376982159
Au 8.905412192941006 9.385315936251725 7.816489238541176
Au 4.338316624535124 5.2644771265045165 3.4953950954720447
Au 8.932528536003066 8.500475951806257 5.167628196804769
Au 3.5941304231789633 9.3933082302804 9.722634222553289
Au 5.084276130024701 7.9818015075249225 6.922999559078137
Au 6.355912880179861 9.75679578758045 8.854780612908833
Au 2.2358627670770437 7.650679198035161 7.974868677434686
Au 4.000653832425485 8.033543716532666 3.7003935509422865
Au 6.788979776524269 9.245014582834264 3.4988895327484477
Au 2.778743236902921 6.371034685321299 5.528087042613973
Au 6.876116849412202 10.109266864685045 6.12925047539254
Au 1.6585367500444026 10.357388712856341 8.002597137346848
Au 4.299349281477714 10.636700278750512 7.266912781164607
Au 4.610134303196116 10.588166917700361 4.525197072273323
Au 2.424309518363861 9.172196185119605 5.622876508271793
