40
Energy = -105.61976928 eV
Au 8.453992590073389 3.014134745717188 5.429829609534299
Au 6.712198404102097 8.030615335831856 3.913758965703119
Au 1.9842252610305668 7.772952201458147 5.5026544393605
Au 9.362044505443773 10.808371831806356 6.993619716700987
Au 8.83441968069569 6.1510262355837595 9.76431576779618
Au 3.685068160661684 3.6484059393366812 5.435325432872367
Au 1.8347811166945271 5.280970431578809 6.828914744226252
Au 4.905425146298155 11.35555838156755 7.051828170148177
Au 6.014688646829357 2.939551259068295 4.031955905239942
Au 7.022055197619957 10.355491428104205 5.509733282259927
Au 4.50414515763171 9.322694371098743 8.888445042136805
Au 8.378346332752136 3.5664358882292664 2.7393744138569427
Au 6.735189073109676 7.992563132075475 6.939653935686965
Au 3.880805479112647 4.081057213599452 8.17356703733826
Au 4.185861117486898 6.846671262558292 3.736513367162304
Au 2.530852200453676 10.02358945693326 7.011737771363954
Au 6.790803011096594 8.102123886408219 9.996506182048796
Au 10.699873372064665 4.105320698207862 6.832167055725033
Au 9.168311133399232 8.616175500782475 5.1184672813434124
Au 11.049674785790323 6.551326663076009 8.217654435688043
Au 6.4174845220774985 5.513717273191879 8.262861606750528
Au 4.310072470475605 6.634811690713911 6.78928226756637
Au 8.715345169068108 6.060567757685067 6.765020003868191
Au 7.0618728756164835 10.420398239343013 8.476048967408344
Au 5.992021673295513 2.760575597414465 6.796610330679764
Au 4.496381281259723 9.200203180039843 5.19224580675876
Au 2.246514111803096 7.632865299284151 8.352468027806701
Au 9.252142205765473 8.69332944199533 8.753361173402912
Au 6.380344447842466 5.436288039896109 5.415105915772726
Au 8.403775422745362 3.406934328973218 8.162499775303084
Au 11.324284010320767 8.920019939218989 6.824179643512674
Au 6.3688230527997005 5.504684425147894 2.6366793242118134
Au 8.85341448042633 6.233265800033321 3.7171017221917526
Au 4.328974604700811 6.727205551076313 9.868374377524432
Au 3.9049551097295923 4.159696431723104 2.73742537597273
Au 1.8709776503155422 5.381810528255453 4.087711981700982
Au 10.671069470155913 4.151695309637898 4.087751078954848
Au 11.229339463338835 6.525575610127724 5.4129193114865695
Au 6.500516592944517 5.5270236296198885 11.076757433557878
Au 6.032500641735768 3.046251371563784 9.54869738995046
