41
Energy = -107.78948471 eV
Au 10.529841011976835 3.311365512067139 4.380585219411817
Au 10.07823499415918 7.698944407873692 6.413483544403292
Au 9.153011964366062 2.357434158808476 6.560167060349473
Au 9.95994110435358 5.97010273375861 4.157976753977206
Au 9.279976371915033 3.7036791924820203 8.904600314829597
Au 8.538807908617002 1.3487015538403653 4.122388244335904
Au 7.951936690987858 4.0731555272508455 3.7027672978460116
Au 9.445278741036931 6.441160995458922 8.8814282221601
Au 5.960468063579324 2.4338734824007524 4.669261296615481
Au 7.474008234618106 6.7290302308334144 3.0726449102922166
Au 7.022016654318664 0.373428373163906 6.164852041326055
Au 6.855966801540271 2.4405956716124964 8.063332957349798
Au 8.954570809347667 10.206492307073859 5.86669143856734
Au 7.333175147092978 7.182259245742444 7.259179585262518
Au 5.335195128296761 4.913733322528011 3.599757276883361
Au 8.874724900331158 9.15268446690482 8.528343279370363
Au 9.376667746562049 8.543919520730881 3.823097742731446
Au 10.334340316667303 4.946494956440577 6.6712141856123885
Au 8.489006003184887 11.86066213053151 7.981740906706333
Au 6.4390403756851615 4.837532871824386 6.26069658319205
Au 6.793530551732417 9.374021849107464 4.124112441442061
Au 4.576532928699328 1.352922172283919 6.8811579381345815
Au 3.715766416028259 3.703852251911024 5.6882284991783445
Au 6.910853710060742 4.922110495737005 9.257746584419868
Au 4.8871763170258555 7.444666716935937 2.8745348981988705
Au 7.160378674535971 7.45660160816248 10.177452590937246
Au 4.545364631922904 6.147531689851773 9.649701085628735
Au 5.113079508726725 7.286700815144448 5.859160785686269
Au 6.458364225828049 10.615765731489466 9.307055363721167
Au 4.5785328280189255 10.096880635521758 2.4184601592438653
Au 4.1741957604258415 9.811899452993334 7.8471559383448435
Au 6.3703803892104425 10.816921047093212 6.577211293327198
Au 4.447902443964844 3.7020465002345437 8.435069843609826
Au 2.9257871913025695 6.047682216564284 4.514093657786584
Au 6.940078215040446 9.607924653483218 11.776648354685241
Au 2.4777467388751315 8.61165340834997 3.5321891638481624
Au 2.8824233511063855 5.714621941258794 7.365966540081954
Au 4.705060230847935 8.797355726832073 10.393038155495294
Au 4.250659516631498 10.003699232306282 5.129196909215593
Au 2.336202190511833 8.21879792318216 6.284141473956997
Au 2.5419222071196668 7.919240266482344 9.001616458087273
