46
Energy = -122.49189015 eV
Au 10.459432357382642 9.58995665675777 5.377434784270647
Au 10.799887631008433 9.87038773523537 8.09128653085646
Au 10.417676907989605 7.328873453952053 6.993314721094496
Au 9.400710264386394 7.242628218531818 4.36446022347497
Au 9.645203708591293 11.963506452716176 4.260037952680273
Au 8.863448461210334 9.621089993356819 2.973591546774444
Au 7.978434577393021 7.244042265962073 1.929615323483924
Au 8.237280415371323 4.886061729776601 3.440909539307913
Au 9.310521228904566 4.964678879305294 5.952686881310671
Au 7.008373194600484 4.721198586993446 1.010009622505498
Au 9.946221394505056 5.156557324295451 8.635227071229473
Au 7.876119266541062 8.980319190668395 6.390347854982999
Au 9.668935343084364 7.849937408559637 9.683167168394641
Au 8.915165435561653 11.651891976271491 6.90031509014365
Au 7.061847432828724 11.148483215457237 4.672191324090744
Au 6.621150015335616 6.659041766673446 5.339199216161236
Au 7.063411217492875 0.8135437227581024 6.769034679914414
Au 6.209707972902815 8.822439421663033 3.442628038214939
Au 8.785730912921819 2.7458199168448245 7.734972909906553
Au 7.675504894178778 6.6773077569281085 7.977822013745277
Au 9.358520413792574 3.1542925136933944 10.417090545306142
Au 5.5095317617848325 6.118493549913435 2.793558109431686
Au 7.98283345968644 2.6388760596367193 4.978409859216142
Au 5.884118264002103 3.3008907515612114 3.1449778109480238
Au 6.553682971143917 4.2185919108372305 6.7574167325440655
Au 8.292405132218692 5.71928637091717 10.836788311181012
Au 4.582474924341999 10.19457739153589 5.295044842500409
Au 8.284266277645013 10.245345425859995 9.179712654637255
Au 5.357570560739814 8.270759450219701 7.293764047502327
Au 4.950455251459411 2.243162577288487 5.489409956763784
Au 6.752675494106769 3.659472046908713 9.771515492743923
Au 4.2001557144170745 4.8429818155631175 4.900136422671204
Au 6.2027598322238475 11.237429078965958 7.352915256735328
Au 3.9035953096021516 7.5814133871483005 4.459053702559898
Au 7.026064048561308 8.149203148100009 10.656291573824294
Au 5.123386665985495 5.769188826059528 8.42922319687729
Au 2.1540533956378507 9.050451511714225 5.999967913068527
Au 5.062407022712928 1.9310746115865456 8.247425493064263
Au 3.3379426406443513 3.864613474728241 7.336955299033645
Au 5.471476133875215 5.884598536386081 11.171475820320696
Au 3.5995369584012975 10.22080759189088 8.051424716964743
Au 5.652335077042434 10.347489198798932 9.86750209083615
Au 2.774606364270382 6.490400932290187 6.742179044729049
Au 4.027052052619143 3.655247483824348 10.129631387423421
Au 4.16983302798072 8.081683129931003 10.017929140511958
Au 2.5689114437852636 5.919316382804597 9.469360916932786
