49
Energy = -131.73682283 eV
Au 11.624944381652707 9.966488094080741 6.927403562721647
Au 11.024501190005246 8.921276384698821 9.540436604492301
Au 9.735698808009033 11.231390594662656 8.478623720565665
Au 10.485158457907067 8.406988272643295 5.009139220502428
Au 11.674994949985344 7.237587868091026 7.262343416130433
Au 11.614481117582153 6.247305793016091 9.835171492648808
Au 9.396686241315694 10.949807011943799 5.65222345448732
Au 8.61501468564364 9.766376834303111 10.71395655460747
Au 10.260944127192804 5.689141136188778 5.3403107787914115
Au 7.609294318625342 12.205762076621474 9.898654447744258
Au 11.443738797337124 4.471106367491182 7.646851158100286
Au 8.64148668150203 8.686065856518761 8.063147736624709
Au 9.126138390159982 7.049709370683642 10.7675757557065
Au 10.181888126367774 2.2320460322998965 8.66914399005894
Au 8.96957097064422 9.838163980201857 3.1281873345882154
Au 7.331542409637072 11.886665261877361 7.185571279446014
Au 7.8925161399446875 7.1725928127164735 5.819620294403858
Au 9.070782141386424 5.863722059107595 8.074214075098752
Au 8.877827950277826 7.066410971875067 3.221197469063422
Au 9.669611858423012 4.334275446474336 10.386812385386206
Au 6.838828223510314 10.829983805742238 4.543577676985267
Au 5.118767613387151 11.379146838993139 8.962461808315838
Au 6.043612065933251 10.573027038390316 11.4572925017552
Au 6.455204429397108 7.907880503483663 11.055066123128109
Au 9.347660479486068 3.239026422855534 6.182325489230859
Au 6.448278879643267 8.616127117344604 2.9004705717759123
Au 6.177166952611036 9.216483188591443 6.8619024270230655
Au 6.986994473883913 5.2172291083037585 10.5005782298651
Au 8.004071085415724 4.563733923822425 4.109397083314743
Au 6.6080062858616015 5.929459175639314 2.135020536835739
Au 4.270759092897356 6.4021494734924556 10.11111081885028
Au 6.851765145901269 4.6243405919412535 6.786912353192505
Au 8.10418333726354 1.0378699950903918 7.186313508933036
Au 4.778008447919597 11.594965978493592 6.201950353948584
Au 6.4093345741304955 6.9322375234512705 8.411746132495605
Au 4.351223578181053 9.326896490957411 4.635976170162731
Au 5.1302226719331605 6.753748273666882 5.95216446980689
Au 3.991149805737127 9.170797231124554 10.307009313562771
Au 7.542437622391826 2.9016629213555483 9.121535689646418
Au 6.642014426609979 2.296950817356344 5.279811391886971
Au 5.058320555488772 4.01896898338805 8.887219827307197
Au 3.303489245746407 9.822872244374327 7.627528963777191
Au 5.253487164237764 4.215129292284306 3.8429675204009253
Au 2.1771879625145876 7.663529924198492 8.852595870441416
Au 4.299181104444021 6.9294367241679256 3.278665950143306
Au 4.282667395182492 3.3210509797541716 6.333217095013488
Au 2.9072338194439915 5.2611040218243685 4.904170549453703
Au 2.515724607695009 7.712430015907242 6.087856062376629
Au 2.9260889151353497 5.310212808967231 7.731383544967874
