42
Energy = -111.26590012 eV
Au 2.5303668267656354 7.934130296807737 9.295354994089257
Au 3.395162640089059 9.205119576470144 6.932581196805853
Au 4.994106961587831 9.129040347501029 9.21309597966181
Au 6.688768110046872 7.821272828953122 10.986591418404469
Au 4.6405076923275566 6.319848050439411 9.987661273316716
Au 1.4013743699260166 7.125894144058357 6.912896898902882
Au 5.992852010975816 10.50671518369008 6.880050257411633
Au 2.5718367150902144 5.17472991361077 8.572031608372114
Au 7.733062225597335 9.25965443845063 8.856727124567138
Au 6.150734236798977 7.788286563688003 6.931946415561022
Au 8.885832937369992 10.45730834189217 6.686027368393583
Au 10.452668003431212 8.69862776550715 8.115631361617947
Au 3.9933183438476645 6.1698270152048575 6.356644665647857
Au 2.2969243844536376 8.149603760327906 4.570933889255581
Au 7.184994760332866 5.2960168985202545 9.937147404643063
Au 4.622410576772488 9.754385184815183 4.533397670432547
Au 9.279313124283004 7.319871926983451 10.372761793479434
Au 1.7903428551940206 5.3026017102541605 4.864079234321038
Au 11.851355576182272 6.826700029720179 9.568329143793061
Au 3.1574018854511565 3.4461484878835034 6.491023294493441
Au 5.1241505571944055 3.989398842983617 8.542516308440344
Au 9.8555251161419 4.699489658779899 9.48163187881356
Au 5.617576813451668 6.930929050017117 4.316955903437913
Au 12.402476381461632 4.294584843093687 8.569672418419728
Au 7.4155989659171775 9.534640928839876 4.589016647154876
Au 3.294029781828135 8.880681541089565 2.1542448497247606
Au 8.482310898890061 6.508603827137284 7.680262049758759
Au 7.826340518138348 3.367334281046767 8.026780160088187
Au 9.607261869231426 8.044949947171277 5.489158034964784
Au 6.604472647208193 5.1417205875521335 6.1894775845285555
Au 5.702496043389398 2.4780101274605566 6.284554602781732
Au 6.084135587824763 8.806934632914372 2.2929325989211256
Au 3.3072647163674356 6.214473824999534 2.7508168010949037
Au 4.410407817121324 4.087929355019228 4.038934511767749
Au 8.215458126075443 7.166654403363874 3.2306828776478076
Au 11.231483246162753 6.229659735404576 6.9206946805668155
Au 5.91318464107192 6.109510226797834 1.6569240004584858
Au 10.404017391991085 3.4826466867679207 6.902470715394971
Au 9.452841113480545 5.343863433740563 4.968418816425028
Au 8.324984428405562 2.7836119199246183 5.308299655869107
Au 6.1823369675079185 2.04946729226295 3.603427537057047
Au 7.3566601007686145 4.515399824555247 3.3337304665047487
