43
Energy = -114.05045504 eV
Au 11.284695597330414 5.8271173743303395 2.7552337806864413
Au 7.333684366894011 9.63769929062721 2.6097641630428554
Au 8.702775932198897 5.025455821376905 2.2993437450394336
Au 3.5202015293525144 3.698631366458763 1.657998611612036
Au 9.292968283082532 7.752738033439742 2.6095840521367615
Au 6.146517652242461 4.311955147787463 1.9132916597906742
Au 6.66424037203984 6.986613361909217 2.159450394993961
Au 6.270811832720971 10.45729333714502 5.03678452143382
Au 4.889337327435057 8.650754764709651 3.3913611446771803
Au 9.92525338207747 4.705964389974003 4.860636739542085
Au 4.065042076525837 6.13520823394724 2.76098420826268
Au 8.754695979136992 9.329331945528889 4.945714126733592
Au 4.601258763971005 3.315435849767601 4.11042429668396
Au 7.348077302784245 3.808491566806635 4.408378692578427
Au 10.736397265413473 7.387253935909542 4.974096327640947
Au 3.4645504534918463 10.35003993774503 5.039222660568989
Au 2.7398863062456296 7.702070879284924 4.759481079771199
Au 10.146699755298538 6.022646809635536 7.315838305772512
Au 8.378822288206932 3.962268653271211 6.9536160199451515
Au 4.917025771459388 10.996152261794256 7.327360627902737
Au 5.297757726417625 5.852803835706127 5.345499415599289
Au 10.099945866872314 8.801166840128415 7.203602382972993
Au 7.629692897341602 10.1999792861138 7.598422985714066
Au 2.523925437647039 4.926377490745791 4.879704276873923
Au 1.8305187915550383 6.5030234732711305 7.036061649824511
Au 5.74908759937987 2.996878539614077 6.525789678990323
Au 6.6408891838874045 7.931253930941199 6.352808635151542
Au 3.0738530473624217 8.905279202583806 7.360973137803522
Au 9.79268256471509 10.364509287853114 9.395362550628157
Au 8.67229908039596 5.160041078643847 9.487706323308338
Au 6.244677603834338 5.754294313736588 7.917826750554622
Au 10.01251020681258 7.542328406922496 9.639093723371827
Au 3.4526700471790472 4.32000716668019 7.452512496267805
Au 6.919317041609524 3.0587179457532727 9.068407519040141
Au 3.639764954634909 6.780897816423734 9.027445688147267
Au 4.349020919482299 2.0108798186703427 8.716471240038963
Au 5.28963864268034 8.972641698616286 9.039374262352691
Au 7.6821414045393555 8.90820732811472 10.26572721576399
Au 8.499960830587462 6.689920051674286 11.82356373424235
Au 4.554210244018579 4.46995739348149 10.088165997495635
Au 5.981681448146848 6.812895546372029 10.584304401212714
Au 6.985265466596919 4.410772877272873 11.635229043536716
Au 5.485547714462991 2.1540446672998352 11.257382690361434
