47
Energy = -125.17487533 eV
Au 9.784820643833653 11.12828523243966 9.342251712223826
Au 8.919911916829811 8.976571629532778 10.770259324084792
Au 7.066115068320498 10.683510525795205 9.536757730665986
Au 11.175751952664637 8.622307737680702 8.96700404279717
Au 8.127640491718811 6.582503427642943 11.915873464143989
Au 10.722795821137458 6.798230418023328 10.960167773907612
Au 6.206899381952754 8.519095309034434 11.024185201159774
Au 10.954279354933592 10.45080068595399 6.9426682135316495
Au 8.276206342513268 11.51675884718377 7.030031901493085
Au 4.500603993364274 9.63588002260725 9.003108556224893
Au 8.449909513445215 8.80747405974243 7.656974914400924
Au 8.657010839545457 6.547061183165073 9.098241722699143
Au 5.5421050832190835 11.586819101299973 7.3945101951107475
Au 5.865922117084092 7.970078854553389 6.997682660326855
Au 7.739717558299853 4.243063526367203 10.465619345154833
Au 11.360569297872349 5.88568608173874 8.321203126464564
Au 5.557539037522568 5.792562609988481 11.310824084738694
Au 10.950803534122747 7.735816105375032 6.281944580773366
Au 3.6681445529917838 7.560533286927633 10.499568184398527
Au 9.228587597338807 9.682348907024073 4.991053617295028
Au 9.442069735824086 3.913375514673832 8.244020810280029
Au 6.518888953968386 10.36661638469492 5.1502121150349724
Au 3.8922517708725533 9.697271403975959 6.194653918969167
Au 3.118980986568517 7.444002919484181 7.79141146547522
Au 7.880957121534048 6.270476573946883 6.377856817116735
Au 3.52255080692674 5.07483790468736 9.344023688317918
Au 9.540750356385207 7.092979491957406 4.003334860048714
Au 6.092071367302723 5.662748093746869 8.550656040816971
Au 7.482480912650415 8.802377924096055 3.0936635050103645
Au 10.229057963387008 5.030072696861658 5.804498618743588
Au 4.693073476754436 9.020677778439193 3.594266776872271
Au 6.925932911428894 2.729188193711974 8.364773586399792
Au 5.778742849634432 6.6058416001029965 4.507582902624362
Au 2.987560784043273 7.2286720725322775 5.069590258674519
Au 4.181720982005716 2.831405944191874 7.989166289989997
Au 5.6861868693027855 4.420627054603963 6.126697096536118
Au 2.835239155982867 4.914147317371904 6.60446251572874
Au 8.113726142399686 6.5189207085933285 1.6845261151894022
Au 5.71629258858694 7.788511650904791 1.2384576871206971
Au 8.039704215525619 4.75477840111198 3.785691719699626
Au 8.227495455818952 3.0148383190382977 5.8925232661511595
Au 3.404531275159675 6.886909383599745 2.318292152597853
Au 5.926381656110072 1.4568073481269088 6.126162170774707
Au 3.4407367281412222 4.705155781885885 3.886831568181844
Au 3.4678411292892894 2.4347535657850705 5.324725298556172
Au 5.711629503514322 5.086882293182834 2.100550368776351
Au 5.821162925147725 2.955088849591555 3.7547907576930246
