40
Energy = -105.6777673 eV
Au 8.589304101007835 10.765579621843083 5.308873278775927
Au 6.294825133582631 12.2710038920183 5.609326093866393
Au 7.013830956795379 10.013861971338805 3.193059257952245
Au 9.72728595918109 8.742468786630418 6.738347993138042
Au 9.115861765327658 8.275665734727923 4.064990967146251
Au 4.565581241567671 10.726505713369553 4.202504150183991
Au 7.354013596470752 10.925544816700969 7.769185041799272
Au 6.643437859588872 8.792726620682334 5.881569374521351
Au 7.49674649750816 7.599987364844349 1.8956022857257029
Au 4.613478125680891 10.495280704799475 7.015222946904736
Au 10.148050196604228 6.634404635420272 8.504234183855594
Au 9.076564399722777 5.659587264481187 3.0916282361810734
Au 9.924960903043488 6.1337632417089365 5.738794783228874
Au 5.036304100321798 8.08275752026846 3.1999547326914457
Au 8.579592598810349 8.942222477690255 9.21090421573005
Au 3.319904333301761 8.579909378183283 5.34103106749646
Au 5.7642435553507285 9.276626518229932 9.286223600887183
Au 7.527236853540447 3.3779688000168147 2.494756541517223
Au 7.005519997687049 6.2265990957080435 4.861919264494031
Au 7.507232855596949 6.728631859295985 7.718815236747456
Au 4.991825399916491 6.668956530735606 6.6992194325863474
Au 7.048423447715573 7.224591704525462 10.653472054439742
Au 5.791782920049558 5.511150814988994 2.4155341988489156
Au 4.335770300523511 7.191624688933037 10.441324424343517
Au 3.31331394891881 8.345863114694357 8.168659776843263
Au 8.763300767946287 3.649090582691387 4.925543569090836
Au 3.7131520429918803 5.8770811570974235 4.207109378529676
Au 9.299305634395811 4.097228790719888 7.603461695158573
Au 8.59677867975855 5.035622346841565 10.117652254134045
Au 2.1775006862163595 6.344732228146291 6.490629719268027
Au 6.440298977661142 4.269429574947811 6.814355227678192
Au 5.803471035410106 4.813002151054411 10.15968458356113
Au 3.4673544832415666 5.284307963911356 8.701741741467663
Au 5.342761403166523 3.4544626560863105 4.175746306241133
Au 3.531674560438372 3.9198434697786446 6.230953459141179
Au 7.786013337627338 1.8622370813843208 6.6985902689601735
Au 7.423295518933217 2.677802593401333 9.362763173004891
Au 4.649613799412864 2.7895860062518856 8.62530186253902
Au 5.03319549487721 1.5745406282616032 6.118619303349994
Au 6.127101979055773 0.43478245901103174 8.382190352802724
