45
Energy = -118.07153053 eV
Au 3.844329453452338 7.112362843002978 10.055220930449195
Au 6.191329769053301 6.051527094356176 11.177998402305082
Au 4.0825571298707315 4.447150944859213 10.55400549647611
Au 2.52876026383095 4.9781535927134035 8.194991315071661
Au 5.946554980225576 8.967705191219897 10.763174806542683
Au 4.211043457277479 2.670079340192648 8.486824341518368
Au 6.642736703453275 3.7685575697952376 9.513479601445622
Au 2.485089988102755 7.744716916220056 7.711729096387647
Au 3.6291761032598138 9.715027897040947 9.293460096240496
Au 8.357542058329699 7.70161530159021 11.532302937851599
Au 3.9885270073322654 3.6072217686812786 5.9194378901463685
Au 5.186635937199805 8.426678301215695 7.220185913480806
Au 2.579289257107697 5.993977546625938 5.585023590700304
Au 5.301479029994828 6.614246848756585 5.131158531576823
Au 5.204177519188443 5.608649716041414 7.82104944380857
Au 8.966041331390446 3.633407537116687 7.944180493876516
Au 3.3046251317882667 8.685347487313368 5.132429064000578
Au 8.865059758721273 5.368148486789109 10.107032808665354
Au 6.42472193550424 2.5834114926033642 6.923903631630213
Au 8.511515166799938 9.74554502938706 9.68231149411339
Au 6.1106638129570445 10.838365427943504 8.703854331713998
Au 3.930289093482777 10.907899042472188 6.772836394477882
Au 7.144770207083779 7.317206203127684 8.821281689808023
Au 3.8660392604005636 4.781192380487031 3.444062783087968
Au 4.14937901332731 7.461946468923152 2.708943211733549
Au 6.261951466228294 3.4828941360019297 4.172376127670126
Au 10.490221686949274 7.64180388638999 9.767532352746356
Au 11.222357749161532 5.287200081636941 8.497587444828978
Au 8.692428154235904 2.6272440731550746 5.322061108314885
Au 7.799731333580394 9.17770200794198 6.731188888435046
Au 7.3994971348757215 5.139699588754732 6.155512666240921
Au 8.768498263685286 11.637635172234761 7.700820417239298
Au 7.91030894245926 7.354848024483859 4.556046367903825
Au 10.549704214382514 4.670955355101845 5.8412745626455
Au 6.5051237862775135 11.548182772423162 6.051728324940107
Au 10.549581738931483 9.472915653336363 7.718092700775575
Au 9.260661684663582 6.872052304528439 7.156548633417883
Au 6.382200228854776 5.728067275188717 2.5043402636952523
Au 8.763735923273217 4.701867214903812 3.511216400985242
Au 11.883602945967764 7.22274298324462 6.444075741899371
Au 10.196066741257534 8.962958542637411 5.016914330815353
Au 7.790562921608628 10.073677914480344 4.060555652210756
Au 10.871583324584082 6.522738239487854 3.858459156826627
Au 8.963069423953213 7.033762482561933 1.9704386249978365
Au 6.626373081779411 8.45050597887426 2.101946052145113
