43
Energy = -113.90150439 eV
Au 5.894807619965962 10.902982352508038 5.5345096322861345
Au 3.4983850763953526 9.835434085641907 4.362161774376525
Au 5.95142893130872 9.205504405016915 3.297199260144406
Au 3.9457004906210194 7.174843867657871 3.6860598118543737
Au 8.328637577571756 10.076120697398421 4.499200885289129
Au 8.397856685572323 8.449932315360048 2.2985339137462337
Au 2.7367152304115474 7.876606842298511 6.234060065796014
Au 6.281597191806956 6.635756994633945 2.235250465506333
Au 3.559794652134311 10.379545176373792 7.077659963138099
Au 5.7065350149627685 10.36962686534577 8.743818379582112
Au 8.051158413740527 10.690617836424975 7.289709735304406
Au 2.1819992696483137 5.429107903974577 5.153000794191697
Au 5.550312074274195 8.343707504480339 6.509677915186549
Au 10.330712901235175 7.988831453568882 4.185729690071099
Au 4.455840798878819 4.461109390895648 3.9472693450959393
Au 10.508879925962242 9.821694213340864 6.229934326950981
Au 9.208379439668047 5.834558270177609 2.8320452444337683
Au 8.26475418303473 7.926339019620835 6.290948314999479
Au 7.040016897979206 4.143880590631961 3.0770265490704336
Au 6.472524617142935 6.233331088275134 4.941395279683058
Au 2.5542887904989424 5.749830670226884 7.9579524903230885
Au 11.311123083538329 5.484369594599551 4.714939200493361
Au 8.100674196388047 10.564174775829757 10.046024973427016
Au 3.8810704431266845 8.172342255347175 8.847311746084989
Au 9.806148868079637 8.848785238080607 8.740983130639696
Au 3.7541245079411585 3.497695000942535 6.526261411215444
Au 10.918129413185587 7.0991891600696615 6.921968408902504
Au 7.092693802356176 7.258769065221856 8.747552117097039
Au 7.934304629106122 5.240572555057155 7.058695332106658
Au 5.2221043245913625 5.702091495195223 7.417121373302536
Au 9.097170576063474 3.8381542947472567 4.832599958176652
Au 5.925291360399091 8.460428235802892 10.845974978353274
Au 6.319972933494227 3.0883673516778956 5.538507330581001
Au 4.6539347465952305 5.963074911753647 10.236628581840067
Au 8.699723379966738 8.110413952938783 11.175852143968957
Au 3.5633550646862147 3.56785733186895 9.273797799574192
Au 10.543180174039628 4.372492731132259 7.239996738607311
Au 5.914001967346462 2.539897592390584 8.253523531522605
Au 9.629715691313432 6.1064071567842 9.315652298172314
Au 8.132743364221557 3.7872551596126 9.531084593295354
Au 7.328547804857224 5.783350521186678 11.229900327671434
Au 8.474519361502281 2.4511601608374383 7.173838757382115
Au 5.758150220954048 3.5147956116352645 10.929647127122504
