48
Energy = -128.68921785 eV
Au 8.340794710968138 4.217676365851452 2.30785167733206
Au 8.475809377841557 2.8781687155217917 4.671308562550103
Au 8.548044755313972 2.1793427091969755 7.346773322575328
Au 10.682451634074491 4.45397802839962 3.6252262131076045
Au 12.8147613790838 4.974091761327431 5.264241894457139
Au 10.759889082926083 3.4164964325735365 6.279829838661332
Au 9.447134269334327 6.86508860238262 2.4884025699380854
Au 11.74293152340716 7.160988052334579 3.9590257586921034
Au 6.865226767715369 3.534871689444046 9.117478464243119
Au 5.922462053555107 2.7757184479502537 6.39783880966387
Au 6.763711494130919 6.304549760057959 1.645242255757712
Au 5.9987736628162285 3.9236444482466255 3.801774526607827
Au 9.68242949639241 4.386130945806763 8.802074719985345
Au 7.540042691971413 6.264843417681183 4.422150344155247
Au 11.961651478620734 5.636446579305305 7.7688020875838975
Au 7.769279454133528 4.803629915244205 6.764542318557119
Au 9.901209478530484 6.229673587771032 5.884550385651987
Au 4.589631811952599 6.321153855553905 3.464721948527185
Au 3.652568462124335 4.178588273980383 5.31836956240892
Au 4.255994321087809 4.060809574811877 8.20412879649388
Au 7.340469517617274 8.77356533072171 3.0592915210422422
Au 5.214244336646352 4.889963736553454 10.782452766481756
Au 9.586254551650775 8.861174570964002 4.643853100001929
Au 5.011094024759814 8.377301154743177 1.6455828919100592
Au 2.0563890277627115 5.437893377943326 7.17470305414958
Au 2.862634169553936 7.313974277540124 5.34174678724701
Au 5.314021626202691 6.088744304121985 6.222377400527279
Au 7.574184448369442 7.563418037223011 7.022331537285154
Au 4.726715288070202 9.201612967635617 4.250309269110833
Au 7.939187652918222 5.9236570908287165 10.20189932550602
Au 11.599853120018896 8.300938433366063 6.536017551909781
Au 9.993102725399865 7.249545439151106 8.783078238562169
Au 4.9872206820186005 8.705985183227037 6.996454554619437
Au 7.285244374006114 10.175951625083533 5.429831222981517
Au 9.315318333542898 9.666034416437906 7.405050931753305
Au 2.7881011691954862 5.997468506110771 9.734612553894518
Au 2.580611575203198 9.976620050214823 6.072714652216141
Au 5.5420666355450106 6.868267053234323 8.887355387066886
Au 2.1572191499664295 8.082649501879187 8.024362905755403
Au 7.946561737897526 8.80123283887672 9.753657311009468
Au 4.953653754650142 11.442745315786295 6.184231353061974
Au 3.6455150468456385 6.668907001085631 12.214228312144526
Au 6.787330476353249 10.719227862003207 8.14496830351719
Au 6.220539615990631 7.585733703813963 11.543053320819341
Au 3.7003830822696897 10.622953187194005 8.579290943500387
Au 3.1186585500244632 8.776460875494758 10.473766820013847
Au 5.640932151999641 10.20168012140646 10.558555661297882
Au 4.455806302576319 9.218513906953143 12.857999298700816
