40
Energy = -105.88102955 eV
Au 10.607856550330695 5.945572446289684 3.643123756745185
Au 9.41624473747701 3.6342350635726866 4.563783220767574
Au 10.771966899165351 7.937005873558693 5.530275459040616
Au 10.67469971968154 5.370940050164983 6.427995500103129
Au 10.011609703005986 2.8225000686156467 7.34984575635297
Au 8.085168224522707 1.5407440697216495 5.820642746852812
Au 8.815029237745259 8.136423207780188 3.4752385313579626
Au 9.80930914851907 5.049189506169392 9.019194665003079
Au 7.931915493604996 5.498506629514279 3.0531295017059397
Au 9.833195733022295 7.666405251295941 8.144291724573597
Au 6.77591349544653 3.0364879745740816 3.937022964575881
Au 7.824175668499497 4.439250775284226 6.859354889721467
Au 8.001929839783518 7.048065816929055 5.922911013577055
Au 8.863516605056676 9.699469184140234 6.340120678737403
Au 8.096801837828306 6.8813248463628955 10.195825522142757
Au 7.447608962974897 2.091131310907629 8.453850592328001
Au 5.502667596242344 2.489607341323117 6.516151308758303
Au 6.878332191547723 9.808705877983103 4.369630936748608
Au 5.545452207564877 5.695977163482042 10.87164943677719
Au 6.286878640227083 6.414576458343999 8.042820310659119
Au 7.642063783047884 4.059229474769101 10.33824049080028
Au 7.806663924676172 9.378425353514853 8.934165240242024
Au 5.996421290768486 7.5315481353762745 3.1162616561426937
Au 5.559747366672889 8.277037291518589 10.078596109827439
Au 5.774512426544459 5.48417985806616 5.330701404777488
Au 5.254927482287996 4.9513351840928355 2.5326090151097054
Au 5.177516937316877 3.7929336900946264 8.927125698344417
Au 4.011128763661168 3.2320340779286365 4.382186683395281
Au 4.51075022259865 10.925586756943591 5.0385875187408935
Au 5.3726865442573395 8.219884072602373 6.184876508994024
Au 6.466311799149113 10.867247560480653 6.9854497780629945
Au 3.652138982133687 6.351539818966013 8.922623310641896
Au 3.5706516780424256 8.545726828633597 4.038308539293277
Au 3.485370004054863 4.542726945077103 6.828912156513456
Au 5.448063164797385 10.932167238771566 9.523948308939703
Au 2.637672091372394 7.24888183512751 6.498476587216701
Au 3.2073876073168623 5.859155389632463 4.210965309087659
Au 3.821845693425324 11.809995902229172 7.505267116451445
Au 3.590122983414913 9.119561558609394 8.333230925266419
Au 2.136001786418839 9.966941135756272 6.0548661498271885
