46
Energy = -121.3723087 eV
Au 10.80617560955772 11.532342953562873 6.149420626649626
Au 9.193369903187305 10.251504968401074 4.291363344623055
Au 10.231052408710683 7.729296595140168 3.307111362801314
Au 7.474201560402555 8.678566489043835 2.9417021965520402
Au 11.176250786293183 8.872597783485787 5.686594282930187
Au 6.447748393463041 10.403416429188656 4.815298017875869
Au 8.257281783133827 10.93019894939147 6.889265378199691
Au 8.418641885222582 6.213420898498585 1.9596491212205294
Au 5.7178095821100205 6.994279519679182 1.7038555603366885
Au 11.636699615650445 6.209464619145798 5.361852738750489
Au 4.709509289806928 8.322033165691465 3.9588885546764168
Au 10.307202209107713 9.693497252773815 8.278489206632388
Au 8.7071741196159 7.4245812373273425 5.623295706446657
Au 3.7859538057340467 10.45834283152426 5.535038230507589
Au 5.686365633186761 10.61121950767137 7.577174008646243
Au 9.594544486827095 4.906718114820503 4.103857673756459
Au 6.505513922044798 6.122746557591217 4.298324347893239
Au 10.822675291741533 7.07603540660557 7.856067435398914
Au 7.329123334552857 3.8019290609189165 2.9268041965913567
Au 6.143544489288238 7.960074024048653 6.490769688528347
Au 4.743771102905969 4.530550058710776 2.2863828028192636
Au 7.725329750760401 9.272484351179116 9.068488896144522
Au 3.530473244124519 5.80282291843201 4.50058155477708
Au 3.071168675663119 9.870025226415459 8.158340931954934
Au 4.449085695356188 5.533106547287194 7.214852578417146
Au 9.981199505848185 4.517027851906404 6.868176502729229
Au 2.7403131914008765 3.2867964771395397 3.612402996547173
Au 3.1983408906324233 7.839096172183144 6.296076891495887
Au 8.927082675806918 6.831430025788775 9.824042233654477
Au 7.965185760959435 3.1763189363436712 5.564245897004365
Au 10.836742048432155 4.875003701502334 9.461975197236537
Au 5.272915411207805 3.364424571323241 4.875950099326193
Au 7.011827614385953 7.9677693214691985 11.439056473847835
Au 7.25748133919019 5.451173856982202 6.931017615666813
Au 5.036670229545175 9.342182695564558 9.988843055158993
Au 2.8433773598583056 3.413944809895528 6.300818694348056
Au 6.101814558709087 6.810227791261174 9.049943227500917
Au 3.1209592425558723 7.31188030936642 9.155562174760133
Au 8.218140456617713 4.025541553371535 9.127524030090132
Au 6.8869789967789545 5.2157165215870505 11.279608944581335
Au 6.056169381729076 2.953503707523765 7.540305952484995
Au 3.6550142576613016 2.655855511704819 8.834462742568164
Au 1.9907612562782186 4.897267636201204 8.452974114676866
Au 4.365078956253902 7.195585919350606 11.698576569547646
Au 5.949916200531674 2.8325606834154042 10.328720498458816
Au 4.096345991140107 4.906017572229146 10.333639861430044
