49
Energy = -130.61221573 eV
Au 10.990729270255466 5.031880217451499 7.355684593587648
Au 8.655193601075613 6.896122559394937 5.8116842560318265
Au 8.159700973456719 6.477256929159163 11.46672255609325
Au 2.6593877384608677 7.246133617815926 4.967182878446688
Au 9.328866627813456 8.776077493840907 10.437873782576622
Au 10.108391393686661 5.05381449348735 10.0696147426846
Au 7.063311895467751 8.80612102243974 7.215780701018788
Au 7.315554300717175 4.238448641689261 9.955620614042129
Au 5.021564900695173 10.473578042743954 9.099751166590298
Au 11.451998811186686 7.549239594133076 6.274456645457746
Au 3.3620719794283236 5.254471425584363 9.516156266014912
Au 5.101375867906397 3.3712463229806997 8.265821906239582
Au 4.330353723301906 8.637547494755745 6.813957290189651
Au 7.4357768517637535 8.264634549191708 3.335211690282532
Au 11.24631327247083 10.209119746123536 5.5201916287169075
Au 4.158406689831813 5.283518553772863 3.7870365697520216
Au 7.48026105817515 4.8199412967399695 4.326479440356149
Au 4.65871928682943 8.00066217523864 3.054383610391838
Au 8.429936417259535 6.814963586228813 8.651161198391053
Au 10.192900526502365 8.2778021478907 3.8699077095834458
Au 6.305824805472752 6.008435355380995 2.0450636663986104
Au 5.863581986334316 6.744580318687075 5.5234610991168935
Au 3.8066659291012592 8.098665653123643 10.295628585655201
Au 2.1997037945276596 7.225423255280839 8.048079583152019
Au 9.669603428885505 3.1058510658351235 5.742538972164252
Au 9.855696454824253 9.496802634842647 7.77096240750678
Au 11.264147413331866 7.336157527046443 8.990820683340752
Au 7.727557462958075 10.685163756885457 9.265385437456137
Au 3.62464472705816 5.220675064227378 6.679029291626737
Au 2.3556404708860645 9.938298747630476 8.92859226771865
Au 8.51041548439738 10.209135643522286 5.231920962246398
Au 1.6058453217851245 9.402145091053553 6.36480072121722
Au 6.492480242888361 8.631563029030895 10.715493098796085
Au 3.1260342601351496 9.958385978214926 4.166961081904905
Au 9.069324224055224 6.1858835804679995 2.450560722663613
Au 5.4436614929409535 6.121806676164412 11.284190690509723
Au 6.546030739315084 11.533169924517834 6.896583500330502
Au 9.375608218355096 3.0332509997654644 8.417946523783213
Au 5.272062512165403 3.292803169900848 5.491588758606422
Au 10.782349884572339 5.444747836198997 4.587233696160549
Au 5.815976898207529 10.106820448790083 4.6309016487887105
Au 3.795864651273883 11.322894508566272 6.611760208173956
Au 5.589211801122487 6.720371005345581 8.436641675385298
Au 7.317017634634926 4.77883713864028 7.129476767013968
Au 9.582991839736286 3.5158927277882785 2.9897073296093555
Au 4.863866952014533 3.4536620848292774 11.000713533384891
Au 5.697533974786983 3.300012517501397 2.6836698611363734
Au 7.538761015470484 1.9768108240295157 4.281778305958691
Au 7.2542571332107775 1.9859331532207212 7.0339959619002785
