49
Energy = -131.56308203 eV
Au 12.050518221559772 8.617109164472966 7.212846795909222
Au 10.572394091602154 7.42286711224066 9.174020255883766
Au 10.69881049194811 6.333870633651194 6.5418899294822
Au 10.337726323356675 8.71947378974418 5.047066440097345
Au 9.421063104019845 9.530455778419318 7.598940130420624
Au 9.790711342168535 4.771439676993302 8.63322981111994
Au 9.218516406857823 4.1064532923873545 5.966410180417918
Au 8.883037135421946 6.160140750719285 10.922451855278494
Au 8.308821397582022 8.791481682629172 10.069823495251407
Au 8.018931892468911 2.650016955661756 8.060796689991227
Au 9.410214134895202 6.218690702938406 4.1083637875089325
Au 8.048330431919647 6.961527096381652 7.768820046873229
Au 8.579692512966231 3.3744103836255865 10.66379540197539
Au 7.684568533817252 9.663599567254376 5.424997056024936
Au 8.592879172138362 8.639375810766827 2.9825096070642045
Au 6.565811120081458 7.504123856872065 11.758553754085536
Au 6.69900177249853 9.78167055233515 7.996418114021656
Au 8.248324095303389 3.857515937988331 3.392736063060037
Au 6.417347297845105 4.79932764366306 7.0319647982403986
Au 6.7215968782035045 4.837997475146355 12.059534172716182
Au 5.702566752116525 9.720551076466592 10.552293113270773
Au 7.238223589135259 2.22888558712942 5.4504089729494885
Au 5.947501787532924 3.5664290411659136 9.7378169061121
Au 7.036838498605449 6.242241205056982 2.449652841240532
Au 5.348720524993809 7.112520530667818 8.1412638166303
Au 6.856514674433473 8.583192131934574 0.8581333838514961
Au 5.1949392596416475 2.264645553444957 7.450347135464301
Au 6.197831690066226 2.167856928242126 2.814857992860115
Au 5.973246656974128 6.155832219586168 12.059534172716182
Au 5.591758709299289 4.558678396167176 4.239334109363835
Au 3.914941986016251 9.50267132283223 8.519851082626433
Au 4.103048207793685 6.372672869871898 5.6611462849682255
Au 5.852551674112692 9.04010484992214 3.369528591321039
Au 4.59173358946425 5.8734054746721105 10.65163823633094
Au 4.907702467548588 9.378019164164451 5.919908722390955
Au 4.862961234389773 4.384889444134098 1.5384601007355991
Au 2.679743176879983 7.052294423644526 9.058711395980783
Au 6.789795092695332 6.958236647155049 5.224967135887964
Au 4.729239667320156 1.1235425868745084 5.049491080283726
Au 4.343543934870085 7.277123959168593 1.7122319084570687
Au 2.296062385240865 8.420785033783513 6.59858290144989
Au 3.451692229881284 2.6045428817302434 3.117532180436614
Au 3.733169752663951 4.520722186349773 8.345388549536528
Au 3.304256673115682 3.5553071522271074 5.743705836818598
Au 3.2040198718877813 8.503980685257234 3.895357104645139
Au 1.6956935209906991 5.60977067335339 6.8323665855244675
Au 2.721469906978902 5.198649274453264 3.311794876396746
Au 0.9625409046201936 6.982589335478428 4.609002145156054
Au 1.6113932467309056 7.2804231046098815 1.9538395085399385
