47
Energy = -125.64729926 eV
Au 9.671962856163995 8.404298967227277 9.897700073565792
Au 7.68309203227416 6.949957456603346 11.1521526540012
Au 9.186187375908913 11.02421557856279 9.171482186264978
Au 5.018992393916347 7.7369120830479075 10.667611785334069
Au 9.868102950687529 5.632023696907952 9.86177303557878
Au 7.123066166060731 9.491849346626132 10.215956931944996
Au 7.9110603002489475 4.143561395199107 11.07717434953228
Au 4.5241373443461805 10.194194869940997 9.579476865546653
Au 11.681705945498292 7.142267390596472 8.470270621088247
Au 6.649410354403817 11.96869152523685 8.889312972207804
Au 5.482985976778737 5.277391059022977 11.728006387833036
Au 2.917188871453146 8.03546205214269 8.804287828883568
Au 8.14584713343923 7.631794192106953 6.694027686282081
Au 7.2346630989737015 5.878513230691463 8.55243508771059
Au 10.393673226234236 9.345948310378171 7.353189893059551
Au 3.747055725831282 5.514205072724357 9.614246101418251
Au 10.774687480853926 4.80178981941836 7.334722016757728
Au 8.6874524263442 3.3858491667221853 8.553019323203959
Au 5.790238302973458 3.5796447216225373 9.412428026428982
Au 5.651759049944325 8.118483073618023 7.822411119677936
Au 8.004913376080578 10.627663524957182 6.679698068645411
Au 2.544425251151918 10.501257289319389 7.552975770899812
Au 4.002206700115437 12.640744618089952 8.500503465212129
Au 5.233172403332798 10.885151580244312 6.727943467159067
Au 4.010396192636299 3.911254807354473 7.309073600915263
Au 1.2518027679549513 8.303279808955557 6.545025905492916
Au 11.066302301996357 7.156869874660026 5.7966118390822325
Au 6.538420112600665 3.048308451074807 6.814112444686381
Au 9.1706908279557 3.104315485094466 5.866668327153451
Au 6.453971625970576 9.264735601799245 4.841594879493251
Au 3.807392611949578 8.835210509311214 5.592777884713554
Au 1.9792925161344173 5.785706579565079 7.543059543974237
Au 11.280622067231251 4.65662772518484 4.633151970941279
Au 6.014181668721474 5.8375105360024575 6.093493461166061
Au 8.52257373138642 5.6178871989015144 4.743589107673734
Au 9.300680742046138 9.101705513811181 4.688244173195788
Au 1.9277379272215074 3.888800621152638 5.510985493621993
Au 4.423780469215162 4.338450911152398 4.3756615571468185
Au 10.480691534888381 7.1066987482118575 3.1205939304099126
Au 6.943054893397746 3.230595434377506 4.1620752416949145
Au 9.435672909120209 3.2191947650951924 3.0865656844752287
Au 5.001569852388224 7.157723643023755 3.7413786296074396
Au 7.636426592157211 7.620131685982062 2.958585948264894
Au 2.6233435317043012 6.476308326037624 4.920942453050625
Au 11.413887519401476 4.735121663420844 1.8807507207828802
Au 6.274542922622907 5.178260235136218 2.3650581434520936
Au 8.810134190311206 5.551097017743273 1.5470850449088496
