48
Energy = -128.15560884 eV
Au 7.184061056308836 4.560954832625559 11.230753428609544
Au 8.786459899466504 3.4031758713246347 9.352157219397522
Au 4.683192263102193 5.0776146841980765 10.264048479901446
Au 2.45446604639457 5.577104776933561 8.636585603437322
Au 3.3479555422947356 2.9449001253667926 8.953881453942477
Au 6.083423254417634 2.7866148367529333 9.379249024882567
Au 7.737062575423476 1.864169028154363 7.303204495691095
Au 4.882873861867857 1.7810112604643902 7.079790801203993
Au 9.130121990360786 6.259676305428903 9.980852638270925
Au 6.542407108334794 7.176752662458048 10.544947008604199
Au 3.9091856408832903 7.679152106561247 9.688655510080384
Au 10.135942056731665 3.654469986200201 6.884979756998515
Au 2.7207070017734982 7.002195222066954 6.338371429165785
Au 2.897714618896668 3.9760028134696537 6.380697232943055
Au 8.52133246673128 8.990537978208854 10.02130646630519
Au 5.936252458021335 9.855138522367655 9.788790898458602
Au 3.874096277200143 2.252289787195444 4.4614153986289375
Au 5.038910963278163 5.574781443755083 7.4962278138728555
Au 8.644115204813732 2.8594610065324626 4.778303007046416
Au 6.462001868110106 1.0896344763551353 5.0129537969083255
Au 5.7841363531426815 4.06347639415354 5.184838041177645
Au 11.24791322635189 4.671949395308693 9.1995436876791
Au 3.2887261990886825 10.27620970692817 9.104178896761388
Au 7.581511437766653 4.709692732728504 7.116653958424778
Au 7.075035412803747 2.1185228943288426 2.5994421304479416
Au 3.5020288523991296 5.524084870805041 4.125541603853285
Au 5.2844511852159926 8.387736483533901 7.354832930461056
Au 10.209871232222808 9.189114852781646 7.889289223646205
Au 10.537479367131064 6.492073426663878 7.305688419784069
Au 3.1036438760810845 9.767480165507951 6.402575805354129
Au 4.999652953585736 3.9297051323428134 2.4457712597013104
Au 7.869596501691714 7.4820368871755925 7.727433254048564
Au 9.679340006728129 5.514006790549938 4.8005591474277525
Au 6.554994904578607 6.731869844710701 5.349354983236
Au 4.053714057885285 8.273288348338916 4.263016694435636
Au 7.719184501063925 4.770036444064968 2.927296361180747
Au 5.244960882740433 11.413920065224621 7.552471446479026
Au 7.997377970340004 11.026480147245557 8.231014367437094
Au 10.101361532317254 8.250578390761197 5.216607616588647
Au 7.279628873055281 9.37888312613331 5.742008523519538
Au 8.368456747070866 7.404865202138928 3.1883108112715615
Au 4.916215531191579 10.94304634225116 4.7554619815527674
Au 5.647810151253141 6.635855375594281 2.656418382006254
Au 6.259967451308014 9.29714690354042 2.842733937472887
Au 7.178290568673246 12.250377725317415 5.816802277889369
Au 8.927535240801765 10.103199665500863 3.5617437292606313
Au 6.931015532545642 11.93548376101115 3.0849746221717735
Au 9.691006045814925 11.05311790004596 5.99699390808566
