42
Energy = -111.02575237 eV
Au 3.5586160872469135 3.1414345683118903 5.44473950866663
Au 2.417924738423224 4.627605743160011 7.417077354194168
Au 1.7332105767783061 6.825405504196722 8.925495609830884
Au 3.1457392388450867 5.8995885949662625 5.0158665909609805
Au 4.639246502937248 7.438010287517698 3.1320761973964277
Au 4.981792128253304 3.3838955431488116 7.819998173630045
Au 3.9125684400288145 5.196215696049961 9.663807378828771
Au 6.334597250220351 2.8982320024092916 5.44017276409105
Au 2.604714245402234 9.31635817090941 7.977100851805466
Au 5.026906451966767 4.522648913301719 3.552013143902185
Au 7.558196415657203 3.4634368380362517 3.0338685902420246
Au 6.50908124302192 4.158252992716514 10.102569595874995
Au 6.046647482345912 6.762698454924603 5.31588832908716
Au 3.493373515424201 8.672012645385662 5.287104344466354
Au 7.812009894709157 3.203001463683479 7.778317606881805
Au 3.749312092920688 8.032995222048491 10.349516444065475
Au 7.0164447999141615 6.186255684749775 2.67899920162953
Au 4.135675981244716 7.018553859206036 7.46422557821367
Au 6.541540299696705 8.650623099267637 10.495742092901718
Au 6.215106616210123 9.479365573247783 4.4423023997324815
Au 8.870240429987154 4.088235671097858 5.318389318605293
Au 6.601297636439622 8.513794063869499 7.441382823192002
Au 8.588363439698004 6.957010715698826 6.303316287387856
Au 9.650520354636576 5.1966834615082655 2.75006043487431
Au 4.774087849080074 10.611927487532268 6.672664089887549
Au 6.547040501213322 5.726595685543306 7.817167190796512
Au 7.280643247758415 11.564748628191499 6.130625818517377
Au 5.522973535891876 6.332959015921088 11.575197624557736
Au 8.963136354829379 7.874626195425521 3.382388118674811
Au 10.127040820622796 4.855707329491563 7.632467130317558
Au 4.757943981806992 10.384092762838872 9.388991919911533
Au 8.133834986468399 6.385549963130927 10.807716382719986
Au 9.267268114949045 3.9148543573363073 10.066850769846232
Au 9.094595306244287 8.546879227594568 9.399380995120152
Au 11.653894498326071 7.0841147461103375 2.9132848771766016
Au 9.343383192958154 9.854037944158952 6.935417806155738
Au 7.412791808315829 10.736757714372349 8.784129107061762
Au 10.950526556598826 5.94331365938361 5.241346752715127
Au 10.721030847486523 6.30887273020374 9.873818899744675
Au 8.864558380829298 10.435389990992952 4.251988768725065
Au 11.008916891572504 7.691794916841308 7.552365354840282
Au 11.034407409585254 8.809398775142208 4.9923579993479725
