40
Energy = -105.74961993 eV
Au 10.002560984423162 6.078489384848746 8.336834722073656
Au 8.785772415859974 3.999550128787813 9.607218553855905
Au 11.25433103670903 7.976714472566779 6.912644969545788
Au 7.926767368670903 6.76451808004006 10.123005600723651
Au 9.262175552333332 8.743485535234633 8.751378016758268
Au 9.45480927041143 3.7091140242071736 6.861575861384929
Au 11.518178675334825 5.312876138626708 6.072154624847712
Au 6.3083307345967174 4.546075331187094 10.573864431461525
Au 7.138574608743715 2.56262890489058 7.89476065929261
Au 6.9912568234582455 5.320573900100243 7.8110606643976235
Au 7.815001602992097 7.6112122337863655 6.548629196146379
Au 5.100995679332896 7.0023026336152245 10.450443564537593
Au 12.138499292484855 9.69145577755959 4.9685087949170255
Au 7.404134052159425 3.226431643549746 5.058536304918395
Au 6.4966096108110705 8.994919087390423 9.121589304794227
Au 10.57926216788134 10.669933014464613 7.156754960084928
Au 3.6082011054450844 4.702807357073268 10.977583368403058
Au 9.476713130548774 4.9605784186775805 4.299039547735423
Au 11.01716818262826 7.277138721156563 4.173501767023352
Au 4.527869530723569 3.5991578594877662 8.587582834022072
Au 9.390785464926791 9.454620536801134 4.956884193699655
Au 5.057945962643484 2.3348983163258477 6.200313276411844
Au 7.83125844803648 10.495225481649678 7.0651545467009536
Au 7.174550916991761 5.001843991057557 2.8554181479897416
Au 3.7141810982412906 8.946011883960221 9.146295312974146
Au 6.056397637854099 5.8976003536613515 5.2826545048693285
Au 2.6377313617387586 5.635122373692701 8.632315125666489
Au 4.947788335441589 7.131607737289738 7.430410496569538
Au 8.330458700878347 7.415949236452425 3.5138792643909578
Au 3.4203851919395367 4.512964442048162 6.1681008384812595
Au 6.639437677398481 9.474039390571717 4.635015712048412
Au 5.14877815581071 10.150413419868181 6.9125702916341005
Au 4.831648498095537 3.664624965819472 3.8357809980357556
Au 4.7251795626204185 5.324177491962551 1.6178844259263112
Au 1.121528621657263 7.895416830951339 8.459331573209797
Au 2.4436600003604934 9.671398626098057 6.811022874826168
Au 5.67158666627844 7.602269212843056 2.8434819857057256
Au 2.220965938937099 6.963125154846861 6.1517338589834045
Au 4.014340809650415 8.717496404762981 4.758015092355761
Au 3.3964775716324946 6.133775156893871 3.8748231913674918
