44
Energy = -115.70382909 eV
Au 9.271923811580407 12.032775548453694 6.151693964188255
Au 10.494918166442217 9.579788685595773 5.879112780933223
Au 8.371946815498795 10.307563425325172 4.143859978019036
Au 8.910155759277515 10.269238015568098 8.258938005555615
Au 11.340059938968144 8.995125215525853 8.438782786733258
Au 9.204628945125718 6.016923262312046 2.0080109198583513
Au 6.803636146155546 10.874386565743151 6.474221219028606
Au 8.211607780197385 9.04729991075527 10.617234727298056
Au 10.043794000886338 7.755023565054931 3.8915067057598214
Au 7.4079682800231454 8.229900322437073 2.656604987047482
Au 6.153575139168444 10.534020642152692 9.13355154348412
Au 4.595953517274097 9.362492637657464 7.086651213843299
Au 10.658509553436888 6.929596687966979 6.6411492757128086
Au 7.953769243929432 8.108014935532974 5.717804105316428
Au 6.39460877052017 5.934059774920653 1.3719332258010235
Au 5.74521066287863 9.73992955222752 11.760271244577337
Au 4.69899304630173 7.017394880394826 3.162178639153343
Au 4.208475757939773 8.571753333847427 9.826669050388544
Au 9.576182931869582 7.075151174573945 9.272827163753295
Au 7.002705154566459 8.00193546385704 8.295840782817631
Au 7.4610924775218725 5.80364650167986 4.160031039876243
Au 5.51283709486763 9.374565361491301 4.4212213099585185
Au 10.081783132879835 4.597918484522619 8.207425136412533
Au 10.149465286538298 5.053715299999226 4.7007519456473394
Au 6.333473547375542 7.0710550322396495 11.103340807060398
Au 7.820154844714939 5.619773367750516 6.937926836809578
Au 3.035928195253337 8.003255136391918 5.171247980630629
Au 7.754540623782676 3.6262610633268166 2.168873514475788
Au 5.466967359245739 6.776106672180494 5.942071191438257
Au 10.218514788386752 2.734466190405517 6.231090846132347
Au 7.754721246980773 5.0448181818181705 9.790546536041921
Au 2.78807768407357 7.354180861611536 7.848418779635202
Au 7.840915734294018 3.114902313524342 4.875476455599273
Au 5.276265402731158 5.872934119648586 8.545147699077232
Au 5.353279473030365 4.1154624644594975 3.412815861747059
Au 3.08701609820638 6.087168641632451 10.266975601420041
Au 5.378113450848155 4.539890368787457 11.16248509386556
Au 3.344685033140926 5.086985167649737 4.917653566298624
Au 7.790321955159942 2.8966860479122363 7.665681902718042
Au 5.402518349319826 3.6424726684038133 6.1307751602570475
Au 1.1549024027424322 5.95587021923676 6.220714513833838
Au 3.0001852969080134 4.348741349352209 7.6114763212154175
Au 5.319633082683563 3.0340172686956906 8.762678888421393
Au 3.0503446650741903 3.3410479785805793 10.278785364339555
