44
Energy = -116.25004326 eV
Au 8.592408323550723 6.707424748208163 12.003668919309922
Au 5.8208836286484615 7.101999283344359 11.594280225259986
Au 7.174064485595991 4.777411519222749 10.540862363327014
Au 7.737289868200819 9.251205856623043 11.443593456802148
Au 3.329465888454277 7.709216471694755 10.695802182130343
Au 5.396381149607792 9.530953438593293 10.079404690301947
Au 9.968542055206955 5.400164964970486 10.055444736356929
Au 10.044253540783343 8.212852925245025 10.158909541720048
Au 4.700939058133128 5.592763999646044 9.518126010619598
Au 7.380061008338256 7.319522129602041 9.239817492929877
Au 3.0924564136561603 9.351524421002953 8.479206123552514
Au 8.785253243952901 3.0694868097449195 9.220177860716113
Au 7.904128753555882 10.134622576145473 8.817109362368672
Au 6.140257409348097 3.373179074592823 8.271189508972716
Au 2.2082126219027036 6.616177119039305 8.458041450097584
Au 11.537852852617402 6.84736601332199 8.254988703381354
Au 5.455162499191125 10.693846484602856 7.605695902436515
Au 3.8223881551823964 4.649678349551346 7.049507052171934
Au 10.600471143206933 4.298025997625893 7.485667206421266
Au 6.364289199995728 5.822375703761291 7.11544084573006
Au 9.005977879184137 6.669357245041095 7.032197708597545
Au 8.394182665767321 2.8301634744615325 6.5451734282978515
Au 1.7767156110913074 6.140173153656632 5.80194089796703
Au 4.1507692812088655 7.548764952739314 6.6620400408326
Au 7.962898020082694 5.3329935404908015 4.763435428513912
Au 11.314531391115892 6.309210222293075 5.532350466134013
Au 6.857795049573012 8.478190427491121 6.67404398478729
Au 10.311255397929214 9.26843267991644 7.666553028596964
Au 3.382715621994161 10.053169813997318 5.801318974747442
Au 8.486276066609602 10.609559932952733 6.0240371914785555
Au 5.807043245809339 3.453807030007429 5.462280179206088
Au 5.949083990553644 10.53668264202361 4.869983481852057
Au 7.960249384467783 2.6237318541307295 3.8073916952968636
Au 3.119050303844088 7.845373278486578 3.972708991695524
Au 10.390834259966173 8.873037140598031 4.983491580903069
Au 10.280899300681684 3.873476636672675 4.75305436495911
Au 3.6724870649756873 5.000669821800737 4.2139098915930715
Au 5.81680185150664 7.008096329052683 4.536274486151084
Au 9.749860734737045 6.807710997187437 3.285532708559148
Au 8.011208829100642 9.103583268870096 3.6042693166493027
Au 6.103880173551223 4.383981246800746 2.81403247256472
Au 5.287302340427429 9.071943898816698 2.6644218852661314
Au 4.517772095309761 6.4828477078992295 1.978456187645706
Au 7.2875432869821 6.887139963673096 2.116063118696414
