45
Energy = -119.28249994 eV
Au 5.991927667619215 2.4512118159353764 6.911311485985702
Au 8.810699519803265 2.972976485819158 3.4447075063498103
Au 6.145615964076565 2.972387552434306 4.164370153657991
Au 8.621554458578467 2.9115211493647375 6.222366238584309
Au 3.3431992784795477 1.937959473922715 7.520453837864909
Au 9.960724469629069 5.107352292092317 2.090595390883522
Au 3.8214219709428137 3.686410327416222 5.459356606643808
Au 7.205825653926838 5.023253000643817 2.4951844256888975
Au 7.594161424517093 4.006914172292922 8.646178585678847
Au 4.776764957680205 5.480822721956372 3.663344751553922
Au 10.216572368090532 4.885055016084189 4.82995034755359
Au 7.152031854935918 5.1126470327889635 5.669091036623634
Au 2.364092721064837 4.516032661688714 7.690788052190257
Au 9.862820782937538 5.180258527800306 7.515989048500584
Au 4.818282040215526 3.5157782527158883 9.30016684630157
Au 8.603441866315823 7.526295268759313 2.5195439074173467
Au 2.975724885598545 6.381838520187066 5.517450184795306
Au 11.240206246923028 7.139848805125128 3.3490926731699817
Au 5.914138680922787 7.4406564786089975 2.1231491624879695
Au 5.00336035349523 5.614958098280418 7.469327377693149
Au 4.097832946895117 8.460357846313775 3.880765008534604
Au 8.756240371773933 7.346713794683914 5.603004773705927
Au 11.529663023864552 6.99217205044013 6.108256224281319
Au 11.05787329907037 7.509697699544392 8.729493171632896
Au 9.050976292476683 5.944528415918693 10.036033220284478
Au 3.377043822787733 5.9357112097715445 9.85599323958914
Au 1.864723252286706 7.212814607966772 7.908944061354432
Au 12.30962223556806 9.293989858009532 4.621298856213873
Au 6.1154847409087125 5.73603464176504 10.292853157732827
Au 6.853634135549615 9.383689208820666 3.874654832036374
Au 9.587084178298591 9.601750779725258 4.115046422031908
Au 2.373896124150191 9.07849732680574 5.921617500999999
Au 3.5097536857779144 9.471497199770278 8.395265445384627
Au 7.372939137646137 7.030824420969835 8.035061112709386
Au 10.60293254061369 9.58851841600142 6.74648244847869
Au 5.905102945046903 7.513875930752945 5.73553408754629
Au 10.126618769240917 8.27391166506213 11.190628137837967
Au 7.833597458329415 9.994990588357522 6.421955754147155
Au 1.9976256834119275 8.252109696012075 10.472388720591288
Au 7.421434093761348 8.130644636529428 10.856666957021979
Au 4.7524508330035 8.246187786687525 10.572921818703772
Au 5.03110949273934 10.10090242455505 6.146792931391219
Au 8.956881772440925 9.369942773657366 8.890452195465166
Au 6.2176098941185876 9.654286864725336 8.64791902180858
Au 0.5522467592637982 9.689117158014454 12.014497935669414
