44
Energy = -115.47611482 eV
Au 10.878928195234645 8.586381428224412 6.278292469233719
Au 7.891104544477601 8.64432415341416 6.050705635361171
Au 9.338146898843343 10.943344130301995 6.743787302543081
Au 9.361629012206661 9.900003510029396 4.099809588126723
Au 7.721047341563121 7.660435887852574 3.255555995808234
Au 5.315455868158476 8.896461814424915 4.287508695678761
Au 6.928137057512997 11.076496295063997 5.215475114693878
Au 6.365429674941656 6.386609150563592 5.354791098983633
Au 2.4011281037305623 7.057156444196939 3.2574628451721903
Au 3.1401112275710323 4.437742552270508 2.854792815821354
Au 10.577575297518525 7.4750706910355404 3.5872077120587034
Au 5.193680431442054 6.2904302929086615 2.889724233161683
Au 7.316117284760422 4.037982952340602 6.48212479040449
Au 4.980912208960558 3.763192064859449 4.83003642051274
Au 5.952805761057299 1.6135770601974446 6.554053933538373
Au 8.903234394483048 2.482297141623748 4.856237845682151
Au 10.39309671365216 3.888859763833534 6.8514971712732216
Au 8.555534399084712 1.861216304445901 7.616269056241683
Au 9.117340083611474 6.133331388968119 5.520177673409769
Au 10.548567907237187 6.423650569584209 8.133661140990187
Au 7.49347322423976 4.563992590369035 3.5550539687528024
Au 11.876083181898707 6.032422870454593 5.696698333083791
Au 10.465888200039627 4.4714467393601085 3.7945558771458603
Au 4.461091648117205 10.640839237692148 6.444410403999421
Au 2.580980323702795 9.284305861367313 4.931308197727621
Au 0.9879424828618357 7.005563593222856 5.905953351997123
Au 5.087741451742317 5.375534697661792 7.6332262496296
Au 8.751718017628432 4.210892476725786 9.168004200747497
Au 6.196225598382012 2.986760563715198 8.992435778610112
Au 2.5516800734046625 8.523479542245271 7.758252866690239
Au 2.290671568177265 5.678413707806639 7.998051548615631
Au 3.7160013417330906 2.9891580301427423 7.3512621210120495
Au 2.2299983009659554 4.4021320683081475 5.480810856900902
Au 3.6993448370417186 6.780944364791004 5.627321441268963
Au 4.078238034492699 7.160831549627612 9.787486621555955
Au 6.3879343185606485 5.530313367608172 10.357036481195946
Au 3.87096233717681 4.352716205825639 9.89364789495677
Au 6.667630961052788 8.405672032696758 10.0443275469671
Au 5.423515119248186 8.180572657621067 7.360218453238339
Au 7.702817951734522 6.544273246759769 7.921700325320626
Au 8.915478526120786 6.747225309558152 10.403830369390704
Au 9.210411904486525 8.923970577376307 8.659172110451793
Au 4.435358509615479 9.934318118788985 9.258782633186893
Au 6.9002023027177 10.577029612634629 8.11865345273652
