42
Energy = -112.0675175
Au 8.951372190582205 7.925538308323622 13.235706374313622
Au 13.634087809417798 14.65992169167637 9.349753625686382
Au 10.923405606688211 7.03191921697499 9.34959250859255
Au 10.923405606688211 15.553540783025012 13.235867491407454
Au 10.923405606688211 10.907308967292044 6.5055584369826756
Au 10.923405606688211 10.939502246084384 16.079901563017334
Au 12.316899237253889 12.825773050782816 7.840773687083037
Au 10.268560762746109 9.759686949217182 14.744686312916974
Au 12.316899237253889 9.759686949217182 14.744686312916974
Au 10.268560762746109 12.825773050782816 7.840773687083037
Au 10.923405606688211 7.770149922626697 13.323140744576026
Au 10.923405606688211 14.815310077373306 9.262319255423979
Au 13.634087809417798 7.925538308323622 13.235706374313622
Au 8.951372190582205 14.65992169167637 9.349753625686382
Au 12.323967944118294 7.353935644650345 10.924192913630842
Au 10.261492055881714 15.231524355349661 10.922618299745583
Au 10.261492055881714 7.353935644650345 10.924192913630842
Au 12.323967944118294 15.231524355349661 10.922618299745583
Au 14.634292605161718 13.60911785054533 10.917272184157355
Au 7.951167394838282 8.97634214945467 10.929539029219066
Au 15.306189434124562 12.34412149080034 13.228191223559156
Au 7.2792705658754375 10.241338509199664 9.357268776440842
Au 15.489419950335499 10.923405606688211 10.923405606688211
Au 7.096040049664506 10.923405606688211 10.923405606688211
Au 14.643828728858825 12.133626793011215 9.260397825460007
Au 7.941631271141182 10.451833206988786 13.325062174539994
Au 15.306189434124562 10.241338509199664 9.357268776440842
Au 7.2792705658754375 12.34412149080034 13.228191223559156
Au 14.634292605161718 8.97634214945467 10.929539029219066
Au 7.951167394838282 13.60911785054533 10.917272184157355
Au 13.231006263324264 8.485728419745657 9.266168704499
Au 9.354453736675737 14.099731580254348 13.319291295501007
Au 13.181646489916929 10.907308967292046 7.827870829301602
Au 9.40381351008307 11.678151032708117 14.757589170698392
Au 9.40381351008307 10.907308967292046 7.827870829301602
Au 13.181646489916929 11.678151032708117 14.757589170698392
Au 14.643828728858825 10.451833206988786 13.325062174539994
Au 7.941631271141182 12.133626793011215 9.260397825460007
Au 9.354453736675737 8.485728419745657 9.266168704499
Au 13.231006263324264 14.099731580254348 13.319291295501007
Au 10.923405606688211 9.261618567045822 7.827788995801579
Au 10.923405606688211 13.323841432954188 14.757671004198428
