43
Energy = -114.19182121 eV
Au 12.040394318876507 8.690108007846645 4.379941129706724
Au 10.035164548855736 9.547241992039678 6.093827242967274
Au 9.58312948023899 8.319899301199026 8.599761496413386
Au 7.178338429246426 8.72171221113799 9.920770698210085
Au 11.421955271188482 7.166964260061334 6.573637275666971
Au 9.49552943837661 8.855871385678427 3.358680846001338
Au 7.683619141724664 10.111989345941355 7.553906991530047
Au 8.482373858189826 6.2742195867162724 10.258746411594906
Au 7.897610769478253 10.622638033215424 4.792619230598739
Au 10.699472062404203 5.791682201081679 8.757241301406813
Au 5.080160132399777 9.481059927810822 8.213177467927329
Au 10.54777435494769 6.3653063864491335 4.016027155369849
Au 4.724165539043 7.520083878348631 10.096123400482936
Au 5.444246968564488 10.872374143001633 5.947893579773804
Au 8.067432430329344 7.585663538380558 6.226043906201781
Au 10.248849191312893 4.666958334675156 6.276609213481031
Au 6.325108107283869 6.347459794444913 11.898821097399372
Au 6.376507657643661 6.25673230191731 8.117384924835152
Au 8.553918510866719 4.111990278891891 8.432968791158444
Au 5.7895441836173545 11.54238301191132 3.270341219113478
Au 6.855567630722874 9.020493752222666 2.692851639635575
Au 8.99037522927216 4.166319993730264 3.857809574886032
Au 4.352425463018375 9.294480917073198 3.843125240972942
Au 6.335596623887703 4.260039979861574 10.112860739542215
Au 5.343093874667314 7.506173809195247 5.926063158404217
Au 7.970430019254652 6.5328863928295675 2.835946304521282
Au 2.9516965079145536 9.686703829928758 6.2257456979689385
Au 8.470711066064812 2.5948569899508094 6.085827106967339
Au 3.019245729073212 7.569974573879518 7.939510736835599
Au 5.204972324594181 6.758765019131127 3.1252853482251624
Au 6.346978549810427 2.4266904567756495 8.079169583178247
Au 7.025144298531536 5.141989523739854 5.721034923753317
Au 6.348061545769613 4.25692225971517 3.0776899613175552
Au 3.8058911249009384 5.206369202290593 8.994377770553733
Au 2.850919718555137 7.154715499673607 4.6992025989426995
Au 6.936197245093595 0.38594310265386644 6.335003756942554
Au 4.102846432371742 2.569388512987241 9.686165221463632
Au 0.8056192948250795 7.886194226290886 6.345981861331041
Au 4.1245809011856815 4.721546735792049 4.740054932745584
Au 5.747444566834022 2.5695967652287384 5.2275137597093515
Au 1.9559690266889305 5.324549877199841 6.593563570027035
Au 3.7373188319923054 3.174189143424789 6.968470371867154
Au 1.642363876189052 3.5376157914828643 8.700967036175534
