42
Energy = -111.75488797 eV
Au 4.735648331101932 7.604279897357543 2.271933251109909
Au 4.396063120430971 4.910034381704372 2.5955706805514973
Au 7.032590618601545 8.727883528759268 3.1635059146789692
Au 4.430120796768261 9.296912635278451 4.435509449278657
Au 6.3736618964697564 11.270425584698772 4.198663201145896
Au 6.927366908981266 5.9460515466856965 3.16505982458511
Au 3.593639871945449 6.678597762505253 4.6583232189201
Au 6.187851584433252 3.418476097544065 4.088601636335147
Au 3.5284197459884177 3.947006910044037 5.00580946413423
Au 9.064975830954772 7.285989145980755 4.40276533774585
Au 6.5967889956816 8.211742856902148 5.946149395413241
Au 8.78515307478019 10.004355961435971 4.792250441877381
Au 3.628211164063293 8.353094896631582 6.930584219007589
Au 5.226602829134365 10.628214848784797 6.720698301149977
Au 7.713051075415205 11.998707462928811 6.502620102898614
Au 8.622025870479542 4.593068000406375 4.895451631398971
Au 6.026096147186614 5.397100102064737 6.127537666410756
Au 2.9759691117790017 5.659233693795827 7.115948806986147
Au 4.825067311149371 1.6724041069586588 5.770647842594209
Au 2.720739345003215 2.717128849093114 7.3415003875807106
Au 10.798995662806345 5.873732568771528 6.044732952839023
Au 5.254756253097538 3.1920537331169028 8.216744318208887
Au 10.432660483530254 8.650111395972 6.566443154835543
Au 4.7475874123141235 9.524944192229315 9.245681008049196
Au 7.352560601929441 2.6507890673572008 6.5255141771905985
Au 10.47926751049356 11.504796642800494 6.2690679087623415
Au 5.857388892698407 7.009314440609061 8.328765602787138
Au 9.878559249381881 3.392785432730686 7.128014352055229
Au 8.372731342105816 6.6265521521147255 7.289864496837433
Au 3.2951585999337243 7.0789860692186855 9.498154206175187
Au 12.168127035928178 7.095453876199118 8.136571907065807
Au 9.097324017901126 10.53101859904558 8.386908732763066
Au 3.039016796627205 4.330883653772138 9.52037770721443
Au 7.75470831817848 4.081875239199682 8.898572626001272
Au 6.587441549237273 11.56865934393737 8.95074325038883
Au 5.527648939465726 7.6142355411547875 11.129722043027376
Au 10.184955812895758 5.36112645410938 9.167378457428462
Au 12.352518014955729 4.333520015731715 7.808528031074558
Au 7.475784964675384 9.223775003460698 10.133156076562939
Au 9.901135612539427 8.128972615826472 9.356444705139547
Au 5.546224042173712 4.955189432876018 10.388846231922368
Au 7.943899546014361 6.4187724083861495 10.413453118776475
