43
Energy = -113.16213959 eV
Au 10.012747363912535 9.96668861801203 3.259406918898407
Au 10.821729168092102 8.790334659205039 5.573339792859209
Au 8.62580958827586 10.53272286742038 5.8201779231960815
Au 7.429361749397508 10.893339756671118 3.3449720477312654
Au 10.43376635717689 7.1954400944925165 3.3305250202665975
Au 8.063758790888087 7.89091349994159 4.956402811574261
Au 7.901604332223734 8.39522745656469 2.190443569996695
Au 9.60276934025358 9.444363619507772 8.157885488511132
Au 5.841796170878939 10.846481153733247 5.609671963862449
Au 11.837956475604269 7.719105316927858 7.806283973670974
Au 5.488591925043343 8.936442580829699 3.428910050212268
Au 8.69638256633017 5.85492871065662 1.6783153765185392
Au 5.5806787477824225 8.044769889109164 6.293907609567181
Au 8.817357547711179 4.919613286047957 4.243552669206377
Au 3.381351613680142 9.666570852503979 5.008582604839912
Au 11.090946845056061 5.919418522276922 5.659771845023864
Au 6.886660186080523 10.100777454587197 8.09200566294736
Au 6.3147822360042465 6.2335077220569834 3.249194866939567
Au 7.910922719492855 8.883962558741432 10.31769735798208
Au 8.841043921095672 4.5043579785323296 9.563351112010086
Au 9.216162616253584 3.9384976194328023 6.809088884447096
Au 2.396990581985165 3.5113850998301785 8.337202862716405
Au 4.59305270245122 2.5450561927958426 9.611767298670902
Au 3.5477832259800444 5.148702158036179 10.344252376321835
Au 1.5451584321286274 6.050399634762612 8.585416211687587
Au 4.52494686989624 2.712964453449336 6.763230146513798
Au 4.509512150403455 5.593463101892684 7.700696176468437
Au 2.3986432020973028 5.06063645841512 6.004592855218523
Au 6.249726238135863 4.5044638405247746 10.511668070365966
Au 5.379231925116482 7.094374659340252 11.274929837660466
Au 6.916910561718807 3.049676506938479 8.220775420959919
Au 2.4348659500934593 7.85421154065097 6.766152885353761
Au 4.760615651436183 4.454881844936315 4.642525458058994
Au 4.156394776419027 9.939920897320256 7.761556788187709
Au 6.820349405610788 5.599212858727593 6.197020064825328
Au 3.5263284581577623 7.845476083707067 9.391119272673185
Au 7.013222248774511 2.9796110786328427 5.403307851956035
Au 6.509589333479634 7.120732005707362 8.749175758141313
Au 3.7284627344224637 6.963839073838596 4.365040732609953
Au 8.028072959267945 6.358399246140107 11.467467091134788
Au 10.128521909531248 7.1668635642034415 9.936982700199321
Au 11.19023408381964 5.068956120230142 8.34674972282481
Au 8.975697684387052 6.82980070921535 7.355374213735469
