48
Energy = -127.84131268 eV
Au 10.848026204483451 4.082326295575856 7.705814701473145
Au 11.059912163415191 6.299005866031003 5.964021797612606
Au 11.08914072454604 6.634038177752794 8.754080259447285
Au 9.376122267494202 3.973360304829202 5.4030786170708724
Au 8.606148522594696 2.52536337672708 7.8487440012892575
Au 9.424383713181566 4.779435106162523 9.951538085714128
Au 11.13120441533307 8.815102020509384 7.136777970824452
Au 7.173540227250442 3.259719983596425 10.366393462918271
Au 9.543856223174453 6.174311584181387 3.5622122636174613
Au 8.315146531828855 6.553406952513909 6.103162906241646
Au 9.981938565403746 8.670599154328412 4.656826534578692
Au 5.802357058243565 2.2787843728609305 8.053777427810328
Au 6.818410862068321 2.8648775503740156 5.574085237780474
Au 9.421691383963575 9.580609891185869 9.126198558402946
Au 7.818936393102251 6.128810181914764 1.2774612631018614
Au 6.898344989302591 7.684436859803743 4.006848287862548
Au 7.520663828656502 4.281173267805056 3.2776259828726633
Au 8.800093825574134 8.533287192379717 2.1041806862893586
Au 7.08890320882372 4.786042128750348 7.917347992571243
Au 9.091346202365429 10.580133064748567 6.505839338644855
Au 4.706027034870899 2.0574077964545023 10.561413119928824
Au 7.89087464549478 7.227040302963548 8.751776815227124
Au 7.316611461882582 5.875017407751459 11.347816814973772
Au 9.597987393256009 7.457522067949703 10.922851261632522
Au 4.788575028388373 4.732672338270328 11.069446306156799
Au 7.0132665659791895 10.975565093758222 8.492427776227803
Au 5.802239241648995 5.490735959585173 5.430026979358107
Au 7.971319865891501 10.439375389489564 3.8603275670949673
Au 3.471953953771983 3.7241379599617845 8.726283940862277
Au 7.219055778203489 9.061041005824968 10.740443881203692
Au 4.900136937046781 3.4390850894944895 3.423993554777961
Au 6.025063453679442 8.807993863575806 1.6809028556131873
Au 6.84189089220267 8.856144708622915 6.636897564005087
Au 4.487104495333534 7.958444477727088 5.415758910535261
Au 5.080691799903519 7.423943424996383 11.172312178233458
Au 5.281951505031651 5.933923953379871 2.2551456451932945
Au 5.2568114330713 6.860737256624947 7.968070776973836
Au 4.017619541707311 3.3618974169867433 6.073702202573004
Au 6.640748512638952 11.783327944217591 5.830070320647975
Au 3.058879974815651 6.34987394986028 9.62259578744172
Au 3.255006282656139 5.513476521329304 4.131101086319492
Au 5.20750779421734 10.269060052368607 3.9403325781185887
Au 4.8334469603298205 9.42814290383959 9.320719598805438
Au 3.555229570708233 8.118705843617931 2.796847024337733
Au 4.455999179716334 10.446979147773018 6.760216152021531
Au 2.802268392336224 8.356293104990305 7.661910694064588
Au 2.6872440296323816 5.678383970323039 6.9050785760728965
Au 1.8117876322590751 7.660748743096836 4.989622181439006
