43
Energy = -114.09944928 eV
Au 10.982598207223232 7.892393100885759 3.1180652349750675
Au 11.095503636045077 5.746759911295315 4.75377017015637
Au 9.505274788484805 3.800300910943842 5.823405619728561
Au 9.165003341270213 4.631287889686514 3.2108989357713673
Au 10.673588159995724 8.281887415211024 5.806452700470049
Au 8.582141187428917 7.525170464314123 1.9950349144948958
Au 10.03480494728978 6.035670487035919 7.352137432963074
Au 8.13166142006133 1.6613388865111407 6.8618146664154125
Au 8.511919249773701 3.9938958022277307 8.41197257758932
Au 8.469128541474065 5.177678577685119 0.6124077278241217
Au 7.379458862171905 2.636631772588351 4.411540855966735
Au 9.857691034336481 8.604059999690579 8.402915238680492
Au 6.144032291933874 6.702363238387495 1.0968748350041382
Au 8.729502056919525 9.320329122264631 4.004464485942033
Au 6.5567380521329355 4.28041178940537 2.3817148063919293
Au 7.822934384875487 7.663986243695636 6.280075822033713
Au 8.208857704851159 6.589172603143769 9.362491672485486
Au 6.473237382304144 2.2300081301638603 8.972207414173196
Au 6.916500644537895 5.349245391096975 5.186137438438213
Au 5.445929023471547 1.8704558971730754 6.353737692410891
Au 9.020345753955523 10.4735927799026 6.448221627560688
Au 9.362296554291586 11.284305916051599 9.05250551702026
Au 6.230256367875946 8.49195561877196 3.206830498318655
Au 4.685071643913697 6.160117739085763 3.361453930242074
Au 6.204481819234071 4.783545658484718 9.862640688745605
Au 7.839541395909776 9.256477155871186 10.139170529966929
Au 5.761145978130493 6.343892778378754 7.50707669138185
Au 4.704409733148377 3.4595063632456826 4.201099198517908
Au 4.232573630739316 3.605042886202715 8.276017065505865
Au 6.404200346391887 10.031924975798683 5.504452469990879
Au 5.766953553219493 7.536395655885595 10.283244437701192
Au 2.848382501884898 2.815550509618305 6.070176319652862
Au 4.490933933795291 8.070741767333974 5.33226234750106
Au 3.511886113455375 5.487599337273707 5.744096675604671
Au 6.821911014820044 11.033108384206793 8.052551583592775
Au 3.664515396649536 5.905736388262327 9.61611907820848
Au 5.257565773463814 10.302155327248538 10.234336834368877
Au 4.536762994166396 9.694860988246985 7.585926249713633
Au 1.7358400504452645 4.742124172134313 7.793264725707156
Au 2.791143274932235 7.5558672616346145 7.401881511758596
Au 3.1590102862081215 8.657351446379746 9.979169993638953
Au 1.106328596915694 6.987094483384907 9.516830632342286
Au 11.095503636045077 5.40471075998276 8.509257137835375
