45
Energy = -119.24601631 eV
Au 8.759259245262959 10.913378667201005 7.854217962782447
Au 10.984795597694427 9.323471752638165 7.567755384871897
Au 7.606423412921789 10.39213977399616 10.317333304089638
Au 10.949906547203593 7.384476609360316 5.564838267434177
Au 9.61397728988286 8.611967180731462 9.961720014850131
Au 9.257413690574797 9.624398330731278 5.300195520291972
Au 6.155496685974678 11.77271847435919 8.452989171877391
Au 10.91888158196692 6.698598480455144 8.447960812506803
Au 6.676403423242315 10.576191431714156 6.025326829484805
Au 8.33430245396239 8.104504137613217 7.512816862929589
Au 7.113873258606245 9.47494678657636 3.5537707192431367
Au 9.102120237401746 7.468411124706372 3.435459025926397
Au 10.471549851146076 5.117325677846236 3.9377713572308304
Au 9.120229862925054 5.903374623439682 10.49413531843134
Au 8.834958408562118 5.615156765913948 6.351511459449374
Au 5.021607209781124 9.513745004189536 9.749668744620674
Au 7.044279288009831 7.7881989478622 10.855054594118057
Au 11.494004251831406 4.793813312574554 6.481085729416697
Au 4.094629190630444 10.412507978605563 7.238609806737701
Au 10.463684186014147 4.018123133193169 8.895826712520988
Au 8.220079189602101 3.218873791865387 10.20530496006051
Au 6.863532229354326 7.291579009157461 5.23758962982125
Au 4.598390311871698 9.223692611088845 4.682911648501583
Au 6.4679668368875864 5.132814353858758 11.272834567797412
Au 6.55828542066308 7.130742160713683 2.3016383723458094
Au 7.044582119391778 5.874155367635936 8.569918629534891
Au 2.0564130776566545 9.202595877831966 5.799965332883891
Au 5.521943370141062 7.924814885868952 7.489001655359401
Au 2.8456715619409434 8.027731500310736 8.21970521936249
Au 8.359516676451895 4.923121814233124 2.2291446877970045
Au 4.5111959796462795 6.856107493622221 10.120869887246014
Au 8.220485705297243 3.0958196423516324 7.394095743352596
Au 4.505538306720105 6.382562883469032 4.153670960867932
Au 6.134796975545106 4.675122133092364 6.192685011664169
Au 5.731091268436906 3.3306606803668872 8.612525276097898
Au 5.825777879447268 2.366404935597365 11.205830608490755
Au 3.8986298273968694 6.6903486318880105 1.4976527215203685
Au 8.350838668723505 3.4662746228957166 4.652938713057379
Au 3.901961446377869 4.20452381879507 10.514436366935982
Au 2.367539663091319 7.911110327396344 3.394986647403293
Au 5.93886384583079 4.915091852199026 0.8686506710786457
Au 2.2993642045301805 6.4963189928967395 5.9395139981145695
Au 3.690559804446951 5.236388936399504 7.948668245668602
Au 5.911440943645199 4.102036884634237 3.4944145060381833
Au 3.604830328624605 4.100746477590318 5.40510070698641
