44
Energy = -116.6353782 eV
Au 9.703544393873706 2.9928086811207315 6.999428085158834
Au 9.239057696164771 3.990550900581498 4.422326590495761
Au 7.161134410401337 2.8285076174437243 5.983359323891198
Au 4.58141248221761 2.8830716459027212 5.050367348103957
Au 10.194400879422481 6.555063347523027 3.7792956300323315
Au 10.720447513197378 5.515575010311438 6.327169400897363
Au 4.950812708335399 2.7381409888861 7.8323085568821655
Au 8.480572486762595 5.240958196377067 2.0186262978820224
Au 7.582169571461026 3.09532869594221 8.74772748937331
Au 6.5524583475188845 4.00484082768544 3.480226618919874
Au 9.838595839327526 4.913703081979859 8.979736329678975
Au 7.9121562886056775 6.02865227144483 5.785859444623409
Au 4.193537613301128 5.501742422745365 4.083221253932281
Au 2.682030384449049 4.137188334963593 6.522093694763055
Au 11.123856621198842 8.22784325743333 5.783849353097983
Au 6.271006993616412 6.7169213280101845 2.6959764353508207
Au 10.787312843777029 7.410242202400105 8.31745061418271
Au 10.493026150021773 9.495174067311249 3.4086825390699365
Au 5.349641402043605 5.235871155361997 6.577272146444954
Au 5.3509768127894874 4.271493654992693 10.134004687991686
Au 8.65305104480647 8.001141140159598 1.9303282293891353
Au 8.298990439665172 8.536272032533754 4.7781830527520865
Au 7.945682239825721 4.779722796072885 11.021317840024873
Au 7.831147144634855 8.408568504623096 7.496985151662809
Au 5.5543239398698585 7.76267102700815 5.1905778763683825
Au 8.859313040962215 7.328258606298118 10.300715221685786
Au 7.136835285848418 5.884652226599289 8.506775823389507
Au 6.320864813335408 10.514944622257303 5.8068493361623394
Au 9.584400134902117 10.484753945292267 6.390225486308517
Au 2.8208673301550418 3.7292467303649617 9.276403190973628
Au 6.368359725841081 9.497822442121308 3.058755176788222
Au 9.667417389124312 9.777066804964068 9.15114094076469
Au 5.1271121585532 7.684002823917674 8.046326742760616
Au 3.404489893550031 6.2732386192907414 10.234316189429924
Au 8.36586366072471 11.265947362838078 3.980499861844975
Au 2.8717296072181497 6.893929747368717 6.127878564626534
Au 7.000147989475039 9.431960982050388 10.157716274284846
Au 6.068074429327817 6.888220658845035 10.970580203212466
Au 7.628775155436822 11.364385876669035 8.150999678479048
Au 1.3801080944614994 5.858578545934979 8.240987985254733
Au 3.725317022650435 9.531555993452873 6.278798194038345
Au 4.2599228394137985 8.9280326431847 10.523672967291901
Au 5.064636045056291 10.537187087527121 8.437796176929046
Au 2.418857213772366 8.378599169304374 8.537626071901155
