43
Energy = -114.03505053 eV
Au 12.140024148016458 4.788207357527904 4.041263013379169
Au 11.289466983435998 3.7589982002613183 6.441070130557736
Au 10.82248197067048 4.550426240307778 1.7110692347244476
Au 10.856166986254134 6.434235625038644 5.814179048167717
Au 9.491603839430429 4.168601920707237 4.231528315925025
Au 10.068539810237615 6.77636516885858 3.038254481112701
Au 9.972117912243002 5.3381476575673386 8.281219084594682
Au 9.700361453947407 8.069199107727737 7.641101325088587
Au 8.589321108537284 3.230195407583428 6.851857518130433
Au 9.723359241152531 8.73165093250682 4.941140727229358
Au 8.443978537314335 7.022279766104072 9.86797059630667
Au 7.414682701637525 5.912660313534837 3.5201434109541765
Au 7.530605811221436 4.5081259857336295 9.195146319506382
Au 7.754636003951963 5.9855280805946975 6.467136022820771
Au 6.33765228905293 5.962103891838586 11.266447550293075
Au 6.028201863402011 2.6468492317964674 7.892353288817544
Au 6.967752975923615 3.4092910335145734 4.538021582824987
Au 8.481776962940089 9.745704265622361 9.467667947660708
Au 8.368567678746258 10.298880510033019 6.751707655014167
Au 6.877372547032251 1.0402482300129017 5.906965858612504
Au 8.343144964688467 10.911369019397608 4.080765486561109
Au 6.201796987223092 8.609475049538203 10.47116946603372
Au 6.050587898555125 10.347482544457561 8.285096933799593
Au 4.590206920288084 2.5720839323382325 5.459513160196848
Au 4.81517506485674 4.242144295445296 9.712308515525688
Au 5.922074353818096 10.827069036653814 5.552383404237909
Au 6.052529493167927 8.108286674922864 6.41038891839412
Au 5.11491942337125 5.7112920239218985 7.2988925765778605
Au 7.931029122055537 8.48865028048038 2.7667645063429895
Au 4.884174462837043 5.2170882965178835 4.311674358042531
Au 5.368684858527841 7.7482205641549715 3.469267265213435
Au 4.059039153676602 6.893555331353093 10.014700412610702
Au 3.2568678555069037 2.5891680814771436 7.9689288129163165
Au 3.756068841691645 9.581769361812736 9.647505220237143
Au 5.948658506906244 10.466841599795837 2.797205114823595
Au 3.7068706508741687 9.782548345123368 6.868999234825588
Au 2.726280444168026 4.4745820904681235 5.700574136590475
Au 3.6946735609912498 9.769064793388788 4.143701380343234
Au 2.4530289837811807 5.17696659269198 8.61695519168864
Au 3.257689244673486 7.303497420234069 5.429398630711386
Au 2.247325868252853 7.881384646044657 8.093495215405792
Au 0.7328659737701951 3.490439781213535 7.275895735469641
Au 0.8048636209554986 6.206548391480532 6.535400291514999
