44
Energy = -117.56278432 eV
Au 10.857930548534396 8.02081674378216 6.658629776932586
Au 6.85225139507254 8.71475364456701 3.118445320548056
Au 7.728055035283882 2.9578618121990545 7.925835840207697
Au 5.10306115040876 3.6207870614199926 6.942573576494961
Au 9.817119906808454 9.010233945232681 9.061833068742988
Au 2.669501485843093 9.811264755118955 9.73640686038588
Au 8.0092635051263 11.182988493071129 9.07672362515617
Au 8.584727964261674 4.577154583966644 10.064413573040069
Au 3.4421445009202642 6.176612996148006 5.853583411037513
Au 11.308162620449206 5.090396879110433 6.317740280537305
Au 2.484665722872917 8.77470186168785 5.202034626384145
Au 4.930992840379218 9.977625165819067 4.798005924197445
Au 8.74446104256258 6.68784883751167 2.846842665060701
Au 10.04646464883168 4.359799153007588 3.953466367214562
Au 9.293605825243203 7.10546005508594 10.98682545509392
Au 9.489290594338216 8.959290872566429 4.289723210470074
Au 4.0952182375604975 5.397622089182917 11.254573911841447
Au 4.685668014942096 8.24437129573115 10.968480793419022
Au 4.321896076679043 7.54107008113347 3.585354174889026
Au 7.562105428961432 10.945931096002166 4.5785786678169345
Au 3.7876286644412054 5.586769473687188 8.524396757382595
Au 7.559842227351753 4.1028058012544495 2.5286285444096
Au 9.260599163509376 10.364694479212131 6.7231985205347025
Au 2.2221139692499685 7.177297800282858 10.422329330344008
Au 7.297991817169348 8.996159180354175 10.562447039166791
Au 6.656299778709856 6.318306307114104 11.083028542244664
Au 10.679879309033204 6.221642135421912 8.776524059299117
Au 8.939398081496115 1.936186893477609 3.4309225561438788
Au 3.6161837859227823 10.369380291766669 7.222927083274639
Au 6.143041375240578 6.038105475889446 6.514560447537847
Au 5.2123208399840815 4.884342432518153 4.159148944012419
Au 6.155955642279519 6.316630492295251 1.9907969985646734
Au 5.361113214292327 8.148342701588906 8.171361555165001
Au 11.20494741122306 6.837767948246721 4.1552017140134
Au 5.887575197271412 4.074047328211391 9.599664154958058
Au 7.272299215554728 3.357540775438241 5.226191724117386
Au 10.380726645685886 3.5064788831444473 8.365395886701348
Au 7.9127486096480135 6.950723412994432 8.416319818280364
Au 2.3154472483792476 7.89699630911918 7.755292362182797
Au 6.243809407731798 11.130508166386774 6.977877728979686
Au 8.754521485404293 6.179111801059058 5.793362787611166
Au 5.30630135988118 10.654547672821684 9.538912278441066
Au 9.821866196557504 2.4575153671798082 5.981106711896106
Au 7.16630911099962 8.523013750287594 6.045839627364579
