42
Energy = -111.30473422 eV
Au 10.678830202074904 5.10190425525993 3.990298475448029
Au 10.383475799258889 4.061181505419527 6.6475527379043085
Au 11.19939743515404 7.699959700450035 3.629243424649137
Au 11.076962331861534 6.672133534754555 6.2737072116140675
Au 9.674800169274024 2.61561335545419 4.338489590198954
Au 10.404266602029384 8.594500714139105 8.242268549667662
Au 8.572172964855136 1.8961060387679356 6.666870178191472
Au 8.34197308977095 4.373606520549182 2.6385187738788525
Au 11.181232196464368 9.390553609362373 5.723181381046514
Au 7.718704200124815 4.956222574179325 6.305025826976384
Au 8.475779689685352 3.5896116422710067 8.85636921921318
Au 8.810540584068896 8.059863047158693 10.474187064205223
Au 8.521107406730506 7.009464935550811 3.382474119975335
Au 10.114177895458337 5.89080033831428 8.780655637904015
Au 9.226777191573552 10.628630680743235 9.638597024736693
Au 6.856519891529394 2.9427419176669467 4.639168957740672
Au 9.213066837637943 10.848362303420036 6.854398989285242
Au 8.760559476798495 9.635677397228912 4.353031728774487
Au 6.130221926317503 2.7628534592663683 7.501041138510801
Au 8.349365409528742 7.668073483143161 6.240414626594112
Au 8.26133636468978 5.425891520425896 10.920411247187237
Au 6.131164550471657 5.609553444927104 3.807688448348298
Au 7.338164917761078 6.557352660945981 8.546345724272108
Au 7.14116528302757 11.845848166498945 8.325998925472318
Au 5.9841874791084235 7.183649716930667 10.884209603177007
Au 6.618983580341711 10.823549243388408 5.7152783589141185
Au 6.182166992640625 8.928095919142851 7.70573462073168
Au 6.5610744101671 9.85982806001283 10.273620265120782
Au 6.23303980202802 8.407933108947704 4.249825198762416
Au 5.899773194857727 4.398470893656608 9.873841045070712
Au 3.74572126801677 3.7821293337907615 8.256807114432672
Au 4.560393540941088 4.132298548910677 5.587237100527457
Au 5.470737022432877 6.603394631372015 6.5242567778957214
Au 4.58510605174835 11.177683529264154 8.221665707064034
Au 3.718096316623518 6.090887189583283 9.703734738439255
Au 4.033002462345891 8.882886040873512 9.731272659219531
Au 4.137193172984585 9.535097439788823 5.733590186701693
Au 3.7558866359893366 6.979367945953991 4.440942504334405
Au 2.6749533551046687 5.7804498489826885 6.768943185980131
Au 2.177998293470192 10.207850339734188 7.658898384924449
Au 1.881421165256985 7.664461514989553 8.565058828021037
Au 1.686955658819811 8.19391270780511 5.797597537912585
