42
Energy = -111.10165578 eV
Au 3.083872396410188 10.868627367712316 5.843496161327381
Au 3.8408561750192844 8.124059113425435 9.608879204218763
Au 2.25218767901459 8.717902781217733 7.354910902736825
Au 5.091405698437131 5.728845610195265 9.925893907181372
Au 7.076620471815574 4.716962281068223 11.691178349328071
Au 2.7359207564715446 6.0625167298693485 8.22010058985321
Au 1.0070455841199875 6.665517748622701 6.006696569657945
Au 4.010796570827308 3.629632743073329 8.272219472727688
Au 4.439572646233316 10.382565047578693 8.189736812307311
Au 4.467112750881121 10.325909127879507 3.553158445666822
Au 7.118855041235898 10.910007991214703 8.226468808710932
Au 7.790648066464719 6.776946805947107 10.081482959530497
Au 1.9817312090269332 4.15451027492505 6.3694324240033975
Au 6.281442540640431 8.118663084309592 8.290237846060615
Au 4.724425643639946 8.395293721944865 6.002500616631589
Au 2.3743755885519517 8.497332601733225 4.455187387417517
Au 6.514957152612091 3.3261337858862294 9.453072381351204
Au 5.367102362711619 5.806170960436556 6.914161564299522
Au 3.3728047228373192 5.870280536549779 4.676465916815312
Au 4.49414239991904 3.393280001398816 5.487637943262898
Au 8.956068607200757 8.940744449060624 8.728917012868122
Au 8.100150006933998 5.358773843665965 7.363142294590106
Au 5.9819249071429335 11.092082708588759 5.767674044155902
Au 4.995366529540309 7.628747859318203 3.262016065226357
Au 5.886738679323203 1.8171768128961054 7.279326925604965
Au 8.552514129772417 2.5673996767285314 7.681028393869536
Au 8.630948419834775 9.979841467551807 6.109795497545543
Au 7.327569163110192 7.351978656153694 5.687396618092331
Au 9.135052534476342 4.228226375325652 9.902496710916015
Au 5.923043967240709 5.088926759156273 3.822510423656109
Au 10.352435075642513 6.597776941426067 9.001565724520177
Au 7.092560875950315 9.498255471167338 3.808762881529795
Au 7.231015379228643 3.11807946416231 5.267855921661514
Au 10.783005772066412 4.2015892364083545 7.663690160678793
Au 9.596574251792877 8.201820972196664 4.22897692210525
Au 7.616762700137148 7.022674025603819 2.6435116275140604
Au 10.707948334487773 8.219842045868457 6.719125957854286
Au 8.679420902624976 4.732389449612432 3.6701660417523656
Au 12.526691741100208 6.269753435531299 7.332162929809512
Au 10.059703163943578 3.034137634500919 5.295538736385345
Au 10.503857157383829 6.3285812999857125 2.4961061549098598
Au 10.85656817861034 5.764379457326336 5.200500381167929
