48
Energy = -128.07667489 eV
Au 8.700673560946562 9.312216916972597 2.324803238861269
Au 9.549026164257363 6.569723218620499 2.2516867554923357
Au 6.150905546880958 9.466252466563732 1.1149313648146724
Au 10.757851540189982 8.427724490632528 3.9246223838540244
Au 8.947093965765037 10.424158163907078 4.853452607209863
Au 10.227533279942685 4.567563649642075 4.075233115539315
Au 6.38993347731894 10.306433978483074 3.6736707493496628
Au 11.21472366033263 6.517860829219895 6.096167363844717
Au 10.802880160863612 9.266470334373459 6.512697217631782
Au 6.607098083367638 11.227342764187418 6.194911467191546
Au 8.911250833830296 10.917638745471711 7.585013428493594
Au 6.83259158715206 7.227850905304347 2.5030460475125578
Au 6.164000348149822 7.890248060411769 5.283860377623022
Au 7.542193545624574 4.7377352842372 3.3363331906529727
Au 4.331797492434965 8.438852426099897 3.050868160853375
Au 10.89244105847323 5.431537988090373 8.819917644396742
Au 8.645438993126291 6.854731670602597 4.9432178129582045
Au 6.723935584357866 8.834966620366377 7.780748121699733
Au 11.797314037424428 7.965134178373013 8.641811036221858
Au 4.163884003195225 9.987753191737339 5.468925750520475
Au 9.448436228921956 9.17524919318614 9.632768135982758
Au 9.53843366664453 4.2371050210228125 6.703858904806665
Au 6.986434071068454 10.809318958320988 9.615646266226094
Au 4.6418635664414145 10.907539385583245 8.040798930066694
Au 4.920788935491379 5.759500058570296 3.9112730109153753
Au 8.383374073111352 2.522592434844286 4.733559427124883
Au 8.935947709045617 7.17712373463524 7.670381696035804
Au 7.261703490087609 8.606184908760683 11.277538612960987
Au 6.871541474035866 5.44360315112003 6.65210507139228
Au 9.097557757588273 6.570287911611186 10.67041366564601
Au 3.029656386686837 7.422672349057955 5.275612371811863
Au 4.69602216725966 9.017758311979543 10.004253064911374
Au 5.675175548632029 3.33987084304731 4.918758379229826
Au 8.430484624313527 4.23285818650543 9.276277903347856
Au 4.652480099212075 6.87507817488225 7.5419711534550915
Au 6.6175638600170865 6.50829580013607 9.332905843620317
Au 2.743962757903705 8.938331338560728 7.762833429110919
Au 7.333388425173988 2.6525825751400163 7.367919814162824
Au 3.585520815204478 4.666366743144247 6.08085252078283
Au 6.939443462594146 4.910605506017743 11.584521256697812
Au 6.304647142419411 0.804481048012298 5.672283639487229
Au 5.764851012934405 3.3528188599958875 9.531759471968492
Au 5.102147109949635 7.017499837985063 11.831309580123014
Au 4.525564797277165 2.2611987475502926 7.297097714014599
Au 3.086495055213764 6.723271603508076 9.956913731516083
Au 1.8358765914183763 6.272171335427032 7.547680658761983
Au 3.168790801523853 4.15228720920426 8.822324945612214
Au 4.130376353811212 4.505415882043013 11.377131063012756
