42
Energy = -111.26625416 eV
Au 10.450324798270554 2.842259920369819 8.54779719456219
Au 3.566821395357101 6.41177710673238 11.457272041010777
Au 5.880963773421678 5.112504650459193 10.746768376124493
Au 7.920643417021086 9.503705557836915 10.070615434622121
Au 10.448914648461425 5.565067187220756 9.045573733807517
Au 8.341477873632506 6.7535122022939 10.50576104101234
Au 8.070576924736631 4.1166469393650145 9.47039957231258
Au 10.375256440510714 8.241018925297045 9.297416199142907
Au 9.968897000384265 10.824622810604279 8.585439467102805
Au 5.820497726116128 7.968591067281997 10.863670970647538
Au 10.389911636127483 1.9656703567411458 5.9582137886652315
Au 3.3741652235828394 8.382128762673478 9.554922280736745
Au 5.301219210381361 10.43048217671712 9.497821428638758
Au 8.481563427870398 5.218791430579041 6.7837453483888694
Au 5.633851706666639 3.692866611411507 8.021919164167912
Au 7.951495680661788 2.4370148010201804 7.1469963090315005
Au 3.702453151902799 5.529449823477414 8.85383776035377
Au 11.201349383581496 4.602345411347228 6.5322784113263275
Au 7.466405840062043 11.925915332327152 8.77355597177665
Au 8.367666430070688 8.084983987133405 7.3703991128721364
Au 6.443315179542316 6.352239007882021 8.347996850813514
Au 4.236220230487061 5.213692263133137 6.122378546768046
Au 2.7548029689844964 7.367232009911619 7.040348723120831
Au 3.320519791216569 10.22796720125817 7.482309420454019
Au 6.283206329122878 3.57187072983049 5.249721094994057
Au 8.23375340888536 1.78263189503201 4.336102772240669
Au 5.643799582778328 8.73285582286274 7.360872768706875
Au 5.722116412500043 11.515069336892777 6.72354631550377
Au 6.584218609771636 6.912215783110682 5.576204858726114
Au 10.662570556721215 9.212935644761927 6.461649325672794
Au 8.496645346686627 11.075679194817367 6.264031759938447
Au 9.591278011784713 4.225963356358457 4.307207368387778
Au 8.672821030930042 8.90444927816328 4.441755400722205
Au 1.8349506165052272 9.278674811709715 5.343023829861304
Au 10.25954556847453 6.805185699324516 5.215658382243782
Au 7.390449533487759 3.783732494213554 2.6558560226350396
Au 3.664792427350746 7.388585245152569 4.366942448500152
Au 5.414620538843551 5.520915404584055 3.4759952970956816
Au 4.343712168153026 10.06963115270924 4.761416700697579
Au 6.055315709200884 8.397971109397956 3.272363972225256
Au 6.827795490192428 10.928936638083277 4.137372679536858
Au 8.151930226573734 6.42504628693444 3.2756772818649886
