41
Energy = -108.29841309 eV
Au 6.623229731823593 12.01969028344096 3.514836837610408
Au 7.978311367291405 9.708841919766611 4.208507398270861
Au 5.909949200523436 9.699622561904881 2.2147172434873923
Au 7.1091064760593605 11.510419033675683 6.166820893818409
Au 9.396418570093653 7.498991080415721 4.876452614465797
Au 10.872894756532945 7.639949025716325 7.375799073601587
Au 12.20994188153827 5.266461088814066 8.03607030878541
Au 9.10534243845524 9.635798817890613 6.800196554739574
Au 5.001796236337544 10.207798213023867 4.835635932891056
Au 7.403357551639937 7.332454569353002 2.905943669902836
Au 7.340794634897435 10.657132127803589 8.716340866788883
Au 8.104327837926851 5.052976259295329 4.381069250607739
Au 10.402353184163243 6.260426652362963 9.794283295377674
Au 10.209248088871167 5.124427249648998 6.163172953315239
Au 6.158133465108318 7.517328193461309 5.480442702585439
Au 8.1895371599201 6.831905405667667 7.2902250998137434
Au 4.796792672672305 10.448858386427537 7.572936293421554
Au 8.973680197221045 8.641225371093688 9.478301267143838
Au 5.18076351279659 7.331762239906531 1.1324668578030157
Au 9.945105080839758 3.745562078764973 8.679867245974425
Au 8.91469568631309 7.154974723731804 11.842899968598275
Au 5.867241450094342 5.055681770563512 2.7648007796175262
Au 7.233314197660407 6.224252394930259 9.827523626120211
Au 6.013029603581655 8.166056074814891 8.443675454045177
Au 8.173228385049592 3.320253621822035 6.611026816434322
Au 4.033117971454416 7.99747125191032 3.5233281911830505
Au 5.9506701624430605 5.287957043295061 7.16177021350448
Au 3.2255441666040383 5.725329252748364 2.1456729831199786
Au 6.0758474189685066 3.2205873225082864 4.813852885849532
Au 8.76807680014714 4.422702324712059 11.244089851123936
Au 3.5128584736639232 8.289416781651497 6.225158822154275
Au 5.981142583029572 4.300826257062856 11.365552551982292
Au 2.971852288736031 5.878129025978582 4.979259411104368
Au 3.31777723381476 8.468240241320695 8.948208681525072
Au 7.382815912899984 2.985195848792292 9.338023741831007
Au 4.40918810128583 6.284202226666121 10.210401195990368
Au 3.605350207359738 3.5100782136324566 3.664275435754669
Au 4.517652864961779 3.753054643345208 9.076857145709868
Au 3.143461439168883 5.942981034598802 7.748688128137662
Au 5.837017159457699 2.063751587027995 7.325540749292218
Au 3.718669174549561 3.5933228441769405 6.395118464493467
