43
Energy = -114.32083303 eV
Au 9.91616844139659 9.389141212833524 10.678197065964852
Au 9.096826730145262 6.27389976424165 9.090897370873233
Au 7.869057452633881 10.841243919083455 9.64406769527288
Au 9.291850335697914 8.951459775999648 8.050281068584916
Au 7.482888659251455 8.156128939374227 10.373976866885629
Au 9.984601073921171 6.807211661461769 6.436020650348001
Au 10.49183582869 4.400107874899266 7.664278652426813
Au 9.766116665509069 4.240499737834341 4.823094252180439
Au 6.750554714007975 5.516200030735351 10.524210810048936
Au 8.246263695315447 3.6183568131520296 9.150613742870322
Au 11.543915328293707 2.5360465911942174 5.994834636281117
Au 4.84174565264739 7.503636366293711 10.629704877334245
Au 5.37475607677739 9.8158958263268 9.240051289722757
Au 8.943820655981964 2.2134056189099245 6.73989803512706
Au 7.012113192806314 10.50143327286464 7.0571324344337985
Au 5.771574702346115 3.0093978098307974 10.072630970337142
Au 7.63257887598385 5.036690581613398 6.69695698871936
Au 8.57481815367194 8.918311195958486 5.388538185793224
Au 2.167769189936061 6.9465104433822 10.738934088640388
Au 9.520021248891048 6.772398008285266 3.739116337409802
Au 6.7956847175471555 7.593181219819204 7.585852378017316
Au 6.5677373637096395 6.852056102012616 4.818959119099825
Au 6.331434618828278 2.336590034255224 7.4615142092616
Au 6.056065107079884 9.885085311027833 4.56739329601226
Au 4.98093846033273 5.75203970637652 6.836171462730752
Au 3.8116243951724247 3.3931370461104033 8.099219804469806
Au 7.859536374949597 4.702602992865922 2.8716897736545692
Au 4.28484190793742 9.880086677165325 6.7130838767693986
Au 7.769636561428811 8.739505605660609 2.77617244902322
Au 7.10490736677534 2.921919648299035 4.788300628349779
Au 3.9134004351656806 4.899526580909208 10.453484405779484
Au 8.698316565662203 6.661553198273375 1.0881977720924276
Au 5.130312545784163 4.5304744486658155 3.6184374186668076
Au 2.970811572890904 8.536865075016332 8.679464071185512
Au 3.335392865237704 9.579437963945496 4.161195695694756
Au 4.419478885439556 2.7555101373539386 5.523193947775426
Au 2.451140461949338 5.80882501120083 8.122827385621749
Au 2.825970753633077 4.964314973238682 5.382916598151269
Au 2.733445474328411 7.657286135675086 6.05876295568557
Au 4.989737441353162 9.128022124462879 2.0511770686667146
Au 5.993939292948521 6.501110161300674 1.8759135223070775
Au 6.897403190938788 8.569896690102999 0.18848001674220802
Au 3.845478910218743 6.9495096552028714 3.590668068203145
