46
Energy = -121.46324398 eV
Au 7.740842249713718 6.299639667749305 7.755351361289396
Au 10.16307545146544 7.831413651365134 8.004360659654871
Au 10.986268382093442 3.51056564285059 5.626522893177635
Au 8.711736484035145 2.4555540348015836 7.114497633533272
Au 10.163053113128957 4.767850054817016 8.00443746816283
Au 8.63161107366762 4.888692981761718 5.485516036415979
Au 11.263161949797347 6.299598265568291 5.814771078085258
Au 8.71780185740471 2.4533959464742234 4.230634316040647
Au 10.22051344296395 4.930972993528792 3.2409850699387746
Au 10.986337225092258 9.088580212279917 5.626427767200268
Au 8.71175534894836 10.143732641727077 7.114382117302091
Au 8.631650964433094 7.710599544123652 5.48552426564521
Au 10.220504779735196 7.66831510585521 3.2409092158071764
Au 6.299706563433858 10.937224313802817 5.374758333394896
Au 6.299670727057321 8.700654254168176 3.6374387464668145
Au 4.8420886466895485 6.29965306480516 2.828972809544378
Au 3.881482414177782 2.453475329083438 4.230513946719739
Au 6.299676249163168 6.29965828770404 5.208901661337967
Au 6.299676757820184 3.898660315860013 3.6375430262024424
Au 7.7572628489469295 6.29963944604814 2.8290038929272376
Au 6.299619864958608 1.6621494149216716 5.374809470572925
Au 8.717827971178483 10.145822195218857 4.2305680919670365
Au 6.299608198674347 1.728571167272372 8.403523884020492
Au 3.967654407474344 4.888732071630599 5.485513236057842
Au 6.299663055268498 4.007248734960768 6.860366564612829
Au 3.8875099153684185 2.4555608718162523 7.114453308275292
Au 2.3788647643172034 4.931034558315146 3.240862089388115
Au 2.4362158827852 4.767862816452284 8.004401769935237
Au 1.6129049773597497 3.5107002662963165 5.626349557398669
Au 2.3788230123260274 7.6683205200143645 3.2409830645593707
Au 6.2996030528104 6.299647258116671 10.341097458559588
Au 3.8875779120800935 10.1438116724048 7.11446955822
Au 4.860753515229344 8.684030426603751 9.454952447610395
Au 9.116013572484997 6.2997167014383555 10.127324085722544
Au 7.738610126289499 8.684052804457354 9.45491270357924
Au 3.4833278962538117 6.299687107978967 10.12726292164685
Au 7.738608007304956 3.915287151494031 9.454956458369367
Au 4.858526291648812 6.299636800067793 7.755372417774429
Au 3.881548635542058 10.145880521343036 4.230569141205821
Au 3.967694298239655 7.710638633992544 5.485559152076069
Au 4.86063107347314 3.9153028758513755 9.454934762753979
Au 1.6130369898139902 9.088657682409227 5.626517879728641
Au 1.3361514436281934 6.299698256044294 5.814767067326126
Au 2.4363124201643176 7.831461507141912 8.004466546166125
Au 6.299669097919663 10.870776491518415 8.40353190553891
Au 6.299692451127264 8.59216109059541 6.860347513507361
