42
Energy = -111.79926813 eV
Au 8.754410541294726 1.0787112444707883 5.479773962924556
Au 7.822953505489672 2.7206741233447773 3.489603584225782
Au 6.969730974713214 4.465361581372111 1.5959990078447206
Au 6.492435793713414 2.6569300959812847 5.954445237991741
Au 7.652860590997872 7.1307479773170535 1.6070215716546044
Au 9.311362914406763 3.771909658492833 5.7190626683844545
Au 5.39976088955667 4.217094280597112 3.8520063946101493
Au 8.746656130046722 5.410738043497048 3.5376971410618694
Au 8.490385938813743 2.190531804507681 7.967601335279757
Au 3.429498125358021 6.133131692434336 4.308505927367297
Au 4.999956346518461 6.424067092373352 2.084870929024502
Au 4.266780628842402 4.241942128449429 6.394274989679221
Au 7.055181660319395 5.495643590946704 5.999835412439018
Au 6.064434364626964 9.277269858958189 2.21864781149871
Au 6.177126509404926 7.561808065134964 4.29264082683336
Au 6.09026632022575 3.6648867269901992 8.493686192082416
Au 9.247087154048332 4.950230032497344 8.222263737761349
Au 9.787042031195083 6.527527714126167 5.899451433654891
Au 9.0712527913405 8.185412777992772 3.7045594576027376
Au 2.287734723800554 6.108139862004326 6.908439884280998
Au 8.184231946520335 3.376413133616919 10.359160544829711
Au 5.884199875760904 5.040173311589526 10.890240820079374
Au 6.75691677807106 6.566639388060465 8.627415404413426
Au 4.865049907038898 7.174664977886839 6.648419844729443
Au 7.790569454385813 4.568496701626164 12.79667855042921
Au 9.857003296245704 9.27195474020335 6.134175907482832
Au 7.52202239704652 10.420135007569776 4.320465732618089
Au 7.256432599427862 8.483009580111398 6.6266156345875356
Au 8.72702774285283 6.15341256178901 10.656481907271937
Au 9.440390072751722 7.735872287595629 8.456702551364533
Au 4.785748694590867 10.121653494264779 4.509916016055092
Au 4.0132075736348956 5.553429264721689 8.963432070813237
Au 2.6775388875519592 8.535351680513786 5.505986403865782
Au 4.951640072603716 7.762094090624428 10.589600595510788
Au 6.873025043448742 7.174621535243162 12.51521804834107
Au 5.57773019714105 9.905130604765562 8.9303657462873
Au 8.99519312102252 11.874843367215169 6.149523036969108
Au 7.626412800827803 8.802359413992292 10.444400594000072
Au 8.345606343072971 10.423227596523214 8.397248544752165
Au 6.29110076747748 11.403653849800076 6.656523435799182
Au 3.1668492752964705 8.328852728260065 8.531002422857947
Au 3.743502851521011 10.560905054412972 7.003543230054098
