46
Energy = -121.8256282 eV
Au 9.668030860401295 6.155241586988032 3.0197959552063263
Au 9.411546348778547 8.959157495217033 2.8313285564796207
Au 7.65644507154404 7.389414395248026 1.4230997192316757
Au 8.488581741614007 4.784035097688908 0.9761237492077691
Au 10.190518430015695 7.718684150253373 5.195449155278007
Au 8.599993130371526 10.145692497720757 5.174251377446731
Au 6.826177584382915 9.848272684002767 2.859879930184172
Au 10.390040840089997 4.875511910875362 5.338914496350405
Au 7.328131841527693 7.4958978838005095 4.372938225740999
Au 5.043377876976781 7.628856698666636 2.3601732288333093
Au 9.66502921233406 4.103555076245593 8.014011208891535
Au 6.337922888674942 5.118383932813014 2.7092278851113543
Au 4.136959586415418 10.12148116993697 3.3349013331010275
Au 5.838752965835287 10.616297174893916 5.476387415129778
Au 9.359079879213487 8.774793376786306 7.655335454915727
Au 7.571195767297253 10.828766948541803 7.620748313301484
Au 8.538434090080782 3.5740188796886776 3.4701816572909023
Au 8.162547558683954 6.05330351358158 6.634210184074346
Au 6.332845955975552 8.15330784936765 6.944854992259131
Au 9.370705207814142 2.4045138555348275 5.792864383359747
Au 10.95624114248769 6.546897906558597 7.591390799109176
Au 4.322699091231175 7.814202544416721 4.999942586442328
Au 7.299935546058791 8.884473573597159 9.591424303686189
Au 4.961619444815992 10.20023658473055 8.273308752521155
Au 3.548722847702571 7.8429539089448665 7.800984548058332
Au 5.716061096907195 5.469722106624463 5.4617779547210334
Au 8.919822028131488 6.5587115935178915 9.449640619644343
Au 3.688625417133736 5.455019200905819 3.461800202701463
Au 7.23469243481047 0.7568486016042864 5.5427509927140095
Au 1.599625452298167 7.792224473165607 5.810779472936402
Au 3.129803556980816 10.059539026409247 6.021526750605929
Au 5.667404727072469 5.738387436668923 8.200233728518452
Au 7.061743521305906 3.4191571412468784 7.115330603617297
Au 6.007416052862448 2.927540490281137 4.4466916469343
Au 4.62954106456958 8.412991774578073 10.350049031123195
Au 7.573049660197983 4.157954762425982 9.836135605309863
Au 3.728052080147286 3.5759121002635066 8.408939234760473
Au 2.017470428792204 5.517761811547236 7.399033271841918
Au 6.688937887398813 6.546832551079251 10.985669847405854
Au 3.4488027784549478 3.716399211738462 5.6328364745558845
Au 3.249640476846337 5.943790101081113 9.792269296341027
Au 1.3061975537798451 5.290430861856371 4.767989917392037
Au 4.950703980550197 1.6486475502792555 6.821957941438572
Au 5.778611176407085 2.0786651355992465 9.424743102058676
Au 5.00583556369316 4.127503817068951 11.026488125947594
Au 4.290349489897127 6.477967956225112 12.282605006411837
