42
Energy = -111.77915649 eV
Au 7.6078996785012984 9.236379723460066 3.589302926515833
Au 10.198447354116945 8.452877943161791 4.142641679677503
Au 11.212415753283937 3.042300985227914 4.743803788335564
Au 12.436130245164518 7.339350314902836 5.396773496687557
Au 5.727387740046714 7.188593579924318 2.79562837312395
Au 10.89463252108497 5.6787836633790425 3.8595321127354283
Au 8.305996251558598 6.504630874967287 3.28047365421493
Au 6.087709487656539 4.866008163928699 4.301485957365397
Au 4.765812926901994 9.327904033190451 4.23142546901761
Au 6.479258494565499 11.25968421512785 5.195491900713538
Au 8.9859993862561 10.374168259121634 5.786780099470458
Au 9.487335751756527 3.029309178552017 6.927929154933448
Au 11.586894840807414 9.724805618019275 6.421807511637493
Au 3.864776257588191 6.521890575835454 4.729824673310537
Au 11.418454377163334 5.035088439865646 6.6297322056141095
Au 8.684617793835175 4.025069233026391 4.403735007625087
Au 11.219541108921979 7.454322058254522 7.991605588463428
Au 9.175292307906167 6.71064884476621 6.103281443284599
Au 6.569180299211027 7.535739277278184 5.564855071437267
Au 6.754787766245314 2.932512885903255 6.218748908468962
Au 2.533869117784159 8.718324257734388 5.705900132649448
Au 9.70374191814187 5.185287947091667 8.802943979473373
Au 4.5338308366537206 10.271311549525773 6.874933613467694
Au 7.1239517576829225 10.86919245164032 7.843107779685103
Au 4.979854594333869 7.283688473956858 7.8520813639901785
Au 4.482011070525226 4.467026135724993 6.60026757195518
Au 7.083465953012859 5.459477328872138 7.410078699676529
Au 9.522308920605605 7.584676122028039 10.17711275594562
Au 7.613469832521652 3.2681242684195873 8.9357095266208
Au 2.458755548138977 6.281124516914334 7.134668609707188
Au 7.587956029443021 8.091714364112896 8.111268661440382
Au 9.733249462707233 9.830214661087737 8.442582589681216
Au 5.005271250873071 10.056382869759906 9.535743936168137
Au 7.540145611014863 5.525680407949195 10.531695479267436
Au 2.7096891187570997 8.820771425729081 8.48060195762187
Au 2.9968518793910097 6.340685998050554 9.789028046152296
Au 5.1311341417429785 4.694356096497126 9.37866460826962
Au 7.671258082469362 9.793123865238476 10.358285063052339
Au 7.627585607192502 7.693417356096473 12.157666141554499
Au 3.180880621628036 8.702807271109618 11.183634028545727
Au 5.146405805602679 6.613984868596261 11.4925821108513
Au 5.570468309307825 9.470278080796403 12.170486184805634
