45
Energy = -119.4016391 eV
Au 9.606306539235657 4.089681793110348 8.610748965923449
Au 8.604936566472762 2.069769953978292 6.965651789614688
Au 11.483488890567104 5.874264703250059 7.317393002317526
Au 10.953681528724001 3.4227131651780702 6.256741165773706
Au 10.655197600734487 6.18831867607474 9.993221599268544
Au 8.870721184932803 3.178324539571565 4.386517227946923
Au 6.913930558750471 3.3875969613349994 8.798186111779868
Au 5.958701123752079 2.100748204596633 6.494203706637193
Au 7.978294672610903 5.518537823608216 10.391735630107785
Au 8.7282000932018 8.159152550740815 9.781030148654791
Au 7.676001069998904 4.821208364057186 6.24086604215343
Au 11.24884523584343 8.425967912758233 8.445283658194395
Au 10.185292704232912 5.6613325549004125 4.8028574302138685
Au 6.085978077209166 3.3585395848182253 4.007956019233164
Au 9.25826032957535 10.413159333827009 8.231529304424367
Au 11.204422653166347 8.149364770732506 5.563170442907707
Au 5.200383664805423 5.1045170009937255 10.188819438878834
Au 7.781061425635791 5.483299267811483 3.3365235022962825
Au 4.204881469141221 3.5976497559054326 8.042136308293763
Au 11.567463707906606 10.600539589158764 6.729867080830876
Au 6.608579852665874 6.43721234322466 8.178039364391427
Au 4.935670869610626 5.312616621948575 5.5967503107734515
Au 3.5901346841171864 2.8422413153487667 5.378022147191485
Au 6.017221507919465 7.734608370827645 10.565088652116144
Au 9.208315291781423 10.277805084520843 5.408384552728469
Au 5.080910717691614 5.698657396850829 2.7376845377194425
Au 8.966783662834576 7.978196280381639 3.873009738536041
Au 6.479763554377704 7.587249008608866 5.69927319964087
Au 4.097270114341582 7.203258750232849 7.376754254983912
Au 6.95449290246354 10.268421417378562 9.654876103578658
Au 8.962696855160496 7.2330833179474086 6.994805003705649
Au 2.6467528622142606 5.592345522702659 9.220600033409704
Au 6.8803258254957615 7.746908825129868 2.0901208660723523
Au 6.802503814423548 10.382513418142047 6.863339138814924
Au 2.224845718782568 5.011531800792961 6.59642928460732
Au 4.669322041866258 10.04582602521014 11.178957242058248
Au 2.6820802315890497 6.927154663863548 2.127325602306075
Au 2.5340066791830416 4.851019218225535 3.875468326089493
Au 6.813571900707105 9.810010627871065 4.114128066293651
Au 4.504590629370754 10.099682445170494 8.403039817262538
Au 4.403104894852672 9.612527223631323 5.7267003811606365
Au 2.5462010834381537 7.4754043984879255 4.95690121516039
Au 3.1333994404904155 8.188704817454308 9.865153346873516
Au 4.527277216956076 8.536205080121967 3.234322725160449
Au 2.1102442707681197 9.050452304384432 7.255150253091338
