48
Energy = -128.59243509 eV
Au 9.24095323935674 2.4736054449287277 5.847764300147662
Au 9.283899383159266 4.547906134905007 4.054188836625975
Au 11.281887291956053 6.404502851066268 4.13650768162529
Au 8.816224561594202 0.6869945199047207 7.92371570352213
Au 6.95688016107302 5.303236535155295 2.6788826431167743
Au 11.157797797671892 4.424134853907401 6.115227743593778
Au 8.83748102008873 7.324624758825491 3.230390182675848
Au 7.00764211068974 3.0441146398055277 4.269718832882937
Au 10.147232161790038 3.0205168401972844 8.470227014714562
Au 6.6706995198197765 1.844389931483922 6.739637649315596
Au 4.695571396414671 3.742666992289991 2.937900129976843
Au 6.114903616477074 7.939179885419092 2.794491376118017
Au 12.045470449368315 7.082827057816272 6.722428366014549
Au 10.240020703910607 8.789393418043923 5.093844518595383
Au 4.499301518958516 3.0089359653753878 5.570099525604224
Au 7.073827165142623 6.383912392033474 5.277219657577039
Au 11.484735396519968 5.306494348840739 8.747713287984773
Au 9.323896563562673 6.559079074340147 6.895858882246734
Au 7.32639553677817 4.837283793670181 7.52387305542094
Au 7.518196172406956 2.7330651980862406 9.35355961626507
Au 2.3967415728826995 4.303112476513732 4.294419978358942
Au 7.707716124634125 9.72269687534054 4.196067613194012
Au 4.327170028432773 6.275920538201826 4.215068982774994
Au 8.927313923967791 5.047144973958851 10.037240172235538
Au 10.881059935573715 9.332183592106764 7.731526262586438
Au 10.086885931509098 7.491322921266062 9.607694016027159
Au 1.5422202094193158 6.557610597513344 5.5023334360982386
Au 8.762439683000434 10.611705398577495 6.564385822206216
Au 6.971571144220622 7.869826510818971 7.683604379921271
Au 5.19096351660159 8.536151298505839 5.682907361549597
Au 4.915480635146798 10.269997112955824 3.5490463266640897
Au 8.612540188922134 9.787413461157453 9.263236690999442
Au 2.56548997532821 4.477796002451608 7.076541303567713
Au 4.924404067142007 3.3796883386663112 8.24773421724063
Au 4.7303445744643415 6.211021530685569 7.07970437474797
Au 6.118010850909286 5.004612665971044 10.218669883907713
Au 7.4136269209880155 7.477680440071399 10.389804685979973
Au 2.746221351915835 8.672822105832656 4.147345405661391
Au 6.145428486875384 11.26400291763799 5.897028982119397
Au 7.21697282890793 12.025299037056856 8.39314827844669
Au 1.3754212373593215 9.049712696754176 6.562617303836407
Au 5.874757066288788 9.831015454258624 9.473022981649933
Au 2.1276143941243393 7.046039146782489 8.270952144203802
Au 3.3667308828476585 10.80182821769739 5.875078196602657
Au 4.6633687796492325 7.444808270143683 9.780219120711164
Au 3.3604930056328377 5.084212762574447 9.70898290043884
Au 3.2556356918067912 9.534629739753434 8.51226445886748
Au 4.530136246119828 11.892655302059223 8.115880736788544
