45
Energy = -119.71765256 eV
Au 11.073256701046335 6.592770432118976 5.1105281144130945
Au 12.299608930933884 4.3349775078401045 6.1321943469425015
Au 10.005018486938445 3.4288270370412435 7.382399382457771
Au 9.329790758507492 8.56389531235125 4.447863221580053
Au 11.072362760215908 5.98146734136264 7.983109824050405
Au 10.203928905543489 8.452781117453732 7.090160321344367
Au 8.608442626515371 1.8088638385799871 5.636313845467512
Au 8.71625817638093 10.585174411731497 6.349703255965744
Au 10.085155751326187 3.926129805548885 4.537564238358281
Au 9.630815484784968 7.62050521286535 9.662414422085435
Au 7.755855806046745 9.297730828600013 8.593835322613794
Au 8.76652720899057 5.999895049026432 3.318747004169016
Au 7.211479298069738 10.353503666669905 4.07015665338655
Au 8.549318498502378 5.120804021071212 9.115546113913622
Au 6.783387083130633 7.397181809058692 4.891602047641773
Au 8.636137318964959 5.797841708302266 6.298535252118316
Au 7.339798539436283 2.85781706701218 7.91066522024817
Au 6.929982781772684 7.12471227033281 10.28583635250501
Au 6.4226655487784905 7.002209667478467 7.564258528039332
Au 7.368707415933811 8.156634973777031 2.297157218248165
Au 5.960259543988718 9.840404431137003 6.5200795966911045
Au 7.439698714266922 3.564352018554386 3.7819310847123107
Au 6.117854292299507 5.620415181141022 2.425298781883277
Au 5.692482552747727 10.379128912438942 1.8188937905200346
Au 4.513626910145303 9.305268828656553 4.101199720269974
Au 6.091072479249421 4.671121475155074 6.151089130059983
Au 5.888761660332086 1.8778623411974493 5.529572641992304
Au 5.910406620831087 4.580095939915741 9.591140740388704
Au 4.256718742947997 6.364186216633282 5.061489410771814
Au 4.964875735588454 8.93773640574286 8.954149860871333
Au 4.539132128539427 2.8182083169614467 7.8237857863906655
Au 4.626645180642353 3.613581397181979 3.7156135515646773
Au 3.259738254703805 5.684489442345637 2.4568888748984445
Au 4.62755792338355 7.871643764022966 1.6842670768056534
Au 3.8819090715192495 5.772681635955696 7.750443329309415
Au 3.425558260785134 8.743616233424605 6.533699330556244
Au 4.183157501735485 6.662423450666985 10.448620609205635
Au 2.0562332035108932 4.615662287851168 4.63857919814594
Au 3.180112444989819 4.068036515198257 9.91487905996965
Au 3.116591062051283 2.162741340076105 5.5590916533500705
Au 2.149792026256705 7.717754352172299 4.056601260966578
Au 2.328282956549198 8.146477332266254 8.974591684617508
Au 1.7863634242765647 3.8172684024612717 7.2705300496406196
Au 1.4649899590557045 6.648185924963086 6.52856740634903
Au 1.1161015524359168 5.717230546495674 9.114966123240233
