42
Energy = -111.21193545 eV
Au 7.317832322377922 10.620628864226383 6.418055349542071
Au 9.950839838651873 8.526064400859036 4.810700109519401
Au 9.76557341962297 9.63338985820872 7.3840160405722095
Au 5.131653478203402 10.170034105931899 4.832459871817714
Au 7.553215296908619 10.052803828950523 9.095253405418868
Au 7.712682770722537 9.768160158913561 3.8400527392666914
Au 4.896068258125702 10.170600586873194 7.752911978305934
Au 5.036590091919141 9.780515161424548 10.509650238762056
Au 10.756531561251414 7.0536151886227945 7.040582783627701
Au 7.8609730884883176 7.7835927892608225 6.586448224849087
Au 10.524971899138118 5.887849607448633 4.199252441777931
Au 5.878719987458394 8.159599500824958 2.6081900347857108
Au 5.082693628991648 7.69520207668031 6.139425244791705
Au 7.250057797429454 8.31738351476183 11.271716444789563
Au 2.6997940680282286 9.01151009149631 6.410969813533955
Au 8.678844190191636 7.381075013667558 2.6477234438698045
Au 3.0113417066027464 8.59441870258164 9.149335653963837
Au 9.272009664603313 7.739318766088051 9.375044913280615
Au 6.028749758267166 7.609003445670119 8.74524455196086
Au 3.433365528314059 8.27381374370907 3.824817965017236
Au 6.8563321945234845 6.178582082020588 4.527507827527901
Au 6.658808454998273 5.7348112790843375 1.492194451176412
Au 8.926690634286752 4.558100184055093 2.3610230770469025
Au 2.71379094629485 6.1089199551442155 5.368334471055596
Au 8.68763023087818 5.1600346094360265 6.2753613965280355
Au 7.5892174416259195 5.736962819315538 10.363240311849244
Au 4.792218970207252 7.051556753658041 11.186018629753503
Au 11.463919575889149 4.490868759257296 6.374856379451347
Au 4.401027076353891 5.749172787781256 3.1547987858438136
Au 2.5821793504666135 5.942154896519416 10.090650683297394
Au 6.0256808221370255 5.353141382385684 7.187630399198324
Au 9.686791342210155 3.140823495418 4.515185808890354
Au 1.434474322468628 6.894633451046685 7.718687860919219
Au 6.479400650342955 3.6643078382844996 3.362490260541649
Au 9.85712727077793 5.046472689039462 8.886790349869795
Au 7.129649323559571 2.780539435260837 5.88751644662845
Au 7.495043711518865 3.4854692075013 8.800345304732875
Au 4.4760104700322785 3.8797873680498633 5.242319809480802
Au 9.627624953411745 2.6461566891240187 7.2998726711687345
Au 5.058070972800574 4.6786897278799975 9.808522855452647
Au 3.1052845493211554 4.687893530119436 7.645052866964929
Au 5.04876621629435 2.7405894891142806 7.747995938865568
