43
Energy = -114.21018462 eV
Au 1.9960045344233395 4.966140332646755 4.176334790776448
Au 2.3787758393870764 6.054969393387691 8.735889414295617
Au 4.130364318034934 3.1446270446800115 4.4029039211935475
Au 3.006989248560535 4.343222269939163 6.676257918057808
Au 3.245783059754968 8.528123017806765 7.898107848145763
Au 3.1073992377155486 3.728508199829425 1.924705848195364
Au 1.5970416934549125 7.679577461093475 3.5992204652343007
Au 4.683869541673651 7.099877744297682 9.807943974584036
Au 5.405788854676562 2.988869446574033 6.8249234616153345
Au 1.760511382074005 6.803471631319406 6.200230317180402
Au 2.2247695485060452 9.531021007584167 5.544059656872479
Au 4.499034714242373 4.387539731975316 9.058045427933207
Au 6.947009865606748 3.4330495782057655 4.4225364024546225
Au 5.6237775756534205 9.544374769440616 8.884754351412132
Au 6.991878113188782 8.08990576846545 11.049245044792357
Au 5.7389788185008195 4.530205816653305 2.179091437652393
Au 3.632324982341086 6.404727001239243 2.3055580584778483
Au 6.855462616868279 3.0005041162639716 9.203520181397117
Au 5.7847887616473255 7.635260208800263 6.644025464395742
Au 4.856420741505764 10.173514215027154 6.162860064455342
Au 7.2457006298744115 5.348107175068298 6.584917893024863
Au 6.654395105319036 5.385593210029097 10.60216004745925
Au 4.226724523479274 8.610518492265273 3.8877568710456325
Au 6.223369432801693 7.304268234443041 2.4731750192052444
Au 7.798061394620941 7.243501691281791 8.573591887763108
Au 8.19213128364684 2.6592076769830206 6.7963023991694325
Au 8.76495246547568 3.706969892235093 11.137284946278754
Au 8.190743194788457 10.20480054365694 9.653889155202425
Au 5.102089701193536 5.782364279478185 4.840552944585135
Au 7.562635606881474 10.065016021219545 6.931170014355246
Au 9.119475263813518 4.621682782285449 8.600807815446037
Au 9.769048832935683 8.192837159045236 10.558616609014791
Au 6.844572964727192 9.31975496708718 4.360537365145706
Au 8.245176347450355 5.444885257634226 2.88906017130984
Au 9.822693501958806 6.48450560765359 6.791558746426025
Au 8.750115184641071 8.17387673419268 2.7085555170694016
Au 9.536085892136356 4.284598302379484 5.03262982385296
Au 10.639782331498967 5.644214943524425 10.67154513900437
Au 10.078420827440913 9.262599874282804 7.894559152639556
Au 11.778513485314665 7.327100989828304 8.839883890107757
Au 10.56332549586229 6.661872770359773 4.098622817247606
Au 9.491750685075319 9.057181048349143 5.187754914533699
Au 11.952750107603839 8.028591205173855 6.157802804610432
