45
Energy = -119.80632762 eV
Au 8.05278088841743 7.573702641250346 6.184067507563867
Au 9.115225970548748 8.055745181433318 3.4481426816019076
Au 3.9842176701850787 7.945051230250371 9.640711882535548
Au 8.68763114281794 7.629662713181266 9.975973707047494
Au 9.711249664274959 2.8214403528864245 8.287508593113603
Au 4.890412936434696 2.8475892281134545 4.9251895618700505
Au 10.473670237170209 7.41512731399891 7.85816698260375
Au 6.889309905943713 9.98134169606867 3.3221824266857976
Au 4.299919664714544 10.29572820538442 8.20019257123751
Au 2.6956409123947807 7.854433452532607 5.300582502274222
Au 3.599371392300245 5.2814041718574085 5.028139247526209
Au 6.754388425083207 7.246605011060594 2.3952016728390584
Au 5.550961092259208 7.977375777394441 5.274881221532149
Au 7.745817377801226 1.0547980739888037 9.04089430393275
Au 5.142240074647425 9.118520208003297 1.2858774355607143
Au 8.252433778815623 5.258392693867598 7.858986474449567
Au 10.337702890506362 9.222427521450813 5.696993139099113
Au 3.925914958184153 9.776160311772939 3.5868565863111685
Au 6.4957239968573415 9.292897568954206 9.585271717209979
Au 4.017753975893033 7.061570690714542 2.915947273597397
Au 5.7574443390601475 2.8120137390897453 9.52616440749051
Au 8.435830122906147 5.652978162963801 11.871047702676421
Au 4.412318760816607 5.179812627101032 9.79392397756309
Au 10.19954210144509 5.234006948820414 9.861888218617823
Au 2.7225551091110085 10.574498364264455 5.8912688062465675
Au 6.977692292852944 2.7239520450750025 6.963081318422141
Au 9.60513201687133 10.702061112912164 3.363680656528702
Au 6.178317476442221 6.955973694266954 11.056223937701333
Au 8.839730768240315 9.650002494882091 8.062821170855283
Au 8.458202372532574 5.410859126920163 3.566532663280714
Au 2.030608057400372 8.783262388706474 7.858252895250249
Au 5.654898106440706 4.807863401431224 3.032650348616444
Au 8.38488647911319 3.181850947534142 10.69219880539672
Au 7.4683220727635495 2.892158720057756 4.0101407863284155
Au 3.0404501638943024 6.24586441261428 7.600088069048161
Au 6.414063453377058 5.251594039293577 5.77711633383312
Au 8.152686656669244 10.97898090576376 5.632992970201062
Au 5.424791380227684 11.017899514519712 5.520192311982819
Au 6.048100386525182 4.2604031233721065 11.821038285245471
Au 6.743441156528411 11.424937671595723 7.900040395176393
Au 6.016216658107217 6.89220105331121 8.01134592327038
Au 4.325865984827241 3.822061730429283 7.388725166518129
Au 11.28112869784497 4.836103499699767 7.365090535392598
Au 10.5475129405288 6.407378917221834 5.198858726419308
Au 9.449033511864627 3.7824453356305874 5.6140061209870495
