48
Energy = -128.61838478 eV
Au 12.671775713351785 5.451077348911782 3.901591981591299
Au 10.603396156163601 7.2579592267269035 3.9094402006649913
Au 11.278940697338829 5.677927069213605 6.261826968628929
Au 10.137929370729115 4.428334792333508 3.5706619592055557
Au 8.429168208198627 8.87697313046385 4.099998239209146
Au 12.067141671462755 3.1453522096530673 5.278407761165707
Au 9.673334321792742 7.905317998329178 6.4664113958972695
Au 8.105148616708979 6.229078848335293 3.073851266078909
Au 6.231038531841361 10.648398769536312 4.374729576673606
Au 8.31398356214941 4.892942548590482 5.8153563263047126
Au 10.355197188094138 3.2969005832125613 7.436946408803403
Au 9.567555489376542 2.091115537650563 4.96353625712209
Au 6.109965062606232 8.055183942123984 2.8148461395486133
Au 7.739602685134134 9.911530052503926 6.60080260237988
Au 4.0390171688421175 9.891472662830958 2.6566653558753903
Au 7.562773350299805 3.4669089820051586 3.407896662253131
Au 6.812202805562761 7.277881428379268 5.911861646430254
Au 8.144712769692902 1.6081045261665945 7.258260689287849
Au 9.601842431986881 5.821592757943947 8.396295605222075
Au 3.499897848819839 11.373533381469898 4.91098749814397
Au 5.1899788184196405 11.067131275109794 7.0099688584235444
Au 5.519733777145306 5.281398288389695 2.7756869167157556
Au 6.8516473667083595 10.578346531734823 9.12232392395977
Au 4.517862789381232 8.618480505383404 5.236399516545125
Au 8.337562969607845 8.267144453908458 8.829110963764599
Au 3.466025129491804 7.193709296657765 2.8463677990141867
Au 1.0427602333156238 6.50532759768916 3.970428078808674
Au 4.383509653604391 6.898900006599644 7.259540156265033
Au 5.478722995460441 4.850778057760077 5.59396989447452
Au 1.8542188362148868 9.119503535655646 4.40708950614184
Au 4.94382832786168 2.6737661940105832 4.021341740529384
Au 4.1760558488892086 9.916645366232501 9.30726098127026
Au 2.5824203599618576 9.87340981310949 7.065649151440454
Au 7.700594070453408 6.009991527601262 10.41403663036488
Au 7.0679676116360906 1.0631411325398659 4.712571300216649
Au 6.665632480090059 5.275635522074752 8.00847142068415
Au 6.207302383051052 8.289775199838768 10.535239871065434
Au 5.377783038131832 1.8090057213272637 6.731377376169286
Au 2.4051959715820237 5.222617035739423 8.177905591880393
Au 8.379885971055241 3.496615825306388 9.374994196391624
Au 6.357619413491668 1.6470677589218508 9.29914402787525
Au 3.0278385347480277 4.664759620844389 3.8646469282248264
Au 1.5599787297137349 7.262487364892419 6.489618824830018
Au 3.1269586383070123 3.353282505874655 6.245620742729111
Au 2.329823569609778 7.866382210802048 9.026466770084527
Au 4.69595908785912 5.957966953070706 9.964000751700569
Au 3.643778021397018 8.111330645751424 11.378395672002847
Au 4.48154785768151 3.520928929556768 8.739477587160058
