48
Energy = -128.79201005 eV
Au 11.032825469890636 2.5702997802635488 7.367642716720533
Au 12.149327969534347 5.097576672996229 7.3150275779111045
Au 11.247778819724608 7.088154985679885 5.607815592547524
Au 10.739623797247186 7.163855347430647 8.424480760838474
Au 10.615184547393794 4.244780963200637 5.175882394149709
Au 9.832712781627219 4.506125396545807 8.952249441100301
Au 9.17636067815801 9.162154305583684 9.463387413134953
Au 9.746851580704078 8.863225469086133 4.087005838951359
Au 9.675809300623898 9.15450535797768 6.770405630935937
Au 10.005223843708972 6.166375296232969 3.3112722676821016
Au 8.788954112410833 1.9148871340690705 8.852898898327522
Au 8.801386586439191 5.833908226420778 6.629552330726527
Au 8.240740907312105 6.56971883430215 9.773812856195699
Au 9.498177484963303 8.079586282829098 1.434553173408939
Au 8.466694384443269 2.686819515893905 6.216888523271767
Au 7.422137696242079 10.018533212807966 5.395633195144333
Au 7.2655840579795505 10.613356099034615 8.117005773735162
Au 7.209278821081971 6.9882190433322435 4.635489170044503
Au 7.047758908596412 7.90000775955396 7.320626075113282
Au 8.069565332762421 4.254139426627213 4.019025260098594
Au 7.128261113543475 4.039111314808928 9.553353591443331
Au 6.533171445582652 8.732366367315281 10.140559162722559
Au 7.323553378173042 9.109378812002863 2.708426857418667
Au 7.592136290641848 6.052371594537169 1.8636334518565334
Au 6.234059170932124 2.077192536098969 7.817533913196085
Au 4.830989345602068 10.83475372149873 9.465363729611607
Au 4.8881086528766415 10.25329606791104 6.764216314758155
Au 6.131084556773233 5.22387720054197 6.936992893359908
Au 5.0071861694571345 5.518165004475321 0.5372725907294208
Au 5.0140725480103825 9.340446377706359 4.243756842063491
Au 5.8941309816087575 2.9365720020715935 5.220588892619213
Au 5.501052029218644 6.150025825594803 10.182144055422318
Au 5.541379387433578 4.5733187835999916 3.0510451062416535
Au 4.497447497908209 6.566545020430703 5.013301250818544
Au 4.353171102089717 7.253444679014674 7.726369864032853
Au 5.110937426046841 7.512104598907133 2.3018285090906505
Au 3.83347426494145 8.351482358597556 10.410120086933652
Au 3.6502316155752537 2.254670800990232 6.8614405685053015
Au 4.4082778873118675 3.9152332002691907 8.939353205518758
Au 2.5777136286492444 9.69763068048014 8.243402420043347
Au 2.7624436345185743 8.706823553623313 5.67284956651512
Au 2.996877443164085 5.695473532072898 2.592393428818977
Au 3.334866025130266 3.961197888352848 4.749738165343616
Au 2.2133629055032573 4.575315175881269 7.2618674356946515
Au 2.6604486531411293 5.90213301736267 9.643843103896067
Au 1.6458197817353981 6.187293456832349 4.945072034776221
Au 1.2789038390073997 7.176339419662543 7.462120934082963
Au 1.0963956477144692 8.154392964641884 10.00709275164883
