47
Energy = -124.81433189 eV
Au 1.4840805108945099 6.861192311381052 6.9456724546447415
Au 3.0474015551765428 4.77451442941609 7.773357373898304
Au 3.006215747961309 7.110516779777659 9.279117453752098
Au 2.6718076732717972 5.3557237097100305 5.004022191609609
Au 5.089207770567752 7.381020786924417 11.329515569891358
Au 2.860560500518827 9.197545939213278 7.402226381409192
Au 4.537433574065113 4.9503888482756855 10.121632453113802
Au 2.6534973155605197 8.186134981065846 4.7621137684764285
Au 3.872185311046758 2.9941535397518457 5.820067258531772
Au 5.675865698783385 5.522104827060109 6.597099063631975
Au 4.109257080136827 9.581984330642639 9.780640627658272
Au 6.631965577443878 2.8890244545941846 10.57054508156301
Au 3.6453272362209503 6.567317268426413 2.779011507218157
Au 6.574626528229166 5.1652604644093305 12.07917888063591
Au 5.109704323349117 4.471079560462371 3.879402537416914
Au 3.985973391509614 10.60037307979896 5.293640535038791
Au 6.5486023608258295 9.807415090930938 10.944503723787484
Au 5.242163030115957 3.0527493453478325 8.208923846738573
Au 6.637843578944417 2.902826987359085 5.747392652894361
Au 5.153687601153003 8.230659095219922 5.995524932601781
Au 5.229167348292839 9.049509370320227 3.2217048531155816
Au 5.8850310309950435 7.593116850407788 8.611494176322326
Au 4.5750811492081205 7.959868764871226 0.6969164189897022
Au 7.981658068640256 2.4457528238057358 8.179604475081607
Au 7.193003459507771 5.211322057946923 8.92458042422962
Au 6.287976406289398 5.891177192591434 1.8440169897523422
Au 6.909959952892606 6.897739896001684 4.402147507822922
Au 6.684911185441521 10.896440879174841 5.341682273462402
Au 7.888877606935378 4.363498557696704 3.66339416066961
Au 9.053345816426683 4.555115881428282 10.815983483565523
Au 7.801406324322856 8.53078567969095 6.610225329620255
Au 8.488492718859405 5.821012830501595 6.528450518736213
Au 6.119877088861727 10.384238127261456 8.026488150901795
Au 7.922007608897449 7.308433261072242 11.083829020565881
Au 7.205924838625402 8.384570338287977 1.153065077140894
Au 9.314015213635445 3.133607543895099 5.8130912440559595
Au 8.599012938463714 9.248380937467111 9.270223688108963
Au 10.303910242668186 3.9951286261919865 8.39461798198446
Au 9.798718473453539 6.707901065947464 9.136286482849682
Au 8.062469659096537 9.508185828397972 3.4230757071313116
Au 9.027799180065433 6.793933019316019 2.4622593939311863
Au 9.480085161599073 10.590647661231888 5.499228782237799
Au 10.072459369413625 7.929368007758116 4.748265636345387
Au 10.490740540644346 5.214760547274507 4.219600721428827
Au 10.462391087894824 8.769999714403436 7.366340665169517
Au 11.947720777487456 3.6620086516097317 6.083600447533609
Au 11.24740071163094 6.19300571633056 6.782289346476388
