47
Energy = -124.86270776 eV
Au 8.237174929740705 1.5267417267649421 7.165992254509475
Au 9.794655064613007 4.251391234702621 3.2351898108499513
Au 9.76589504970973 3.3374671278084245 5.741471871600944
Au 7.763375700244192 2.373303289015086 9.834656342967083
Au 7.128436670209498 4.119826907896596 2.7027223531876934
Au 5.893894231674936 2.842587568324716 7.922399208257666
Au 10.091517642246847 3.1042590215045793 8.451396087688892
Au 6.878709853808134 3.150344672111864 5.30703268647163
Au 4.50311297999013 4.236266158566553 3.2768850975179897
Au 11.427676189865892 6.292449945446647 2.433545155878313
Au 11.164883867126786 5.760957338632916 5.18351620405305
Au 4.159835555734532 3.5270699885949397 5.984604430450871
Au 11.21565591961996 5.522910210970656 7.92284978948262
Au 2.0201715914952523 4.456592200272823 4.628367843063063
Au 6.0460650068089175 4.461816921121727 10.190303440707886
Au 8.670862044093603 6.561710528920097 2.2007581927202193
Au 5.806984100160674 5.4985674706851375 7.013064097491453
Au 7.631790456159055 5.889563785330344 4.8087432194308155
Au 9.006593532967766 4.912484132346079 10.18053633985943
Au 5.911680461051883 6.65804467331087 2.696068456199591
Au 3.4204045323412275 6.675000125043779 3.9092217650873464
Au 2.9560019470950665 6.100982037907571 6.688697778688707
Au 8.582386948917508 5.406055601352863 7.321943665473726
Au 4.095880694162102 6.29671907721035 9.217072267412606
Au 10.527164870966491 8.014780609723056 6.767609980320875
Au 7.649068408161118 7.991800800153521 6.595215024125905
Au 9.855429072003089 7.473285850703057 9.427550971060736
Au 5.419105095380171 6.723700911919151 11.570346813485612
Au 8.170795469141513 7.012201058181329 11.674915659793289
Au 10.284051516075554 8.190549131987833 4.017422917411911
Au 4.996864295567755 8.176663665808086 7.056572513072248
Au 6.964592534541945 6.9437076826451785 9.111892169980829
Au 7.606994227106626 8.752091937381467 3.4367473704803007
Au 4.862904686847443 8.951780749538024 3.8792071865419464
Au 2.5384892855062446 8.6724431052246 5.487978801552573
Au 8.960494758938292 10.162186643297606 5.466973894443255
Au 2.526050267749007 8.419796547576706 8.397238091466985
Au 8.999496371400069 9.888727861217957 8.25368846499895
Au 4.171412947992933 8.992085723346952 10.583787594740455
Au 8.856784295323758 9.609276701580038 10.963966561843003
Au 6.411086159232016 9.19381735994756 12.204058715535863
Au 6.644254095196088 10.776601237507661 7.02908244886534
Au 6.541823348010883 11.106353345560478 4.284653030147724
Au 4.182419085300136 10.997802347520233 5.651558857254387
Au 6.563217835570356 10.424289603036435 9.73166824271544
Au 4.213751842562284 10.704979456083638 8.428817439420365
Au 1.8066919152590195 10.779837599791799 7.078916891244818
