49
Energy = -130.25921189 eV
Au 9.05548461356185 2.3665144668599503 4.364529704677542
Au 6.328339675357203 3.068898857595264 4.760805255108417
Au 7.9444132182598795 2.5196140227775268 6.938296969099282
Au 10.905385706839743 3.0725034859728497 6.265992222543245
Au 5.153884576461424 2.8055031516780917 7.375078690557061
Au 3.6982177868640727 3.8843676329461214 5.077330559839401
Au 8.06156716264157 4.363538877670118 2.863426375624416
Au 10.816655599314782 4.664394300306859 3.806285830028541
Au 2.2414136576857784 3.3467477977973665 7.3412859484976725
Au 5.1169390896450295 4.684433945704634 2.833532388546332
Au 9.607920488452011 4.148145129063065 8.456872001036182
Au 3.236169468794449 3.815443981829752 9.813811312924448
Au 8.964589489273708 5.067377509706997 5.73887709798651
Au 5.980331981289247 4.199136879904039 9.939772359365643
Au 6.58963703686342 6.154362568041793 4.697632686293231
Au 11.664546736683995 5.680896057838903 6.647021300212556
Au 6.852256083166769 5.095015118345721 7.4465652604869454
Au 2.637432944634076 5.890588064859788 3.4404779531438043
Au 4.123375630873668 5.395319433383393 7.646972639679342
Au 6.8688727170600545 6.416642951223054 1.5674660087037522
Au 10.981538041213465 6.364153365473862 9.269488844798829
Au 9.41368778527658 6.841157633684363 2.6411247385764174
Au 1.6706812483179605 6.1002962145374635 8.777541420705811
Au 3.3863172357095324 6.279149119265179 10.984054256223429
Au 1.5558466137319062 5.662112299175806 5.970764155657185
Au 4.686722946823247 7.648308629500203 2.743864230479482
Au 4.095357904832882 7.10380992004514 5.586320498753471
Au 8.627999726611623 7.123670153104777 8.147254030688444
Au 6.147716815387611 6.1502143474586095 11.955318338824252
Au 7.285965565792944 8.798196722780261 2.7657181150902654
Au 5.615875956239249 6.9430404278546 9.292829812500168
Au 11.414959937776306 7.356557663908969 4.502239109445456
Au 8.451481718599375 5.606601186028306 10.497166708497737
Au 6.350642380508712 7.972833993777156 6.836089275698626
Au 8.747475768719942 7.794361015902026 5.391969135689659
Au 4.834810420083293 8.610900387017429 11.468583275862965
Au 3.038191204428327 8.577198205768376 9.332835866888972
Au 2.359076282089136 8.648738461075709 4.278223646560723
Au 1.7091022211405544 8.240455080524129 6.958972357984926
Au 9.924231032878216 9.506413999196546 3.5126368527383933
Au 5.248448862573617 9.68006106850011 4.52742047025098
Au 10.98534324531046 8.34992683578498 7.151295913466883
Au 7.602440366663789 8.338804490934171 10.691443083937743
Au 3.9638834289219265 9.788734581948736 6.9764835863501
Au 8.547882952090701 9.858129879066905 8.602165869569813
Au 5.72302207709185 9.808639101845376 9.116491928160055
Au 7.670135179799407 11.092785321407144 4.150337401389662
Au 6.651371796698598 10.794071597108532 6.688326041724599
Au 9.480065642615026 10.444423117988203 6.133981544629603
