42
Energy = -111.91305188 eV
Au 8.359319421311437 8.488317610690244 10.85109116351579
Au 9.237739539066672 6.2315066045944905 9.536299970851468
Au 9.546424217919942 8.793641108349915 8.409742145921454
Au 7.1397289471538326 6.033671633696011 11.37108792519407
Au 6.943062816485137 9.838659252444993 8.908854376960461
Au 9.80916406781329 4.051942261954419 7.968228949598061
Au 10.727086303102606 6.559976700783286 7.170949880285016
Au 10.601811784857844 9.027617720759865 5.874558687932563
Au 5.538977826520797 8.491686730367785 10.906181070694908
Au 5.0125601137601485 4.636521706912278 10.30889310259133
Au 5.559359730992962 10.920257434098408 6.744461411965095
Au 6.241185510655307 6.7843955974427255 8.807785169634386
Au 11.428510285075413 6.724599947030492 4.528547731185528
Au 11.163354236400297 4.214324829052078 5.512656912931939
Au 3.5082783036446963 6.916626146769182 9.883866523359988
Au 10.538631078172449 1.7501124106917012 6.710469358322366
Au 8.00939401805607 5.93518814485268 6.823289253737582
Au 6.450001220968883 8.231427054161765 6.3957965525201645
Au 7.597181656403122 3.8849151809123725 9.661817580971643
Au 8.304396130554283 10.472337126521156 6.57007284363035
Au 7.979158527967953 1.901875224138582 7.8139121416798325
Au 9.42134018108338 10.892569440090844 4.129707522553673
Au 9.130729515383843 8.111921474872247 3.711130615287662
Au 4.227561049871186 9.191919108445196 8.484283438874783
Au 6.891121262096898 9.653435149635774 3.881910527938673
Au 8.943436353517598 5.42239991050517 4.141608175168864
Au 3.2335574362789843 4.681319364766166 8.165362878143748
Au 4.461729472145636 11.32688901184471 4.2897762786804154
Au 8.600487963848169 2.9575900923533562 5.238044256642835
Au 2.4708432613341262 7.348131501687039 7.377449369918981
Au 5.287242347728847 5.7398083221705045 6.50596680995419
Au 7.026001333004489 12.25630088227197 4.691589532224638
Au 5.429527529510762 2.9367301248174744 8.129933104927828
Au 3.0874304991745944 9.72902302547828 6.049983002314947
Au 4.400926421642081 8.53792038460352 3.8843730315364637
Au 6.6071778343922425 6.87225232614094 3.7108802719624614
Au 6.363383106660982 4.206148210095821 4.295499330869074
Au 1.900034150782203 5.132041458044902 5.7813400084457625
Au 6.175027464373518 1.7503289036412164 5.714531772312846
Au 1.959606680646079 7.60046452386914 4.6491632575581185
Au 4.051649861572683 5.752335982204816 4.027584513135844
Au 3.9831852687633074 3.3581951069307006 5.728644278758668
