44
Energy = -116.6333907 eV
Au 2.067349323330631 7.3713769812501715 7.471434204368319
Au 3.1863614913168012 5.4251153869333795 5.726070088913957
Au 3.0705980898519125 9.946463689088137 7.143080567369639
Au 3.7617442603268336 7.727224839856397 9.683675215629025
Au 4.782789475378674 10.257032809956469 9.24104182360788
Au 3.406209191292003 5.220951257977024 8.530214114949034
Au 6.1418178649305295 8.584759287126992 11.039107968499614
Au 5.606992016697621 5.841030670609908 10.478362360528006
Au 5.266259676254041 3.3159294072850383 9.291409435796128
Au 8.234680828306699 6.577855319041244 11.049318936489344
Au 2.6097533224396474 8.273428816582257 4.888293962381791
Au 7.851253776427012 4.0989568741369595 9.988170199636537
Au 4.81227152165214 3.346275170929162 6.5310062673314375
Au 10.505831318987944 4.968942295385256 10.114334269996423
Au 4.755422776637632 7.73713721381631 6.56651721859719
Au 3.68851020763804 10.859153727805085 4.603907078209184
Au 5.382278567204407 11.384909688314156 6.749176350782541
Au 7.405936350365758 10.901737009348706 8.635285314306872
Au 6.7298847861383475 8.211909175733382 8.404231598971862
Au 3.4207897239233165 6.337519034398027 3.1351779620593656
Au 8.887753600072408 9.094353260889578 10.061656371550908
Au 6.116054607336899 5.526538233663077 7.701855562749067
Au 10.866125065109133 7.514976209730099 11.081235053729701
Au 4.626058045158881 8.808296059551049 3.0076639741216664
Au 5.059723590516191 4.2615522175457325 3.9304791938804775
Au 7.351441238025822 2.555495274402324 7.636842817491548
Au 8.067410211769802 11.609174154777602 6.05111227277672
Au 7.3134325570360454 7.510215492786992 5.7862193876764065
Au 8.750626167034323 6.195334229413554 8.140067895552734
Au 9.31611787026662 9.275513436443946 7.3259128568501515
Au 6.3650924566045655 10.672202496742365 4.184996199251738
Au 11.300733695553664 7.1529043256108125 8.38617432806338
Au 6.085717754934052 6.46134722333054 2.5200912629744487
Au 6.945249535711477 2.363149820221539 4.889039883155341
Au 7.92577390929754 4.810264093809194 5.821345441497948
Au 8.90951104724835 9.401522945683812 4.5646215681621936
Au 10.243985512246757 7.143894691518215 5.772526277361963
Au 7.291215218925868 8.944126991141621 2.2763842867437893
Au 9.932849376303425 2.7021860850848674 8.730977172891812
Au 7.705337676415468 4.306766389741777 3.0593659686010937
Au 11.024962847348506 4.704927812479879 7.101486036376521
Au 8.734578231651541 6.8371656258490745 3.4332740177655903
Au 9.63560058431795 2.4615978316824463 6.022824275698533
Au 10.250092110590597 4.623270871009368 4.387818922224995
