43
Energy = -113.43752424 eV
Au 8.26979606628457 1.4687823904942134 4.604307977849144
Au 10.037325784528386 3.4920036470649527 5.083290566398966
Au 9.70559887690325 5.9782313325384475 3.8058954464959935
Au 11.91518580026681 5.361917818011691 5.553104019101179
Au 7.161927837796977 6.629059682837123 2.7599764923493355
Au 7.718318318007976 4.063928607792141 3.6920984925142095
Au 6.669869774045373 0.8337604223151497 6.725082496085368
Au 7.6529989438199815 3.512423752785686 6.69229177367805
Au 10.677194784934036 7.763460415492941 5.717925130659094
Au 8.607132142216534 3.6029960015300655 9.279967873561226
Au 8.87310026860197 8.590949779382155 3.71838271801751
Au 5.640828485714847 2.5663076152104924 4.775581401619969
Au 7.663550525522077 6.179802350230678 5.828686073807565
Au 5.07533503107294 4.814680932428129 3.3101542505120434
Au 9.655520513516194 10.267015687757253 5.892162875986383
Au 5.362101852421222 7.5051246410131975 5.023527913965328
Au 6.17810235755386 9.286122921437851 2.8841274192854307
Au 9.843543469922999 5.374865724286408 7.435091274873776
Au 4.598553423066527 2.545895925413878 7.426464970689957
Au 5.025988160582334 4.935025593317317 6.117950869646956
Au 6.53356624232938 1.7893565193477832 9.305414134418289
Au 7.929818934665276 11.14600584722702 3.800832456861816
Au 4.429380799179132 7.282212563223678 2.3554904747084375
Au 5.9663331603635195 4.548060740512775 9.328676916743861
Au 9.52956997854339 8.201456271511006 8.160662590717177
Au 3.233145111443768 4.848975150837191 8.218909781763132
Au 3.9739763777039396 2.8036983058237075 10.10155520005309
Au 7.279016721556949 8.929887904288412 6.451285485453053
Au 7.678298384733422 12.259554107869898 6.251048207538141
Au 8.162919026689305 6.2697325232455094 9.518715425328086
Au 5.840841302629968 7.02902175964491 7.852916364170802
Au 3.275599554822753 9.039822761948189 4.300162948517795
Au 2.8956042415828 6.906998321724793 6.333339859177212
Au 3.383090136622048 5.383629288695589 10.937287799404052
Au 5.431028027891737 10.722579521738089 5.1416265567655035
Au 8.522920342900392 10.765862594863872 8.40886785190468
Au 3.904886960678549 9.342212704751832 7.081063115875061
Au 7.514972354765539 8.83054319255279 10.086873129749796
Au 3.1864630336157345 7.483332248159597 9.110415952128706
Au 5.580875896016987 6.982182482510836 10.656538444198873
Au 5.661066072490859 11.32371642530305 7.836430788017515
Au 4.766336726281845 9.577537607084981 9.758271128295698
Au 6.706067578239942 11.428934753488967 10.393320565120007
