47
Energy = -125.79431534 eV
Au 11.47773156745665 6.940362876703292 6.00090547856833
Au 10.471534882195156 6.105078132736351 8.436403797794817
Au 11.0298782165772 5.606955933430858 3.602894274803821
Au 9.986192448093474 4.5491101555182265 6.134692755932025
Au 8.733170720669886 3.891695235247395 8.607405603273126
Au 10.543739143538799 9.292383963251078 4.8980312223042315
Au 10.147765052474952 8.076453829957558 2.4119116655293578
Au 8.975102178292293 7.799144866163342 10.064309759197657
Au 9.666583363873594 5.160677987304022 10.887682670178771
Au 9.973486427115311 8.704150838679213 7.604230048400558
Au 7.771987093150444 6.250253197267009 7.123260724968455
Au 7.600413120655831 3.1223479720618563 6.22682438602645
Au 8.896838683448237 6.944753055790157 4.677482000281862
Au 6.525959479190079 5.783080093050919 9.548063512934286
Au 9.133038310210434 5.662448115052022 1.5532877432802457
Au 8.682178748781489 4.012647490721584 3.720097358018154
Au 7.292552143003371 3.7021744064246955 11.183371842173871
Au 7.562437147456282 6.4141911223107595 12.12011547824807
Au 8.452383253383157 10.587470933631378 6.193175276877855
Au 6.442578367993385 8.635802039863856 10.86381955792706
Au 8.393124468052102 9.965771821850574 3.3105791198857513
Au 5.766895361954204 7.973748124124509 8.150389352968864
Au 7.727036752511364 9.90315686264335 8.758039561364496
Au 7.424197689344092 7.824304933336787 1.6125780682537523
Au 6.362608427102349 5.828328496117763 4.693740617548556
Au 6.3657333026890965 11.416343939699109 4.545286184436014
Au 6.465584936173822 5.179145808590005 1.9482762829481102
Au 6.076214238934552 2.9718560888172405 8.734991565557118
Au 6.115289644043252 3.1045674597607977 3.8808791322918466
Au 6.7809521422076715 8.433494715281572 5.4122279219791
Au 5.602939390978459 10.476491061181049 7.033723299233292
Au 4.58221478621015 3.9620644954343724 10.887046044265606
Au 4.861772507300413 7.396644474131312 2.754046614345338
Au 4.836416293878637 6.537107629788255 11.88502797737265
Au 3.824804451200494 8.45715030162252 10.142603665609894
Au 4.270185587422436 9.487145301823453 4.710779048528627
Au 5.815244539130131 9.88892192877537 2.3349360638946526
Au 4.99454604886071 5.523163797645885 7.193862273640091
Au 4.025034581221586 4.836559289625745 3.3841611941549363
Au 3.2339979221919037 8.879933860596585 7.279239629195994
Au 4.876846662375375 2.758295121773672 6.301957274213407
Au 3.3135834799237536 6.975628429580438 5.090512949541971
Au 2.6654122734682106 5.841483778281239 10.305361529438098
Au 1.318157244646464 8.131800463441714 9.270559401033575
Au 3.2544404844601487 3.717620313597274 8.480455684501466
Au 2.223935887988724 6.2305174673179495 7.598255148295778
Au 2.726568803230745 4.326860045056028 5.711807493842935
