40
Energy = -105.74604017 eV
Au 8.911860197734404 6.939407127001486 10.596929794037035
Au 10.719815581940363 5.762696482685279 6.450103726572095
Au 10.392228739569143 7.770519351900942 8.297746535899757
Au 9.529120769248038 10.40087621389799 7.512405927987215
Au 9.733179007570163 9.65311500674696 10.258487714651064
Au 9.900245649154 8.43380531889966 5.577540022335075
Au 9.153703498952124 6.027684305152048 4.174853878056146
Au 8.759353829262812 3.849395432892536 6.128039156188842
Au 9.292113289186943 4.9046937034594995 8.77414384676246
Au 7.156546829689109 4.04020961310285 3.8129159766928
Au 6.921241675040903 11.277282887052754 7.979715759610013
Au 6.265922788077214 7.810981774206061 11.04647071816407
Au 8.106983121321116 6.601765066084212 6.871399094278933
Au 7.647175293800957 8.635041741454838 8.680162525377662
Au 7.656458460042253 10.36554701161759 5.491939198688948
Au 8.284762702120554 8.683103532541253 3.405505219875489
Au 7.172567843589629 10.496217484761184 10.715956239634705
Au 7.273615847754629 6.284452672173128 2.145227751705902
Au 7.2716771983479385 3.07275077169652 8.497081647813738
Au 6.76976177788769 5.234255375499726 10.155469908795876
Au 5.545740504387043 7.458139617725118 7.33282024334033
Au 4.238524396887815 6.566475456252359 9.65476503436275
Au 6.369572292433576 6.93621924572931 4.7390568004069475
Au 6.634207267034215 2.140675983308787 5.78259682972099
Au 4.960997535226697 9.599337853395152 9.25126179918873
Au 6.413441279624539 8.82802318433081 1.378861493144595
Au 5.9821438822037685 4.79627907138828 6.524757864674752
Au 4.631930771496409 3.9506766420271995 8.956566387546584
Au 4.879668523412917 10.122743571726298 6.471859593073931
Au 5.553248118134552 9.608725145767623 3.887576405759985
Au 5.079678386694972 4.543643702560557 1.9934422212621636
Au 5.11419196543102 1.3829869427750499 8.028199993594615
Au 2.9665480148367145 8.355646817823278 7.822451552004764
Au 4.707346183422534 2.4942599160210706 3.682822854719252
Au 3.588303016445119 7.903113230400793 5.163318067182979
Au 4.509887727913081 7.2176606355677055 2.636774473756209
Au 4.3868798366343205 0.5157999180223759 5.52205191841476
Au 3.8091665411548647 5.166488958328663 4.409010078722087
Au 3.219542418045681 5.699877144600677 7.102069355002188
Au 3.712195206869485 3.116394941975033 6.296296557644906
