40
Energy = -106.51959667
Au 11.652429546736725 11.133667244186832 14.769257900501435
Au 11.226262992804884 11.607769732923751 10.795134191115341
Au 13.27037412297003 16.109946453459408 12.428438308701102
Au 14.506770284201192 15.024789184297983 14.767134055957385
Au 13.079191729475687 13.078439077678473 16.212990396381503
Au 12.223066238375683 14.247389582279162 10.511715099795437
Au 14.38402690054321 10.992338231382986 14.65309394987644
Au 12.885474458401085 10.050527697293703 12.429176696325493
Au 13.931360478683972 11.901764608612519 10.505806996610849
Au 14.92660691017742 14.539255589949347 10.806501001651826
Au 15.836985248247998 12.88738402977792 16.090903768959485
Au 15.594497831226564 10.346400989402747 12.147851163664006
Au 16.640729044261086 12.305574497775057 10.339907579011614
Au 17.117877466350137 10.78487014664669 14.522523267668301
Au 11.775345610933448 15.163771933581954 14.65052188588726
Au 10.322333562684864 13.27139935102019 16.091694213931863
Au 9.041569758251 15.367769528300183 14.519341521634821
Au 10.561350060183242 15.812656689423106 12.144414596611533
Au 9.513768423856625 13.851047259440115 10.341415812926515
Au 13.083324157220613 13.07843907767847 13.05352217677676
Au 10.26340144377318 13.089249923075755 13.082298737341741
Au 16.015969100065274 16.279792662898053 12.771508750244744
Au 10.140521004924715 9.880290579543848 12.77278471554403
Au 17.278494352763804 14.936736344588386 14.851333871303911
Au 7.876037610346083 15.21321000828504 12.058943434378724
Au 7.578722024710976 13.399910294574003 15.801592199614472
Au 8.880757841809077 11.224191601060111 14.851029388633782
Au 18.27928857909445 10.946811544479283 12.060349811069605
Au 8.50112061674725 11.416413311154624 11.214037102311316
Au 17.65331850839678 14.742699683392562 11.211871942406834
Au 15.905368145795629 13.066226621285688 13.086922106871445
Au 6.812691821793542 12.634299663125837 13.17362075520718
Au 7.257036473063889 9.903114697097811 13.12405026285387
Au 6.7173210463395625 13.329619668254022 10.45217988243609
Au 6.159653346468386 15.12991343738605 14.15844544503953
Au 20.00037174323025 11.031648821082918 14.156617358542508
Au 18.579223065741207 12.7580397856307 15.79887785584914
Au 18.89822586249492 16.258069303839278 13.120813904504601
Au 19.435677504900394 12.828311749331467 10.44908092291918
Au 19.341740409518536 13.526127394804812 13.170583296503741
