46
Energy = -122.58832691 eV
Au 2.4000045052475865 6.290423000138104 5.401869472795412
Au 3.1515697134973375 6.534907488302898 2.766749879848977
Au 2.2729645308590745 4.941142941688407 7.835603636576497
Au 3.433589832972313 4.060127478152514 3.9311620099523754
Au 3.8601757377336656 5.577636790767419 10.025098654238779
Au 3.315531970345393 8.86086351674248 5.613999524183831
Au 3.0206189992640406 7.547070099890213 7.9914320010918285
Au 5.315284442057131 2.274957469093229 3.1156521787164975
Au 4.778974032817231 2.2477278802008946 5.807391370793883
Au 4.296948102977186 9.091692980381714 3.113027568687797
Au 4.5481139853233605 8.41486967084021 10.187593423180022
Au 5.492858064456512 7.3873516712105065 1.3261516042176402
Au 5.51025965811879 6.357882782997524 4.141429155812551
Au 4.4038324411477685 3.232626084781525 8.46095863227445
Au 4.405960305934974 9.996736110960908 7.824274957973505
Au 5.232359941633439 4.687476052880673 1.7828057411691622
Au 4.707193822456114 4.990164609160226 6.329345235275024
Au 5.817694315687139 6.556790218645662 8.358369385631228
Au 5.601838675525759 10.430290267802905 5.272112702115238
Au 7.465770336162466 2.5759471985319466 4.791081250454403
Au 7.680131116634844 3.404139760089533 2.1494298488540284
Au 5.999767192276589 6.520934017514044 11.569253603659568
Au 6.540618631676281 7.9397147453466195 6.135892834358482
Au 6.962849187871004 2.9585327657868272 7.535350906520629
Au 6.543194765284059 4.332208749520296 9.963765782328382
Au 7.4349940527423 5.23464433836646 5.824180529360871
Au 5.605846396246185 10.950208739595904 10.186345278475928
Au 7.048525731637537 8.739988955692098 3.3386646100730335
Au 9.419027124317685 4.606124416692517 3.9187832156235585
Au 6.785446468725433 11.576183543476407 7.541504775637422
Au 7.05337435714037 9.051240615345787 8.658206054581829
Au 7.404537905010359 8.84558769969888 11.475783550348979
Au 7.758363276975562 6.169188406194367 2.358887819411733
Au 8.497153098833504 6.845883460560734 7.854015233370135
Au 8.58065832878535 6.415848817226118 10.664719867103376
Au 8.383015397590352 9.992473965238233 5.414523220241858
Au 9.552784194679923 3.2114798758938656 6.432390464758916
Au 9.109910063971546 4.2206748945876065 8.999964213666619
Au 9.205182281162488 7.408726168511627 4.477078864549487
Au 8.33723882031009 11.120689828214452 10.185813659818665
Au 9.482943050635068 10.873115273420032 7.745300216441331
Au 9.819938494928081 8.81035525556196 9.697613921045455
Au 10.452128072297542 8.509667829480867 6.754384982596529
Au 10.988698934341018 6.4428802102505776 8.997287450889253
Au 11.708706816748077 3.995676979145233 7.937091336675187
Au 10.651586049579288 5.801340129656259 6.150798167294715
