45
Energy = -118.48514534 eV
Au 8.7124016040537 7.982727046901491 5.796301874253564
Au 11.095488016696015 9.296554233198231 6.127006179384917
Au 10.252624962099116 7.701806466428743 8.301115303660996
Au 7.816873420748367 6.314328926559759 7.851958659719972
Au 4.963695364205039 6.314255551774289 7.852396754418432
Au 7.805841288296377 8.448218617657387 9.860895232174885
Au 9.157292766428343 5.942125722794705 10.249289375204832
Au 4.974848770839051 8.448248653409635 9.860928527419171
Au 8.803921722995497 10.118991382064648 7.772147226141285
Au 6.390239656805181 11.277388230470715 6.136645127253109
Au 8.808985085081064 10.653720292436718 4.976739222602465
Au 2.52854969620959 7.702113668776573 8.301072485736194
Au 7.804732479234446 3.706626803367952 9.279275247295661
Au 4.9759706048869115 3.7065956697867413 9.279345062772752
Au 3.62342566049609 5.9420837909716075 10.249312425129077
Au 6.390315791215868 6.042249829972077 10.488846300563287
Au 4.067322837285023 7.983349633541683 5.796375135019404
Au 6.3903525278544295 1.6470267223361972 7.98381455715071
Au 6.390296188570249 8.810541961909651 7.403431260622765
Au 2.6203595641228743 4.7272219087208365 7.898364522772573
Au 3.97152090540019 10.65375277195791 4.97668850344664
Au 1.6851981917187715 9.296591644842012 6.126923626328532
Au 3.9766353296722357 10.119284148689431 7.772099246537435
Au 6.390049876910435 4.310141755473185 3.589281494334251
Au 6.390359193118268 1.8277467944585193 5.131698076726533
Au 6.390161229115948 4.131408568791824 6.722427267629696
Au 6.390182251030081 9.216849266851895 4.2285799267826025
Au 4.0148392711467045 2.611241050274496 3.975260412142865
Au 8.76574421480086 2.6112465720783478 3.9752231662687296
Au 10.160223537201091 4.727272561931161 7.898457904673985
Au 8.796439365221172 2.5382095140977254 6.782419527918232
Au 8.640608932890046 5.093466949339606 5.267632330605128
Au 6.3907854798316786 6.635027499417303 5.398421258770759
Au 10.999421148169397 3.770596262121143 5.313214705643117
Au 7.80253253206155 6.923392680560694 3.0021869026467614
Au 11.276699403805107 6.500291085287227 5.971748664937217
Au 10.449509048093626 5.906861792046519 3.329308689335348
Au 10.083826900133118 8.594546480902848 3.4839436754254605
Au 2.3309255823831485 5.9069578785287575 3.3291730238096595
Au 4.138598338158309 5.092656020626825 5.267702734238117
Au 4.977604623906101 6.923492662178485 3.0019131523807157
Au 2.696666483443958 8.59476458980671 3.4838784367751114
Au 1.5039584543854765 6.500277549208725 5.971717491602697
Au 1.7806305408346796 3.770368602406641 5.313194905719138
Au 3.9840072911233864 2.5380463311714276 6.782310539463309
