44
Energy = -116.01320843 eV
Au 4.4698640209459475 9.883997724368722 6.969567334204291
Au 6.428802091903004 10.596940919101185 8.80581842298285
Au 7.6256575879084245 10.447523061948326 3.5250746051214823
Au 4.863845173121745 10.494860065367066 4.159996813809819
Au 8.634994000484388 11.870230273457242 7.839945024008239
Au 9.578085330577858 10.768741235763574 5.455237513717296
Au 5.919075797955371 8.67276391880334 2.307188235338913
Au 6.681089847557797 11.379335597450881 5.990732214649485
Au 2.927392932428115 7.619397219130695 7.686103354611056
Au 3.201100455239583 8.397575667413003 4.955343511088744
Au 8.672915524716963 8.430110406313863 1.858457087185901
Au 4.4846422905382015 8.850963837186244 9.683976322460063
Au 7.4910337177919075 8.310553740201435 10.117159024629613
Au 8.96106056309959 8.053536825042086 4.584255236774878
Au 5.894143656826108 7.2847744113472235 7.9954426809770185
Au 1.457532781019365 6.4092131370055405 5.709396895126947
Au 6.0961415532060625 8.163082018352895 5.114630508866352
Au 9.703334007368055 9.585408685683118 9.071197902843393
Au 4.480650405076529 6.525250829578692 3.167359797934452
Au 7.231346271572674 6.1961012676055445 2.6968803466122138
Au 10.730711213426318 8.332623171861888 6.710119906597508
Au 2.571350730662325 4.557851007820888 7.394773640439274
Au 9.413483608582673 6.832378363889297 8.572757089320692
Au 2.9935016181643173 4.470736244520978 4.350216105286704
Au 3.736090997363142 5.808664061673999 9.585808617425394
Au 4.651864267830555 5.887682508412761 5.984948553358444
Au 5.511289103650695 6.875941013591231 11.351339620506723
Au 7.953945973652362 8.994479755565454 7.017882293471705
Au 7.612768744768916 6.052532107596597 6.184722297370221
Au 10.095148881715483 6.23807440660025 2.8990151346357504
Au 8.626242071204189 4.222541938144535 4.010744141760027
Au 6.149999239425074 4.4300220948472235 7.85404234372828
Au 7.6347764140870105 5.467113143642355 10.153612216726591
Au 5.811655700424774 4.153538964085697 3.954747437915911
Au 10.317631063009625 5.678760188960435 5.84655849419487
Au 4.466298047994633 2.8493750189300666 6.076390436583474
Au 4.107267952340437 2.919653377295863 8.97782670148724
Au 5.353787440927764 4.164537829647912 11.16426728794237
Au 9.080490191175048 4.178540153931842 8.102816943537206
Au 7.27108490315872 2.481926220818182 5.606095644675354
Au 10.090484469705562 2.858785081571132 5.905900323798044
Au 5.937599962210249 1.258172909005735 7.702294781553051
Au 7.1241894955290475 2.622509331689506 9.792176555024362
Au 8.681006063537998 1.435453797596913 7.808466538374982
