43
Energy = -114.08233638 eV
Au 1.471567149697705 6.121282774995358 10.407349570516688
Au 3.9076627995466855 5.711360597946973 11.511869008415337
Au 3.4196302237556973 5.252664565086034 8.655394327130592
Au 5.84450566952642 4.623132885147011 9.929752403898148
Au 3.420729043937009 7.891913360675007 9.847668887316715
Au 6.476829278453368 6.290366042800087 12.019507118463569
Au 3.100150472423229 7.734510937891828 7.1201450264018815
Au 5.436812576575234 3.9477483600285046 7.304149014301802
Au 3.2574317572661897 5.116891190450092 5.943197875977845
Au 7.397835107204016 8.610047747450643 13.063669705098398
Au 8.51361242826381 5.0976037825168685 10.64614054237223
Au 3.463805617655721 7.460679568925056 4.346414981989228
Au 7.833374472760643 3.306015275885615 8.565584151017243
Au 5.8111559719487875 8.786032689748493 10.824220538069298
Au 4.891833638504328 9.535798307812344 8.326477392753866
Au 7.638069679413622 3.1215353869014026 5.83494394574692
Au 10.5153501641801 3.8819187623493683 9.248144490151212
Au 5.575756687397922 6.834611313304828 6.2630479259722405
Au 5.470523757078761 4.117062776387784 4.516469645079203
Au 8.601490203892991 7.95426186166224 10.741806808005641
Au 3.235902779567014 4.967337628476713 3.2010390995524807
Au 6.990032000134302 7.1338419928412735 8.563323550460092
Au 4.6637164035798815 9.574193216830883 5.583464486813699
Au 7.5502322946701215 10.016002434179333 8.981556651178725
Au 6.3755476625417 11.30896172311579 6.883276717833308
Au 10.010449796460296 2.3823952280272183 7.071945587120891
Au 3.705966994645072 7.124242512098571 1.5710171900947725
Au 8.130078505258087 6.142635676229132 6.268628129337409
Au 10.046208493297279 6.557692612628832 8.842995571739507
Au 5.799676095222764 5.378574866752555 2.037626996032041
Au 5.146561734206646 9.08988372398052 2.900368721976169
Au 7.055542783140156 10.401171495124197 4.399982183611854
Au 7.951996580616758 4.380699196122356 3.3532304836081614
Au 10.793933406188907 5.067245851115293 6.663322737120871
Au 10.16001149237686 3.331110312003979 4.5401568938799075
Au 8.8808499830613 10.131712995311695 6.442460959797976
Au 10.135282815250475 9.274677092940593 8.723328750851303
Au 7.723513051635675 9.536352344321196 1.8835191926001777
Au 6.169838641043379 7.751388328288569 0.5745300667853804
Au 10.01849527619987 6.09481297464106 4.167980500845672
Au 10.459758002549504 7.8392055954493545 6.379259031503347
Au 8.196970949918834 6.85577772246119 2.233847173825366
Au 9.218655668961643 8.73199439910183 4.08453407476082
