45
Energy = -119.85769816 eV
Au 5.730172363522001 6.892576360430241 2.626048512948619
Au 5.29461381969773 5.676204497658571 6.481094481448618
Au 7.30453625991411 6.749235619273991 11.3396637752447
Au 3.6960786098482155 5.672178386209844 4.101246095959363
Au 11.07278986968744 7.970363720263396 3.7506996466564777
Au 11.17022450188536 9.129715847654628 6.222044320355132
Au 4.551892808868275 10.785376298347373 5.231224821440529
Au 6.244639364519118 7.194004380340447 8.565587428657166
Au 7.067233915107133 2.6168831101351246 5.738297410619027
Au 9.952211760691714 5.459213931284057 3.5721050323751777
Au 5.816894594952742 8.290329956121013 6.058538006226893
Au 3.851907225231897 8.438353153253791 3.9485644930783232
Au 3.0480778972617033 9.016341670750977 6.771375783720517
Au 7.510083506926008 6.471177954125188 4.770861897122002
Au 8.535448033680142 7.797685866959451 2.5201709333177447
Au 8.697519060260989 2.576797466552046 7.995374645214922
Au 10.821841492348684 7.518734125737035 8.547678128619134
Au 7.24109494164923 10.778210752625052 5.995223516108643
Au 6.229562786673676 9.188589011000005 10.467278773053287
Au 7.9073092004063925 4.452304890554456 9.904369288925594
Au 8.519189855649444 3.0232441334588884 3.417573117628103
Au 10.408418298655107 4.800568356804257 8.38217573326026
Au 5.9586312158688495 4.162029980993519 3.6434279280876622
Au 3.3854085760174355 4.401616528541838 8.32115768101886
Au 2.601978069686008 6.020534550540905 10.434541543767141
Au 1.9947966283892606 4.686477210687879 6.031041047531507
Au 9.955158813682132 6.122369822976286 10.763283208421262
Au 1.8872283326160089 6.7644299673406705 7.883779482944923
Au 6.511856217140773 9.471920532788749 3.5447356866118875
Au 1.6502529201543195 7.316172412172739 5.14369459367953
Au 5.242951163758006 10.231641033098242 8.013037752522102
Au 9.154304944722098 9.836635886917616 4.313312237649432
Au 7.897178545187994 10.467813089823974 8.632986608986911
Au 9.020613132475967 8.738607376924234 10.44034315458924
Au 3.6806831768358594 8.362191585388135 9.360224700274
Au 4.619584800731494 7.286222150221118 11.77687085111633
Au 10.795621886140477 6.339971959992554 6.036476550021938
Au 8.544697562356813 8.222038565452834 6.834667331474571
Au 9.755527154721614 3.7793548448929863 5.75259409583735
Au 5.965943035340227 3.3303207284835983 8.166063505110259
Au 4.349956692395731 3.2512467871185975 5.761300167609388
Au 8.002363270163645 5.490843933478816 7.253914626977727
Au 7.804412325410807 5.229251207004684 1.8646859674044578
Au 5.245459920375909 5.041842626186956 10.261014230456302
Au 10.595136728059586 10.239863009100675 8.651136485594806
