45
Energy = -119.92886216 eV
Au 4.384334259150129 2.3624973623025105 6.517029370493444
Au 5.173221519040374 3.1413365906178408 3.898193743869528
Au 5.173462337583286 2.6517304844865333 9.165389694695158
Au 7.026736632220673 2.056667044139388 5.649031439639515
Au 2.9351449176730737 4.276991577545013 5.106298808975177
Au 5.768006749882465 5.364337344109508 2.2593678264447012
Au 7.736801915861708 4.2037903072555265 3.8969180006240602
Au 3.923540961805558 6.742140309193618 0.7789346035087498
Au 3.4144002487387226 4.607807536212935 7.863801013989109
Au 3.3408873607254823 6.524892273941412 3.415124417138564
Au 5.479218477479035 5.7074607240100175 5.058295890123563
Au 2.907304687611218 6.819856883520301 6.1859540986217665
Au 7.316848372294902 3.731061991729701 10.562525522078536
Au 8.175563034547864 6.704998580944065 2.6175101120854527
Au 6.828528720354192 8.06580764056482 4.7116630888474935
Au 9.214276988593543 3.622305354063661 6.251711727884534
Au 7.029160609084205 6.199213460729228 9.12776332068211
Au 3.284467314659675 7.151703034106325 8.917218703742885
Au 6.341141706177812 4.331419864258241 7.297480729914652
Au 3.983428530125531 8.897143919964954 4.6849144086722285
Au 5.567520860672793 8.316942190196574 2.1986701797682784
Au 3.942892920217204 11.54604753858641 5.435799641545084
Au 7.89008396559465 2.1860802629906004 8.307472044983715
Au 10.279849531676907 8.334245122026372 3.616822621374798
Au 8.122228338546982 6.302290178803039 6.487652206911942
Au 5.584887980171627 7.489814956475159 7.1565368782106455
Au 10.024209339941965 5.586052217146116 4.425726971741688
Au 5.932881119605299 10.713114273678713 3.6988424385702583
Au 4.734041502122408 7.803936486976756 11.269391772787705
Au 8.634434522932398 10.078730205736646 5.2734004734122815
Au 3.138949361260565 9.680078818333813 10.085275426740871
Au 4.640124536885909 5.114693428740557 10.308066288012277
Au 9.667284036187436 4.2385856108984665 8.971748581450678
Au 12.305311890809694 7.049129285621415 4.97031750491173
Au 3.4421006604063407 9.500833829925009 7.340572479174668
Au 8.076300255210493 9.481803956144352 2.5478422768866875
Au 6.578907795963327 6.0026474481091885 12.02465722534999
Au 5.7519135437313 9.442232644334256 9.221316801878064
Au 6.132047275121885 10.342927389498968 6.543916242272606
Au 10.295165304747702 8.200494565647757 6.447883160847067
Au 8.161506034229799 9.099566367858671 7.931687575201724
Au 11.11579937985308 5.543449518579506 7.038040400194074
Au 9.797927275876749 7.090742201860836 8.96376244595096
Au 9.205742694825044 5.744637699567037 11.292376362920981
Au 7.828272186792283 8.276247618924339 10.6779435816341
