46
Energy = -123.24996907 eV
Au 10.879981740354335 4.342515628631439 8.2432516238808
Au 11.098930013866159 7.020474205398594 7.73529443429429
Au 10.030366591504507 5.392422367986948 5.802765209844747
Au 9.849114372960466 6.026028921939133 10.12612964904853
Au 8.74956907160961 3.4106826886402253 9.640667212245225
Au 11.610936326707016 9.66969558825076 7.610409318192703
Au 8.965767215888425 2.945211101752559 6.878653391585821
Au 10.766104105830706 8.1612134448603 5.223709134542332
Au 9.71993000918568 8.800104834620786 9.45684541328575
Au 8.025644135897839 5.040715326572151 11.832936025278997
Au 9.297859639935739 6.468111341444093 3.3805773007696542
Au 6.734780280448541 4.758851444796974 6.906831859216376
Au 8.112639855620728 4.1437411373633655 4.2838172827425245
Au 6.518578522157825 2.313593887380811 8.221231497339822
Au 7.6606436395309 7.633067519701136 10.85447085113104
Au 6.749404177263286 2.0757214546822 5.467798328749695
Au 8.993488075445933 9.714658460271291 6.831875052147983
Au 8.168940299009309 6.879877616397701 7.962781164018986
Au 6.229646543670225 3.25900517316678 10.744790984866542
Au 8.31501466415568 9.353711405266537 4.196629697937283
Au 7.328817835502945 6.950035694685479 5.326461524624358
Au 5.493404075226298 5.865479700102594 11.028299063974696
Au 10.38371969357951 8.79051735601198 2.5224109784870956
Au 7.796708262477552 8.270967953822742 1.6045248714617513
Au 7.024442201326848 9.463908432675817 8.817152159992446
Au 6.7142242626899185 5.79563936638015 2.52818534480839
Au 5.081303303906999 8.594496108989269 10.606430183259334
Au 5.380382952666669 3.604410070234941 3.6763447959156843
Au 6.333034734665559 9.651926795238747 6.104643290133152
Au 4.469297199499968 4.206546508127851 8.889758960084897
Au 5.340100769903168 7.045380043260931 7.389221751943894
Au 5.712527861234057 8.795417399074879 3.4724418920603313
Au 3.36030464833078 6.638200736856025 9.44643981988744
Au 4.360047828079432 3.200998204669252 6.308646664228061
Au 4.371442930102766 9.616890488725653 8.021571842081288
Au 5.216007838649025 7.636061162000118 0.9947330055439221
Au 2.4687605411454316 9.183552546425895 9.961048515599757
Au 4.700647912017783 6.203465308783561 4.712822421666131
Au 4.010129757552528 5.335701141903019 2.0253244963060353
Au 3.7518242259468035 8.806983687696775 5.433368830563258
Au 2.838794778718634 5.416265241973525 6.978822519829386
Au 1.952403335916624 8.051666915214579 7.462653457020886
Au 3.108705158280019 7.96265787858455 2.7860279322284622
Au 2.6592594946899872 4.249561111262948 4.376428183511119
Au 1.3600011564573509 5.795061954908542 2.5068103516997287
Au 1.6337824795977713 7.015720743488272 4.97148991980389
