47
Energy = -125.7064709 eV
Au 6.5910961684067315 9.24375439498969 11.695994625559951
Au 7.904266589089457 6.845619498550868 12.17687428553451
Au 4.7743560008071935 9.333093738601487 9.654528131124035
Au 10.048997632161127 10.613617416008035 8.96461798610935
Au 7.286762580487846 10.695296071190564 9.475842987879119
Au 5.4930221795700085 6.862597173148773 10.822117851648942
Au 5.17706022732715 11.094676942921298 7.597377683455474
Au 9.166463594138175 8.862987060490775 10.814346872167622
Au 3.577403883156397 6.886192026437655 8.829013097736317
Au 8.420571989511117 11.5980225346286 7.083496464503389
Au 9.774200857489054 6.127600962924962 10.263856886594347
Au 11.307284281048966 8.1730087173467 9.084776170603655
Au 10.751731414522016 9.405718901633005 6.6097880347720706
Au 7.366726247771134 4.71090030755631 10.537315044734958
Au 7.015811200696457 9.143700145000283 7.043379673505929
Au 6.513292442220699 11.503831367160643 5.181019773478006
Au 6.348734910651228 6.636549511269483 8.147032601275733
Au 4.844075212330201 4.564848237873408 9.356545965416094
Au 3.0638825582421796 9.197617920762925 7.452438522352363
Au 1.7881861580597262 8.814401268821742 4.97529223017938
Au 8.954201529595144 7.425351911151139 7.782886199181521
Au 11.133436579604247 5.7040015614842225 7.848347409837782
Au 8.885419902556933 10.233587464913857 4.67122525260614
Au 4.149819309055348 10.17229040810731 5.104427076705374
Au 10.46644302727634 6.709600533596868 5.326176912478942
Au 2.196435083679786 6.591221864490208 6.568551942645631
Au 6.696675646668645 2.5979851998106236 8.785718406681784
Au 6.4184771531961955 9.082719128947057 3.866244944244116
Au 4.773172629085796 5.730553223545761 6.001149989434704
Au 11.199966058339845 8.970706043223828 3.9408110239498546
Au 8.841959564679648 7.75357476812681 3.2763769154069724
Au 9.88777966033272 4.094387965991025 5.983112474230216
Au 7.083257855188587 4.2730582400789645 6.512850424100412
Au 4.414297762257524 3.110440682906712 7.110168272289741
Au 9.274221775759848 3.841361434750788 8.765738953669484
Au 4.025511731704817 7.731549551894246 3.7297575904379956
Au 1.6653245703029078 6.269758417466592 3.86426706923538
Au 2.5931248144091996 4.07852699828373 5.2797207009532805
Au 7.3147019105839535 6.851705862464771 5.514541058157559
Au 6.119778971372431 1.1351159392610408 6.303672047463865
Au 6.334025778436137 6.491959629143272 2.8681546327897203
Au 8.668382209651915 1.8381157022540957 6.966399030632123
Au 8.561799566941648 4.987816189637554 3.7359902395485145
Au 4.0313890769992184 4.987752006450755 3.0578710021610807
Au 4.799148627315462 2.628456793388902 4.378354860837795
Au 7.726291308648228 2.4505836500094156 4.404632403964494
Au 6.386129709855166 3.758882572488692 2.402296218910037
