44
Energy = -116.50268417 eV
Au 6.433776791183911 6.389698872673749 10.41552693715393
Au 9.007362667017926 6.665472836166696 9.33917251612009
Au 10.382199578649644 6.618260491864398 6.743527015316263
Au 7.335670686711642 8.899594460294868 9.65503850036671
Au 7.572459568225564 4.061358082519126 9.387643542759724
Au 10.111960945969873 4.336827518860132 8.274531554415052
Au 9.191842210739448 8.889893644983793 7.656954567384038
Au 11.455566526688989 4.336701892375396 5.594052307692051
Au 10.348501955773106 8.900458462339827 5.136669092811002
Au 7.624684348899094 11.141900479570507 7.993552110617573
Au 11.286048181575227 2.1047577957562895 7.209916581324222
Au 8.508580907836398 2.2366587779194256 7.400758350272434
Au 7.960901426575792 10.187783019941755 5.396808363591492
Au 3.683352868220059 6.401196702602161 10.913396898390538
Au 3.948382367594745 8.25113374414697 8.691821801635603
Au 7.556083480893863 5.784702035154904 7.193525221396807
Au 5.066635081021945 8.798366736634648 11.178632814149134
Au 10.526616704478263 6.408977471508492 3.958462309263313
Au 6.310562868291941 8.284504209349114 6.884380059557772
Au 4.800027671783866 4.35544152016172 9.480797320441138
Au 5.154915303217236 10.710753209119357 9.206654273651397
Au 9.811268854576161 1.9206077989905734 4.901805730310422
Au 2.874436463335273 10.73212301090599 7.692017778289227
Au 5.3426892655722895 10.885211931273037 6.390078645440804
Au 2.355327466673145 5.99199775362005 8.46405250595326
Au 5.863530664541941 2.870436775620538 7.439332415383149
Au 8.749503167645205 4.559392215207829 5.037628452776459
Au 7.022303309225149 2.3470575208272386 5.00463914584681
Au 4.792476379521667 5.9624646396211975 6.992852243834117
Au 8.545689382136315 2.869448655778114 2.6772268059510362
Au 6.466806490860207 6.1904180557907145 4.74196638588279
Au 8.293096296294678 8.14615057059249 3.4517295230763514
Au 1.3446767670741724 8.393649518382007 7.4945488093178625
Au 3.664967362177278 8.621764566067625 5.900404088454682
Au 5.773993534739385 9.30332496163823 4.0636755475817266
Au 3.165873309374353 3.5647862066415343 7.419452257278008
Au 4.539757466258878 3.62363186805502 5.072638592982586
Au 6.0760762676751785 4.024862591695787 2.770963565716956
Au 8.289222955323895 5.628806165366681 2.3888441580216737
Au 2.3509016329764765 5.612666453935252 5.6297478271389005
Au 5.881636488613692 7.186479510885646 2.2396929508529695
Au 3.843878073115189 5.546728107643359 3.2949974914794002
Au 3.4386094425446747 8.208517286309661 3.1368102787204326
Au 1.272601073810034 8.018109476457735 4.75953509246872
