47
Energy = -124.82486933 eV
Au 10.73887821152884 5.2741248937508 4.862966291662136
Au 10.412778033621024 6.631268193183751 2.453189683871491
Au 6.233286757324072 10.304023673477039 4.01024769681659
Au 8.55510118410345 8.607472455612854 2.6151275606973776
Au 8.349861522627663 11.363870121932447 2.7077818302182033
Au 9.832437574733097 3.9164374361017376 2.7028887354897866
Au 8.062827725507914 3.213124756216063 5.710547022091699
Au 7.278327133359869 3.1743696892278397 3.082028907063869
Au 11.39407112580443 7.924872327779832 4.699758516890163
Au 5.1699481531120135 5.048939236572893 2.9871057625752777
Au 5.892471186427862 7.6219894550377285 3.7425280158498033
Au 10.482601680066598 10.333084906497831 4.0341408255200735
Au 8.376447087061935 11.305043151379703 5.520945349802934
Au 8.321154758838631 5.894573822835629 6.809420231554966
Au 5.111927444414358 2.7228222537093423 4.644970202842976
Au 8.97692049826265 8.262676988418043 8.78665367827351
Au 5.722927510146906 2.4695851200811623 7.2688982742536155
Au 10.319523256606665 9.556540264042333 6.713189788054566
Au 3.344611302603538 6.696788040912542 4.361409329374697
Au 6.034354615073841 10.463396805844019 6.834103438613921
Au 4.109335253006061 9.189054397438023 5.280915366804094
Au 8.213546575231 8.218382363377199 5.3249258107632595
Au 7.990278377308404 5.854628159640763 3.6595461667368494
Au 1.9475973523542132 8.02065155327573 6.430316028271663
Au 8.381171933945726 10.914203971154716 8.217501330238443
Au 1.2859016899511242 5.341710201198178 5.73591492336036
Au 10.38875183885757 4.048693881430776 7.217713027684263
Au 10.912567607076475 6.868878197117632 7.213611659076774
Au 2.744368164694073 4.029552018224225 3.8529834235179194
Au 6.138172236927215 7.6243540163888746 7.143421624937892
Au 7.26749376774107 6.975319615429 10.624964430150037
Au 3.813286809003666 5.990562990179418 7.493065733325854
Au 11.39407112580443 6.713536284949149 7.734684672315466
Au 3.9230288482083986 9.138670872457428 8.113236356817154
Au 6.439402561965122 9.356351431507676 9.431492284058386
Au 3.093219279140049 3.2582302384643036 6.505473191070845
Au 6.2012241007335005 5.1178396609073795 8.562151737129236
Au 9.53921045964867 5.63970234078718 9.394362914902663
Au 5.8700087299360755 5.264930627434515 5.6834611583312356
Au 8.25375143385737 3.0201412825577005 8.487305193714622
Au 1.4837756158328563 4.63211365516238 8.438543268085988
Au 4.569427196416108 7.384641237158037 10.177366289126004
Au 2.0373884703275453 7.438939894730139 9.221097027912913
Au 3.7539517214813714 3.443751096887582 9.171429115317263
Au 5.092336909820293 4.886507122709711 11.116952330367917
Au 6.0710185213498145 2.352051059088719 10.022639619581469
Au 7.811453414823812 4.3014565377903216 10.966915726730623
