43
Energy = -111.0077215 eV
Au 10.810578882267613 9.127153243799677 4.073627150148141
Au 12.027995087934872 7.346652606038406 5.844936138971144
Au 11.828410848653249 5.697630753623302 8.033934771038501
Au 12.105584698507087 8.311270512575128 8.534957855648933
Au 10.609394571281504 12.30608428292538 7.5272219695069875
Au 10.383224465304801 12.051957201877848 10.359769588893705
Au 11.228106342616982 6.851021215606184 10.64347718335232
Au 9.99996868558404 6.4401865582124955 4.231625903847075
Au 8.653209385826335 10.959273723940207 3.482841365492366
Au 12.523835351281077 11.013836226181242 8.92855719858224
Au 11.198092167737862 9.500110571107374 10.837818437952318
Au 11.621313084147925 4.62280145411965 5.553005216535238
Au 8.100297600226597 8.372672934450305 3.7271048917284286
Au 12.134972366339909 10.027218395067324 6.4115156001163305
Au 8.159107736724987 12.603137938668457 8.79665022519516
Au 10.766764242022557 11.79738909510673 4.8786114694642215
Au 11.066698560790886 4.207897014565294 10.174935988194758
Au 10.140877413616671 3.528915953588111 7.65733220757158
Au 9.048532972771204 3.9247473747540957 5.089153696224719
Au 4.384034936111593 9.539481421692308 6.46937707750785
Au 3.8412956543453567 6.919604453151264 6.615348309370477
Au 3.957397920977622 5.806606792674711 9.657808604004357
Au 4.105624068841152 9.656180992894017 11.126440686598542
Au 3.534241730957565 10.90088741224299 8.63432113951023
Au 6.106250313220017 10.703185213057154 12.672344793153695
Au 6.571461413219722 5.252925935390246 11.494992392273925
Au 4.4943015316352 5.325916645122524 4.412971975188102
Au 6.423963925226449 10.398651071896275 4.856032700566576
Au 5.840059797961057 11.507490623935894 10.030254264290575
Au 4.683667774750894 7.02686800600087 11.977123003190577
Au 4.725168095479151 4.459673850398774 7.040644147984268
Au 5.4676998072056975 7.8545183944890145 4.577567246275424
Au 6.035598887902299 11.452450062352668 7.397637925886726
Au 8.401696335876695 3.6803018694544285 9.863081293423944
Au 7.4629320190884245 3.1678291246200243 7.321327155172476
Au 5.791910959465352 3.8130704820747887 9.354341643099449
Au 6.36880884739822 3.5053499358413114 4.890975893567891
Au 9.240108821561032 5.410402687325232 11.800682094624696
Au 7.966969965174317 12.32546815109318 11.500691174968612
Au 8.282086014910004 12.040338596690919 6.100512778455461
Au 7.282695292609038 5.851057304915323 3.923183906202631
Au 2.313255706750201 7.6510095963678095 10.88381769923893
Au 5.698719216745552 8.447687821160041 13.998358738028715
