41
Energy = -108.54462597 eV
Au 9.354533801426141 3.978085854267459 4.443346073038667
Au 9.254516122185212 4.68027392155737 1.781590461807331
Au 9.36870774292054 3.314082421760712 7.057830207810499
Au 9.981590984982798 5.968201279308394 6.304097906932149
Au 9.970910942897847 6.642088545094954 3.634380723483752
Au 6.9715725371634605 3.585179188951296 2.9821811468516524
Au 9.128645392850881 7.366335473330574 1.0681772535113523
Au 9.379689762092596 2.611391772566178 9.711576508893462
Au 6.914503100402703 2.9569207504814305 5.700642610109865
Au 9.605690236427556 5.318540524765413 8.999925856795679
Au 7.234713302049221 6.053577824940618 4.446154471291094
Au 9.607784857741793 7.981150975989667 8.194306773715727
Au 9.907848814353661 8.692930512986772 5.544940144501487
Au 6.787574740784177 5.886100413467656 1.439331139684493
Au 9.650144731581612 9.37859417652209 2.884401833438944
Au 6.898393733803656 2.9057601480248008 8.551381798667467
Au 7.763086963895723 4.4168517897034585 10.923199052989878
Au 7.187669999900388 5.384844924542497 7.248072137362097
Au 4.723557323729538 4.2146161874485895 4.418009181288427
Au 7.343391660506148 8.045980350919985 6.436187362102041
Au 7.02273311261834 8.389924372361468 2.6120284413417596
Au 8.158756905631673 7.211057791706507 10.41080482541225
Au 4.66717379940469 3.77157173477709 7.2058093680434
Au 4.918642373099169 6.654357130052118 6.016387462941889
Au 5.187230572588132 4.699641884718047 9.844106953779969
Au 4.757485619390553 6.75598909488273 2.992337765571958
Au 7.441447096620554 9.554783848048556 8.913494666402888
Au 7.661350219906119 10.19098346584614 4.621091933793715
Au 6.10410156297286 6.190467691597988 12.079089790527322
Au 5.679971871001244 7.280461803380993 8.626996433562722
Au 2.5656173555822184 5.03260055428795 5.874712475534532
Au 5.070038934016485 9.160543280735137 4.440276858834808
Au 3.0723597829165867 5.823435703348672 8.473621313049774
Au 6.025009207791053 8.828754844344306 11.24331483478584
Au 2.7043516276114294 7.64647528347797 4.520271822566824
Au 3.8817117582836156 7.095262343624949 10.808656618454878
Au 5.937636705427202 10.491796628384416 6.75546689290951
Au 3.418706325488046 9.233985021462109 6.698429476268223
Au 1.3138336119766587 7.306269626399142 6.860117454368006
Au 4.637649853729665 9.914756163926372 9.115988827104507
Au 2.2646260352074705 8.492025216703052 9.136510407613546
