43
Energy = -114.66249879 eV
Au 11.216382961603424 8.227130669651602 5.784875283229322
Au 12.148885693749277 6.359684222674134 7.584323256424404
Au 11.57896271818733 10.770203440597792 6.780893085010539
Au 11.02465433211764 8.716977368000727 8.569340226181161
Au 10.791339732073075 3.9655732208171948 7.679387277270319
Au 10.309454105502862 5.647318195757824 5.503407706076734
Au 9.256952096383854 7.65189982185066 3.928596306219525
Au 9.776031730825384 10.372763749855157 4.738051499829984
Au 9.04753521805857 3.1963836233409255 5.637083970520242
Au 8.589628370934914 7.514860309856858 7.044539908814717
Au 8.95949807096633 10.33159098010742 7.5125090805618715
Au 9.9470855246495 6.214376657271045 9.28113083357986
Au 8.499742029410294 8.619797309381772 9.720262015769144
Au 8.527489614233883 3.846389155712299 9.203035356812903
Au 8.086293178778705 5.069828830256422 3.8260682886812716
Au 7.297877855548166 5.01973496744602 6.818510891028605
Au 7.91186989008594 9.829731377940801 2.852141866063081
Au 6.53888760677155 7.262554150699457 5.179585824337767
Au 7.059329135397866 7.198698542790795 2.34426345659322
Au 7.0095079683692205 10.191432366700079 5.50409232245352
Au 6.325608812298353 3.1315750079113447 4.838176190399491
Au 7.171231445060319 2.215919873396252 7.44508207186348
Au 4.395663722507887 7.360840921807592 1.676025339332921
Au 5.289344929030317 9.256311424267228 3.5313152519995614
Au 7.348298314225703 6.081854589453756 10.287864622137763
Au 6.348323662225657 9.843510621050164 8.193245625367757
Au 5.832343079368251 7.025531893864614 7.92145646075305
Au 5.777996737883218 3.940514536520464 9.221715176823148
Au 4.460319812097497 9.223922815759218 6.199855023809605
Au 4.519927689326718 2.631780118485803 7.030307281433655
Au 3.586976721621236 3.3274184914731215 4.369907855761365
Au 4.508771602783023 5.43797063833793 6.037411300715601
Au 5.29862180602149 5.197280242275983 3.1900326664065095
Au 5.970034402197447 8.489480060949829 10.64107315518647
Au 3.3753564885223466 7.428910686464581 4.21310034789361
Au 4.519755269852437 6.16381881554181 10.31991382343984
Au 3.8233650966110915 8.718919240344642 8.878599106276308
Au 3.120235880204618 4.40755226098181 8.674085913113798
Au 2.440586081617191 7.3986029442498715 6.827826530847243
Au 1.8733664486894206 3.0670920998994635 6.549487358156969
Au 1.794735275884324 5.363226620169298 5.019337666628044
Au 1.9598185134617574 6.82037435163291 9.531826267848565
Au 0.6862536114063731 5.303728708916124 7.6143642151308875
