40
Energy = -104.04635943 eV
Au 6.571592917329986 4.239933217646781 6.637485156360094
Au 9.007122176534128 4.881531679299301 3.8551158151172986
Au 10.576912372836539 3.7097988341548276 5.857943545173027
Au 4.935583439727785 2.3609413972623767 5.48997464837262
Au 11.088548519442579 6.517339176749127 5.253818116764784
Au 4.19845914340289 3.341017120643701 8.15744149448266
Au 8.20786045658051 2.361164805272421 5.489993678089849
Au 6.571539411912344 6.3742549297861135 2.440018962151936
Au 8.944743951780787 3.3412358482344486 8.157417601797048
Au 6.571658390164154 1.8618437117838893 7.899754536223142
Au 8.951033303442529 7.615984364262536 3.6612470772708376
Au 2.5663537352738075 3.7092309299635167 5.857940716986675
Au 4.136025006576337 4.881168704783737 3.855103845405171
Au 2.054461513789554 6.516739834196703 5.253689258720021
Au 4.191950288765067 7.615652016507688 3.6611632164489887
Au 6.57152194958636 6.451689955505184 5.067128083393057
Au 6.571651095896977 3.696051115323198 3.599567294208023
Au 4.298460693773927 5.833978318869116 6.642670877172646
Au 2.0097458352445523 5.219750306465435 8.119116614399314
Au 6.571560598130501 4.209395909107751 9.601358987175113
Au 7.985350406290143 8.502373003332048 6.363064205808972
Au 5.110617702573426 8.762406893970764 9.374674624436045
Au 8.031915521951992 8.762614272508044 9.37474326609369
Au 10.514393951188548 9.20090489943889 5.433560005261757
Au 11.133311338212875 5.220166190352392 8.119265257427521
Au 10.423856884146492 7.9000876126243185 7.946154969463041
Au 8.938582006579864 5.989148387486977 9.612922865061536
Au 6.5711435700320715 10.681392155612635 7.810841634721355
Au 8.844579949665274 5.83424334730444 6.642735081144997
Au 4.204350526643729 5.988917823825521 9.612871920657563
Au 6.571424601870803 6.795038319554345 10.804926616957113
Au 6.57140024135758 9.058676112504024 3.6979080968182845
Au 7.9473859814699965 11.023127788518197 5.252302415896713
Au 6.571453987699003 6.683904889731444 8.029162131032477
Au 5.1951941415331895 11.02296791346472 5.252282675407357
Au 3.727377314388052 10.54563871369924 7.615316467497909
Au 2.7188051981288948 7.8997142730736 7.946029185478762
Au 2.62829986321413 9.200385774629126 5.433342006108364
Au 5.1573545054389 8.502184705923925 6.363020489337592
Au 9.414975972737524 10.545963214631225 7.615485035749425
