43
Energy = -114.14826659 eV
Au 10.08569280544694 10.901771864012389 10.187874348331801
Au 7.5671171313605265 10.86231620673603 9.14498341542758
Au 8.193489019839502 9.425649695156876 11.530892191722408
Au 6.641377073349156 7.350809167973982 12.265693364314894
Au 6.691715160766196 12.385595838491245 7.076983133608161
Au 9.961909344950751 8.161718842921273 9.822362655500607
Au 10.232947513222907 9.975614870718847 7.580462819825384
Au 5.288625415541173 10.057067123227466 7.701259719003205
Au 6.9011132245549875 5.207819699767612 10.560804200312768
Au 5.936246887418566 8.72519976775446 10.007172357858522
Au 8.317374424400974 10.606652068315073 5.7449753600360625
Au 4.461111111987405 6.494915926691768 10.76175453519192
Au 7.936111834862128 8.346231460793225 7.790449535233198
Au 5.670992508633482 10.756700407071605 5.077911904725175
Au 10.719720105880663 7.13488434291423 7.4096382720588885
Au 3.7002529018912833 7.950214056629902 8.443651748713027
Au 9.145457561538764 5.660405377100554 9.102681655105147
Au 4.725838151193569 4.079751631716351 9.181505226090726
Au 6.124548954248437 7.849025722556802 5.685333847457152
Au 6.081090424309955 6.303247729367239 8.030596155560605
Au 2.4016912345112873 5.653235901923718 9.180757356801553
Au 3.532434373805188 8.799063751545681 5.82256802716918
Au 9.838086053231251 8.452751169112144 5.118076410761893
Au 8.2118228373246 6.0628185545783895 6.078590459112642
Au 7.57812653062537 9.007186529059966 3.544703813726725
Au 2.585002718927741 3.568738146353123 7.44957647375256
Au 7.379225018331559 3.6667323137310506 8.30437426540043
Au 4.778972703821646 8.958094723221382 3.2835534975966603
Au 10.883727208233536 5.87591465093962 5.0090037356638755
Au 2.5876458738964474 6.223945924682939 6.469504230010101
Au 9.830066958561204 3.9953845087322932 6.90821614141699
Au 5.7461012024121425 5.101322850119155 5.374454961656067
Au 3.605024802979431 6.579253679440468 3.960368211815171
Au 5.1234013302288535 2.7061228654705474 6.827553721236606
Au 8.826888486832267 6.496013408783095 3.26303597740378
Au 6.1651044361711085 6.7236112747452745 2.5790039952200936
Au 9.597888812631092 3.7123618006042123 4.029427586757903
Au 3.219043473495814 3.9313687982712735 4.836386766189203
Au 7.692755365683668 2.6425457927236224 5.78600894335509
Au 4.573082766877937 4.458997463045191 2.4188083435106016
Au 7.298261448005051 4.266120956469214 2.59683640758599
Au 5.469924475756346 2.454762165636072 4.081924387727666
Au 7.919769828946561 1.6548404675824333 3.1970593367405473
