50
Energy = -134.27924049 eV
Au 9.448957064041913 8.107763839729909 10.949748389951719
Au 6.781070084930339 7.4328527988424415 11.13370736443574
Au 4.219387377919309 6.557210758874681 11.018270337300702
Au 7.563102437124754 9.8320429657502 9.91905446802256
Au 8.91290488778825 5.411008374251623 11.097812342735683
Au 2.531506069093475 5.4321671949908135 8.879314302987593
Au 4.888239538380952 9.25861889793532 10.031446945752165
Au 10.809072885905776 6.3401949723291 9.269436059481324
Au 9.802491224117501 8.709880153432735 8.285784887126967
Au 2.3749225650604218 8.104452779368517 9.64194731538828
Au 8.50753056549457 11.010230536631779 7.646995821515517
Au 7.488936578603814 3.4318343966544607 9.934937820419208
Au 5.72917639948242 11.059764731368883 8.034014500033885
Au 10.140050250932925 3.6141357699310146 9.230221238677657
Au 4.8481503462537106 4.197553010335232 9.7902963671037
Au 7.596783189055418 6.099158170841524 8.78145526504592
Au 5.698396098507626 1.8568842585351997 8.589636513153524
Au 8.274582144332863 1.9577796882648786 7.668036993553749
Au 4.968514386940179 6.821782262863897 8.417359967401648
Au 10.793675882775494 6.949212510094334 6.419210137936575
Au 7.0430038156537025 8.470778444173439 7.2838087670071126
Au 12.059220670989424 4.72230664925305 7.494748503261002
Au 1.6938027143110328 7.5141952919610695 7.082970611842134
Au 8.847107888103558 4.686911628823846 6.829010648614101
Au 3.162176429352554 10.027629251607719 7.883427272497083
Au 6.330434377675274 5.95446172628676 6.165807244408306
Au 10.779575949006155 2.404118538080837 6.74097923169368
Au 3.7102451368147005 3.3522307639102986 7.380899176496334
Au 1.782199165742462 4.889671291488918 6.234953141267511
Au 4.4768886123500025 8.157563592070742 6.078141621387463
Au 6.988363548754167 11.222190094902462 5.468157835675157
Au 8.609366826986808 6.45176267493983 4.683892534297226
Au 2.0470669602380602 9.564873602767644 5.317055972929492
Au 9.241396820550525 9.151350879391817 5.569663169266842
Au 6.214087938275214 3.0167944365460535 6.111120777451856
Au 4.266149501174539 11.179239066500573 5.611557560540047
Au 4.185452527532485 4.5258842254765685 4.905181999443999
Au 8.737077972844581 2.6719172255027153 4.8559104432560565
Au 6.691024793089708 8.563390925924212 4.44068539138499
Au 10.982916537599728 6.761280940868924 3.365109863766985
Au 11.08950876432364 4.471178041443644 4.893783721599156
Au 2.538876648249128 6.835904133325139 4.469172412698733
Au 3.861403650326643 8.996683496046494 3.3347256572091855
Au 5.58575046423758 11.069300425209143 3.1518472895849996
Au 6.717809619267545 4.3469922140423245 3.72683508010925
Au 9.31737974522581 4.3841126496858625 2.751842199477706
Au 5.01415783545892 6.481559587744742 3.1381412347571835
Au 8.947093466323398 8.521842941813798 2.7427677471574903
Au 6.229813961229238 8.722435254309904 1.7329998969590086
Au 7.519305972428735 6.272987967285583 1.8856914523197439
