52
Energy = -140.0991246 eV
Au 6.156582093295761 3.461709488600118 10.564434840056617
Au 0.31798254885576643 7.208056088972101 5.852782834276044
Au 5.302401228661698 6.076155939834363 11.117277629392982
Au 4.559911451962585 4.889709795909897 8.632703175028722
Au 2.1748721062873564 5.873585627094702 7.437027727341479
Au 2.0449638231375533 8.678559312128717 7.395373382108184
Au 6.2367255903360705 7.2326111918301095 7.743066854451291
Au 4.8615132370925105 8.84576185152145 11.169899154450492
Au 5.4053283810012855 2.279492686432909 8.110699599879808
Au 3.2385644050272786 3.4692705205697636 6.523916513024856
Au 7.987136719179765 2.084774587258413 9.001698935563386
Au 2.022721211079384 5.488185549653741 4.621594137322266
Au 3.8647384391755173 10.071248231048315 8.88593429218961
Au 7.858864149765849 5.326014527500752 11.930151374426496
Au 3.522019510763809 7.348676152613426 9.337061347304571
Au 3.844237309962216 6.677651517279518 2.8972196374280488
Au 7.600875673505332 5.3779366661408625 9.15167542219893
Au 9.858745172675512 6.702378349884087 10.30953216966095
Au 5.1598353648368835 8.468348935242387 5.607745697103975
Au 4.657086986807871 9.389955913184396 3.086738997895286
Au 7.4169351833367205 7.907608550608863 10.819531043374484
Au 4.57244467761276 5.830264972207547 5.8213617800479245
Au 9.915259663396284 3.3846259957887317 7.53314867840938
Au 6.601155546241493 10.233158562187288 9.562826614574842
Au 9.624695472247707 3.8289824501839758 10.375822421364926
Au 5.167379141234542 1.8351494456408437 5.4614392357155745
Au 2.491375135328385 8.428745351136126 4.5984289677924695
Au 6.896076789384481 4.453742127181305 6.6732608165751826
Au 5.515584302113883 11.84190891242522 7.576344980405883
Au 11.623211767218486 5.053713838655269 8.967623574200632
Au 9.152958963660298 9.144180163243082 9.106891662402747
Au 7.8668481660368474 1.925787508584232 6.2267971890274705
Au 8.929755758926905 6.524633065730858 6.9881532269752125
Au 7.844424704675271 8.964222273775595 5.995433245419381
Au 4.001502839257091 3.8150666418969945 3.7971125251710163
Au 11.353953355533314 7.675396275271392 8.176959718792288
Au 8.155490068039944 11.220939749691745 7.531839093574843
Au 3.499198639993926 10.630445383757502 6.110287525511769
Au 7.110299007244677 6.573753248009875 4.736207975309806
Au 6.799066840569514 3.3923304391115914 3.9284032860204094
Au 9.256407208690629 4.106724711365292 4.932602419520361
Au 11.408751168783336 5.400106893953018 6.253704711417972
Au 6.034683865019517 11.096681177614839 5.000160400125124
Au 10.408399339521376 9.879125497188008 6.745871067669066
Au 7.430449198428418 9.76959767178823 3.116293160453316
Au 10.27550404952425 6.495371520648926 3.9946148323757034
Au 5.609330477240925 4.839356679017686 1.862651756119383
Au 12.019026375478456 8.019712317794719 5.506594911036969
Au 8.22383089385539 5.344003378207369 2.539347156180834
Au 6.329657733810917 7.491634469729125 1.9012764413854553
Au 10.019132710400369 9.29442175052794 4.056416500062396
Au 9.045116388122633 7.918878042172221 1.9090169847962046
