53
Energy = -142.42402304 eV
Au 7.5071723960513195 5.496340748685476 1.5884689452958969
Au 8.003521880811778 3.358315761794332 3.4516451087168414
Au 10.108163121164218 4.970270362651541 2.6760497553940117
Au 5.4109915156672495 3.542890762837933 2.6635742309224444
Au 4.485500382764279 2.5805469924107096 5.069647806153595
Au 11.983253270822741 6.924194660853677 2.4088031525859592
Au 7.7096697945392085 2.4532414200780597 6.053263563526029
Au 4.98291439138451 6.251944017305142 2.3328389260201443
Au 9.369995321557395 7.690412297157003 2.0655781116660985
Au 9.88093791028966 4.013953851598016 5.41851642705637
Au 8.110116514298955 6.073640846878555 4.282846674076985
Au 2.7911214245389 4.750056869300558 5.92964977260428
Au 3.212885766238312 6.916654272094994 4.383393685344901
Au 11.480034145228956 6.195059933337449 5.036982403433221
Au 5.581735171870019 1.32707082710429 7.365439728044287
Au 4.236835813839315 8.921852434644416 2.760725220244575
Au 7.45788545443301 2.8480641086660383 8.817101991755823
Au 5.5035580420547365 5.188585355319692 4.987827719917526
Au 10.479596396050095 5.752727778970846 7.502123726339238
Au 6.79621815982778 8.312701141316952 1.8337922351569813
Au 10.933488448795767 8.748736805898982 4.172554563888659
Au 2.9639480603820143 2.4277600774415897 7.437819938867769
Au 7.708865192246001 5.18997688581623 6.951947101269099
Au 5.206995326081081 4.126567728417934 7.58267621497058
Au 8.658842647295934 8.104354844503934 5.992178034489606
Au 6.144148210598865 7.918271615491644 4.610629218851848
Au 4.905834824505282 2.428989647531001 9.863701357073607
Au 11.190259228619398 8.408280469305014 7.021914700835807
Au 8.898050970021192 5.03540633551548 9.587594572048097
Au 8.370507454098533 9.902616843775341 3.6127517548034525
Au 10.154286641962344 10.741297770620156 5.801821413464995
Au 3.7013548568531967 9.425716562160748 5.556665918185837
Au 5.760332188306993 10.748832501552705 4.093402718111106
Au 5.298735977351522 6.8006637121054 7.41270897051601
Au 2.1772547629284698 5.057113165164674 8.592716369585327
Au 6.535775821247244 4.47341182419799 10.904207168981207
Au 6.404364937563388 9.308506014365882 6.990255711148614
Au 10.149932551581728 7.681560400008006 9.58295493831409
Au 2.6013014488303057 7.340148819838537 7.103611003741999
Au 2.170883397223513 2.697308187344119 10.03701399705552
Au 7.605594950126728 7.455885754821735 8.654549750670563
Au 9.021292538390462 10.103734713036529 8.204279808658752
Au 7.647128649899683 11.622973532754578 5.887546143102676
Au 8.069365267188138 6.822486980957215 11.463740968655532
Au 3.7451541136513136 4.743861740140634 10.933455657788596
Au 4.990300348345366 11.685371883490486 6.719241602443524
Au 3.912448810401234 9.562989312899328 8.331237460999736
Au 3.427494041525392 7.268855730195726 9.795345965273022
Au 8.025121033456298 9.502456474847653 10.657113901535837
Au 5.27497759113815 6.7366602131796105 11.850293937006962
Au 6.372115610966875 11.067449206729673 9.085313972914356
Au 5.0248831884853855 9.336609081714995 10.800291059258885
Au 6.682438109335848 8.794024273547661 12.91259696946734
