55
Energy = -147.29258569 eV
Au 10.142400109090904 10.142400109090904 10.142400109090904
Au 12.172123794823197 12.172123794823197 10.142400109090904
Au 10.142400109090904 12.172123794823197 12.172123794823197
Au 12.172123794823197 10.142400109090904 12.172123794823197
Au 10.142400109090904 12.172123794823197 8.112674423358527
Au 12.172123794823197 10.142400109090904 8.112674423358527
Au 10.142400109090904 8.112674423358527 12.172123794823197
Au 12.172123794823197 8.112674423358527 10.142400109090904
Au 10.142400109090904 8.112674423358527 8.112674423358527
Au 8.112674423358527 10.142400109090904 12.172123794823197
Au 8.112674423358527 12.172123794823197 10.142400109090904
Au 8.112674423358527 10.142400109090904 8.112674423358527
Au 8.112674423358527 8.112674423358527 10.142400109090904
Au 14.31511041634073 10.142400109090904 10.142400109090904
Au 10.142400109090904 14.31511041634073 10.142400109090904
Au 10.142400109090904 10.142400109090904 14.31511041634073
Au 10.142400109090904 10.142400109090904 5.969691801841014
Au 10.142400109090904 5.969691801841014 10.142400109090904
Au 5.969691801841014 10.142400109090904 10.142400109090904
Au 14.251833594143665 12.177954877910096 12.177954877910096
Au 14.251833594143665 12.177954877910096 8.10684534027171
Au 14.251833594143665 8.10684534027171 12.177954877910096
Au 14.251833594143665 8.10684534027171 8.10684534027171
Au 12.177954877910096 14.251833594143665 12.177954877910096
Au 12.177954877910096 14.251833594143665 8.10684534027171
Au 12.177954877910096 12.177954877910096 14.251833594143665
Au 12.177954877910096 12.177954877910096 6.032966624038285
Au 12.177954877910096 8.10684534027171 14.251833594143665
Au 12.177954877910096 6.032966624038285 12.177954877910096
Au 12.177954877910096 6.032966624038285 8.10684534027171
Au 12.177954877910096 8.10684534027171 6.032966624038285
Au 8.10684534027171 14.251833594143665 12.177954877910096
Au 8.10684534027171 14.251833594143665 8.10684534027171
Au 8.10684534027171 12.177954877910096 14.251833594143665
Au 6.032966624038285 12.177954877910096 12.177954877910096
Au 6.032966624038285 12.177954877910096 8.10684534027171
Au 8.10684534027171 12.177954877910096 6.032966624038285
Au 8.10684534027171 8.10684534027171 14.251833594143665
Au 6.032966624038285 8.10684534027171 12.177954877910096
Au 8.10684534027171 6.032966624038285 12.177954877910096
Au 6.032966624038285 8.10684534027171 8.10684534027171
Au 8.10684534027171 6.032966624038285 8.10684534027171
Au 8.10684534027171 8.10684534027171 6.032966624038285
Au 14.094362148746002 14.094362148746002 10.142400109090904
Au 14.094362148746002 10.142400109090904 14.094362148746002
Au 14.094362148746002 10.142400109090904 6.190438069435657
Au 14.094362148746002 6.190438069435657 10.142400109090904
Au 10.142400109090904 14.094362148746002 14.094362148746002
Au 10.142400109090904 14.094362148746002 6.190438069435657
Au 10.142400109090904 6.190438069435657 14.094362148746002
Au 10.142400109090904 6.190438069435657 6.190438069435657
Au 6.190438069435657 14.094362148746002 10.142400109090904
Au 6.190438069435657 10.142400109090904 14.094362148746002
Au 6.190438069435657 10.142400109090904 6.190438069435657
Au 6.190438069435657 6.190438069435657 10.142400109090904
