51
Energy = -137.18315691 eV
Au 10.257558883689956 4.349962777060278 7.234156570636784
Au 8.289717335564244 6.420339426847896 5.6202008759243824
Au 7.73621039772008 6.247003534385684 11.12823990631243
Au 2.387116826461296 7.330373276949288 5.5137359885653705
Au 9.333578699066148 8.297085819624941 10.37435709677904
Au 8.877412054310902 4.110625681056152 9.799168727632857
Au 7.293622369520398 8.721111418437312 7.120190922178349
Au 5.995191041794624 4.1605475633491125 10.73977609821805
Au 5.735436118293023 11.110938805715204 9.282926409948649
Au 11.052609419175608 6.884037114695937 6.364600868059424
Au 3.674112528082239 5.137004826567674 9.620629078587559
Au 4.757255603022974 3.0058999272847653 8.29861939382541
Au 4.479181539922425 9.276466234067923 7.2270888416165455
Au 7.0390591068558255 7.823733043580358 3.349820574283617
Au 11.193305298134023 9.496038144958423 5.405115377509826
Au 3.4560463520296607 5.297167787384161 4.069846852319601
Au 6.424306469056861 4.9316773066262565 4.195782226286329
Au 4.162688116704518 7.948978448154158 3.251021794992043
Au 8.179550265895454 6.413606632755444 8.364012801283998
Au 10.02109972114491 7.63483288733628 3.7852769201399843
Au 5.369742984960575 5.9422904220616015 1.8423148012325647
Au 5.386371153289842 7.0989561094105875 5.7268224337956015
Au 4.006729293742569 9.03296806437503 10.264309573153831
Au 2.673510893326605 7.356273539168197 8.359848858044145
Au 9.31491789757894 2.4224412014904577 5.442730018752482
Au 10.643654050060723 9.005551630822863 8.10908569343429
Au 10.778989840347863 6.326941449622463 9.094816659141223
Au 8.387084094436752 10.559601004522772 9.18038173111441
Au 3.3113950693516303 5.030786022465623 6.856851623026392
Au 9.625355473587424 11.220039644530818 6.838938156364869
Au 3.045793663598503 11.144431856451922 8.787626917884046
Au 8.473177621403048 9.792768371030007 4.756553444665959
Au 1.6115893802403705 9.538450678142418 7.03136471588953
Au 6.714437419995857 8.957180693048144 10.836411643637305
Au 3.0156459210458353 9.98275577033884 4.674343911152323
Au 8.636208543312259 5.699958387930238 2.4950517909996837
Au 5.031499828018786 6.765351236532091 11.407587088975866
Au 6.940422890280104 11.490055795897574 6.757793638602784
Au 9.337268528067408 1.931432143004653 8.10876308529959
Au 4.654992705951247 2.992124635700573 5.499704828951453
Au 10.49480696279644 4.867327632428538 4.4993786010510535
Au 5.750339368106397 9.969193180996923 4.639535802398063
Au 4.2714672591603815 11.872204420398644 6.349119456757184
Au 5.506857282467998 7.060363092747968 8.616083677867246
Au 6.425290035851093 4.76164738253042 6.972024620329902
Au 9.35921511622926 3.0246530543740535 2.8105961049978445
Au 4.600744426935278 3.1880341002942525 2.76565038671013
Au 6.9448493940001255 2.111069937524511 4.001611048808415
Au 7.014823073434473 2.005225207854562 9.48941926228905
Au 6.872022666346796 1.8247671875381348 6.7412713046221
Au 7.01307980779503 3.680043906139493 1.5700750532972094
