55
Energy = -150.87313187
Au 4.822013305490875 9.063250824132256 9.804276691549331
Au 7.666649668952185 5.560600378135194 11.029019061592798
Au 7.01212767080165 8.240187221624364 11.220701614704163
Au 4.5547288554504615 10.59310069288126 5.427653433932032
Au 4.867842119327376 6.5431672006177495 11.025060619754864
Au 5.350895931132292 11.135926301937314 8.030139203282884
Au 7.3453012781311795 6.689034834805146 7.063411793586301
Au 7.62826174603978 3.006952906172488 9.834325331527397
Au 7.078362712145015 1.8026805478134522 7.357545717804501
Au 1.9813934243524922 3.1479411821660577 5.689181757775146
Au 9.012241353804415 7.434955038225102 9.520335656907994
Au 10.696678923751698 4.299996760250488 6.60223008886752
Au 3.7639550707439398 9.129335812143408 3.181712789511468
Au 4.910893177618984 5.460487186003842 3.9331021098293286
Au 1.5925065345102454 7.435992525139401 3.80784246755503
Au 4.307658078528206 6.331241298961793 6.742176596347959
Au 1.7164998866627903 5.026948882558411 7.780037696509458
Au 6.400068987103318 10.146134193566603 3.4200444504974064
Au 5.77090622324481 7.880947134531316 4.943339530114006
Au 5.728136610173979 8.261507198872335 1.4425488512062394
Au 4.419518522933997 1.979795348168292 6.473521413502143
Au 9.68037150072621 2.2676720558721857 8.185607200970182
Au 7.180251436393886 10.20268539321209 6.174430178413149
Au 10.288533700386086 6.742706693766436 5.27657225258128
Au 7.994212947132269 6.995931656512989 0.3482900651651567
Au 3.2752628427605646 4.4940180996020205 9.961226977067076
Au 6.165941421569931 4.272477395646035 6.157632092968366
Au 3.1850375735783856 9.510820749590605 7.642012707118667
Au 7.645433498890687 5.864832568773102 4.345170173371903
Au 5.024777582504624 2.2693140793545834 9.176771753290126
Au 1.952696471453177 9.80418686327641 5.147733113362896
Au 7.460338802764582 9.628262927908175 8.877900101607722
Au 5.800997737663099 5.529356096723714 0.8557744973728495
Au 9.601327447334931 6.901678267335977 2.6004461127505887
Au 10.02983138641702 4.366996916214163 3.88584290234715
Au 11.08571329265274 6.690292363956974 7.878331716790038
Au 9.150209630795047 2.2748465475893513 5.518896333516688
Au 8.391155980359828 4.595421459050153 1.6090037324839674
Au 1.666889683088851 7.507680090293442 6.622447635692475
Au 6.15015449480312 3.0165504709343973 2.085526819671582
Au 3.981692988098022 2.714367214157649 3.855647744049082
Au 5.895392518500775 5.136077397166784 8.758960274042698
Au 9.321536630467158 8.682171538951142 7.054245519431722
Au 8.33807666276199 9.315603079986053 1.70089261666175
Au 2.4290594942006765 2.4343904854055776 8.312603707296473
Au 0.3913605926891909 5.417873884566202 5.397924271812706
Au 3.43729260468363 6.7357078158509704 1.847109114265406
Au 2.0717960981672854 4.7568248212368305 3.401596965684181
Au 8.797959540562676 8.920940632070854 4.356866754503875
Au 2.9502069173379164 7.148366745398354 9.102417707303823
Au 8.638332003016064 2.168168896620446 2.850334139559809
Au 3.6787726743203892 3.9650872664691237 1.393284728657257
Au 6.528535063256797 1.914735136043306 4.632389621962721
Au 5.521024013627446 3.845459676789081 11.428906530583129
Au 9.700461887140678 4.775588445974813 9.266274262291127
