52
Energy = -140.16693342 eV
Au 10.953958413278157 5.898900059347067 3.8704744420096766
Au 10.107852816965357 8.491947880827663 4.65745059267507
Au 11.895586334491945 7.027871834789431 6.195093276580967
Au 9.060071257554004 7.215340396174545 2.3498694364340036
Au 8.399298565996101 10.009440077278052 6.306995932196104
Au 9.209541372113005 4.1017647500205925 2.6707863957777773
Au 7.605768816964667 9.250121156389344 3.736938565648942
Au 10.91548804492097 9.404677736644967 7.283664621283051
Au 10.379729680116396 4.5945954636640804 6.305150390773126
Au 7.0775716640444415 5.429608348358877 1.4249280936703894
Au 6.758005574102458 8.22879889236781 1.2042116034333454
Au 9.24683638784889 7.20759289923556 7.415228388452637
Au 11.48813987467545 5.923983896825191 8.679578301422795
Au 8.437105925838187 2.890929810215793 5.126070998379271
Au 6.8184122999899985 7.536539599379157 6.164268852369171
Au 10.60718898278604 8.294650170659766 9.8104392881729
Au 5.885329186223005 6.954824218271402 3.4717227953853182
Au 6.606402549298386 3.1554393345552008 3.036488424158933
Au 8.808469387929666 10.238800827367474 9.047031057327294
Au 6.60037932747997 11.381975394731203 7.888592173482448
Au 8.225188238308823 5.744559708161009 4.646546454858204
Au 4.901843445799624 9.5134094864549 2.90893901923058
Au 4.454874418543174 4.878263284548347 2.1901230307321637
Au 3.1587172844073583 7.306671741250063 2.7600563029396836
Au 9.830198565355555 3.756605579220316 8.926794040003173
Au 9.527378276029474 5.892209581729167 10.677358466148473
Au 4.003902956356889 2.73358674815105 3.8731794869035814
Au 7.876978065218825 2.201533343050392 7.765831923180513
Au 5.661681486956519 10.313787724784493 5.471511121936419
Au 7.6410016605989 4.895164732302375 7.272138545804302
Au 5.839008294601931 2.088824673115294 5.860058678320939
Au 8.237321256739559 8.485900402846218 11.217892484824812
Au 3.8868698795856975 11.135628639038691 7.471134882643257
Au 7.106993427495463 6.914451530199662 9.186438200067654
Au 5.536002108978055 4.844477666575072 5.157601543614183
Au 5.294306836684214 8.763900389662215 8.064132251342725
Au 1.4648441579885725 7.708232787734824 4.961165297817169
Au 7.391969718119595 3.937031330177824 10.114726077786562
Au 6.324508316344825 10.296581393853254 10.388573164689143
Au 2.5959831796595108 5.114269257432275 4.3602030772885785
Au 4.135142184371693 7.8416925355654925 5.488134586878969
Au 7.145189908689211 6.017155201274778 11.981680490871469
Au 5.31036149101479 2.9885631778342536 8.495961941833443
Au 4.948884053481004 5.903887312301171 7.679732230146026
Au 3.355096446512162 3.3852398252309355 6.462423525300678
Au 2.3059032831813813 8.791291703924012 7.460975712853319
Au 5.264535412728012 7.891062902680454 11.19414543703755
Au 3.558233227621017 9.769570962141994 9.930670487105187
Au 4.924047711934882 5.124188056751228 10.633454489902377
Au 2.1918360036827043 5.993939609125722 6.973299307070508
Au 3.1096096367006796 7.045475198179862 9.552274195222623
Au 2.922488225335937 4.2952138921759175 9.003620105685052
