50
Energy = -133.45545285 eV
Au 1.5546136762244105 2.499175203867576 7.081569277226204
Au 2.522596658479742 4.2295929666993715 5.16128458217819
Au 1.7822725572101177 5.011239238138295 8.085786584910782
Au 4.160761405408433 2.0551886629339173 6.313931104810383
Au 3.426917917492307 2.8599227003695877 9.087778585949831
Au 3.9014808076139684 6.111170103299236 3.771565201399737
Au 2.297535863768578 7.5075557607719094 8.844509534853705
Au 2.578532055619915 6.925514437148172 6.092185018518741
Au 5.243017810972382 3.688810300840102 4.380749465979231
Au 5.720900480789137 1.3857944641892614 8.440924853584098
Au 4.4713152913874845 4.828134893401233 7.13240666993875
Au 3.9426655125709518 5.454298284442246 10.004909713256279
Au 5.270219516598911 7.97621385978348 2.2968187331159053
Au 6.400111656276833 5.490635272808653 2.633958101978812
Au 2.7637115576199225 10.032422175279292 9.753418165118301
Au 3.238401616888069 9.505371832976419 7.08579964901313
Au 6.947552965975008 2.409697874880992 6.174622492429936
Au 4.384921977893565 8.677089416366288 4.723427091799292
Au 5.7905165319845775 3.3816444899541667 10.376259511924848
Au 6.629366217303706 5.823287521618134 5.678831865035799
Au 4.644734086040401 8.107873768567632 10.399140289594465
Au 5.1913703052478075 7.515401318963072 7.505950630188915
Au 7.323756294778582 7.035535620505351 0.5397541768401067
Au 8.130848717487298 2.632364560907981 8.684515723239633
Au 6.7621517613631426 9.774955923820045 0.9317379544138333
Au 6.812884072253615 5.309407329892665 8.45348809503185
Au 5.490115773261574 10.78380865251045 6.019521305790608
Au 8.093303898021992 3.8615100272002434 4.0870824350856205
Au 6.474037692569347 6.150928462931141 11.104811154787336
Au 6.844859369729018 9.961755464284662 3.7024707092962323
Au 9.154604841218191 5.541871634091494 2.01084476321747
Au 7.415962259696574 8.639723846176645 6.176039609291575
Au 5.348734620994618 10.434651946611003 8.870079769402746
Au 8.783843954164608 6.982376109375987 4.387884308513035
Au 8.356111273971825 4.11475364299569 10.994507444013973
Au 8.897343016794663 8.594351153339142 2.155234299432833
Au 8.940824580650634 6.521944853629069 7.153365129994688
Au 9.503060766992661 3.443194930811057 6.402448558434382
Au 10.206536054498477 4.483962534571016 8.896533039319714
Au 7.2409051882067885 8.289278463715194 9.39310994371669
Au 8.232946272453615 11.489291050679125 5.738636528635104
Au 6.458971815034092 12.745972573685139 7.590088226550926
Au 10.68774838755204 4.916855951503379 4.182965327475322
Au 9.785143952533126 9.68529513572589 4.420539302966119
Au 9.202146117030914 6.640737827052331 10.263537275588567
Au 11.661106038100156 5.155021094446167 6.688230475075438
Au 11.339584910431226 7.590753914183326 5.480134856247182
Au 10.20203016388007 9.529754675302001 7.121358233325074
Au 11.162947812735025 7.334334676927392 8.461724903863962
Au 8.018251000337562 10.590306152657082 8.316868181379837
