53
Energy = -143.76925199 eV
Au 11.437070503074313 5.795480640786761 5.636907106625155
Au 9.672586398191696 5.051121446590184 3.651460753590531
Au 11.27226401938236 4.000982436852557 7.796406708741518
Au 9.97009488795504 3.1136659183877824 5.567330835882354
Au 10.820701269626753 8.483606326982265 6.154053974801773
Au 7.69443885415867 4.6886063824412405 1.7970516215466819
Au 8.770658972279856 2.796388986468468 8.225798464988124
Au 11.276571937420467 6.695795905194278 8.324364782992978
Au 9.644725179706644 4.903717660047374 9.819327189285676
Au 10.993193133982563 9.366475196549983 8.723708055650928
Au 7.042481811530227 5.795194501158343 4.450389016149844
Au 10.692326616625184 7.6139363657545 3.6114847079522616
Au 7.9321540595853275 1.3040103386869601 6.085633697853873
Au 9.62817873253882 7.6361639354360795 10.41351992483963
Au 7.5813641797603815 7.836726620018332 6.414690020930895
Au 6.92842273935788 3.9708686676904295 9.930930254277621
Au 8.900759010823165 5.475240645528811 6.804270681234814
Au 7.814185541152252 2.8510816941140775 3.8211867980860537
Au 8.241843699050003 7.380444022736143 2.424610547503953
Au 8.90514113243902 10.235324694681623 7.144733009862933
Au 5.359602358613782 3.460816306626749 2.595714277320334
Au 6.0006430827093045 2.33352934052195 7.822140108418104
Au 7.3438217234016125 6.625052938200034 8.886476763849112
Au 7.8719067018761555 5.943208378904122 11.684985910848987
Au 8.837162354264764 9.513209183040788 4.359490478659523
Au 8.69791566469663 10.206947775387384 9.968206360229882
Au 6.145346884653401 4.971355495257231 6.953339139527393
Au 5.245197516279583 6.156356307341395 10.970211304250281
Au 6.422061660407297 9.71260577899022 8.515042633420356
Au 6.792546547520485 8.48762708350245 10.999346948321126
Au 4.295343012399256 4.281311479709603 9.132806521929538
Au 5.475330616444198 1.9846698754382892 5.06975234246947
Au 6.500448119267672 10.398072999722666 5.831437466330655
Au 3.5018617179887914 3.055506698614555 6.769466657117862
Au 4.588421805876261 6.9527680308703985 7.9549229498984815
Au 5.476020890887806 6.240313642450539 1.8632330584322472
Au 5.967306186488659 8.845161462853133 2.2707428260277336
Au 6.888769385282885 11.152962407406319 3.2600897111752043
Au 5.013495175590823 7.632242651821853 5.244684236195913
Au 3.0703093781913324 2.654698004622691 3.9450588128467254
Au 4.351584105946756 5.034646816661932 4.876284056445782
Au 4.084141709492638 9.677316176579597 7.070852252218607
Au 2.6612747129302927 6.4208242102277175 10.242052805537403
Au 4.189192058248737 8.814479517587301 9.967090537011932
Au 1.9775151910656434 5.151788295889157 7.922472557513481
Au 3.0180541356385495 5.052593209666423 2.4133759151614047
Au 4.333176370503782 10.161394996883626 4.147893706759429
Au 1.548285798574081 4.464321409701857 5.321461588748622
Au 3.4154252186206158 7.871699458725933 2.7697826783687742
Au 2.038418885637783 8.173548407165313 8.13727330821533
Au 0.5010665947027143 6.837625326228006 6.330153180116721
Au 2.2505464361612995 8.679119529450125 5.252981302045154
Au 1.1700170928300806 6.637136111331189 3.6740060760959734
