54
Energy = -145.62112606 eV
Au 1.2534847328449323 6.258958299487567 5.914889957541301
Au 3.3508892681289226 4.52246304762337 6.272064120033663
Au 5.9495548915134435 2.6844978284809877 1.9035329484096752
Au 1.4762435165571335 8.060555005822843 3.8591516799808923
Au 4.665943003667525 4.409564402927808 8.719703889517419
Au 7.32535634928363 2.523018138756323 4.315698786670671
Au 2.8131471996148747 6.507671153075038 8.12458362457674
Au 7.043762014560417 2.833402684865514 8.965747124218902
Au 4.710593751702043 3.597014250666106 4.1307168709611695
Au 5.612738596844673 2.843878784700615 6.617437925672016
Au 4.948805685024333 5.32666883354346 1.9291999438261658
Au 2.874078382895459 5.647890150441481 3.76637762002621
Au 3.570133571846482 7.782138704099908 2.1169283077245633
Au 2.058262718443084 8.937058178675423 6.433259603645913
Au 8.01684726768152 1.3849909849874207 6.7582159094649334
Au 7.693870311758988 4.678569729362538 2.297878525368574
Au 3.5346628976843246 9.854311122875542 4.174615571709623
Au 3.403741858934716 9.150594940918126 8.820298491070906
Au 4.155084901756585 6.443628812910718 10.503871490179408
Au 5.990972261769568 5.6943505175619515 6.453058616095705
Au 6.232245646068229 4.581546765923642 10.953117613654445
Au 8.966206041722657 3.7948373177997237 10.67965648029843
Au 8.334185811759557 4.139389450056209 6.520423218412125
Au 4.682445466319739 8.06367559632196 6.424556097910451
Au 5.657803417836271 7.212875794443089 3.8562567860699914
Au 9.779940970967454 4.0398936514149995 4.059969069247968
Au 5.581074832128171 9.638576635127789 2.2045535025660126
Au 8.033366064968154 8.592601427924619 2.673224771933081
Au 6.199005283402537 7.0746635230575174 12.259411543494434
Au 4.635488036571055 9.10179292605176 11.217639509133162
Au 4.37740350719599 10.810961076070207 6.733226384742855
Au 6.128677503643124 7.594333130699676 8.875313531612894
Au 9.89575532150793 2.7437817468702574 8.349214273052514
Au 8.121867995238857 6.221161730088792 4.69747401655894
Au 9.723326103381119 6.455467167534803 2.426780322488524
Au 7.2439384792940436 8.653142023711595 5.6621107596051585
Au 8.187912535723902 5.201943281462086 12.850238523664274
Au 8.368188732841098 6.816752430356146 7.537155595988806
Au 11.260979959542682 4.307712386985504 6.4711602637862145
Au 10.520536327054257 5.404075888364561 8.892770011628572
Au 5.971038849666997 11.041212302593088 4.479959379649554
Au 8.364198687796708 6.593696299515334 10.335405717288827
Au 5.850602350511781 10.565966772689613 9.121691481535299
Au 7.287406066688349 11.18444221906443 6.895801755360424
Au 8.867000491198711 7.8216463009751545 12.869658524758728
Au 10.266354130916904 8.373958631978361 4.362645183485289
Au 7.332916402875627 9.435563391014583 11.195466084693818
Au 11.745411472555457 5.950897945660716 4.340650860770783
Au 11.085330673123401 7.135765737212314 6.729754443827054
Au 8.685673808576057 10.731833181948826 4.43046248302869
Au 8.717809888609374 10.633290295375094 9.151919820810587
Au 10.319182538150745 8.22904185954859 9.13437256227388
Au 9.745759750366984 9.640342090663676 6.787123116106251
Au 10.078640825155219 9.728598249459433 11.382684785343999
