54
Energy = -146.49458371 eV
Au 10.34314268733815 4.0743277803387965 3.7874578783302035
Au 12.070426569503189 7.139162141896315 8.136790405910848
Au 11.53303892562463 5.476900002232219 5.9400295716253
Au 10.86087417254155 6.7336849289260075 3.426383915945305
Au 11.990119703457488 8.196979275607937 5.564301749875352
Au 8.179154697314585 5.39449492015538 2.508895336978692
Au 8.858643668467167 7.960287857390338 1.9550681806805321
Au 7.740073301172582 3.3067810695468154 4.250179739979909
Au 9.743874670003821 3.353944745490716 6.397539218180676
Au 10.467419182148983 4.864387224668837 8.60648371659166
Au 10.517536537302336 9.496551847536661 3.56174536418585
Au 8.754647306334629 5.959585163166223 5.276553393145705
Au 7.645114338641992 1.5555227270850491 6.343657381311522
Au 5.535256729079202 4.839931830509263 3.354035599887671
Au 10.025890752796922 7.299938630193387 10.005474449987043
Au 9.63300220211197 7.845144963123775 7.153764239187291
Au 10.490067059982591 10.463904921876383 6.167116790087159
Au 6.139253856039284 7.313306445722458 2.218570478091882
Au 8.114920138072376 8.612774320800797 4.827565770707027
Au 7.097544914544767 9.970963436868923 2.4710401364718737
Au 8.46728044212726 4.819060581337088 10.677482745517858
Au 8.24130145658004 2.9266913711962954 8.70396274236994
Au 9.751260482266066 10.135568961955325 8.764052037745499
Au 6.06160661796258 5.758986021361177 5.911101291335695
Au 7.908480786955293 5.707092056539072 8.026312409096098
Au 4.322069343178567 7.312186181827259 7.7265877278854544
Au 8.609747592909855 11.391851654660645 4.294200252059704
Au 3.3573219356300394 4.930613563372585 5.354251307612164
Au 5.348358324572126 2.9799885924049363 5.563485708832704
Au 3.5940490910614966 6.880066438314493 3.36278728395329
Au 8.16622999284126 7.101444510709812 12.076596379857882
Au 3.2753746027207726 3.0064940053402545 7.4116581161760795
Au 5.6588641951997465 1.898231669918634 8.188253625488786
Au 5.983536346147772 5.410704237483213 12.114393526928442
Au 6.235908238137503 7.043371719626179 9.838667301686819
Au 4.398030940944324 9.518117003276371 2.7711179261569328
Au 5.238502939435377 4.744488621247401 8.347264691081948
Au 5.873383411843441 11.034664765199416 4.775940861995343
Au 7.792360397975323 11.01398949014861 6.893295557049122
Au 5.332794270329176 8.248887629543546 5.074688931080431
Au 6.910453464050882 8.207621759045125 7.368219237776886
Au 2.2613271099655066 7.416633118719318 5.776261888671196
Au 8.964488486694924 9.5804866243629 11.269394876843766
Au 6.082779147300767 3.231418987968316 10.527206598570778
Au 6.970487138946152 10.270106181487902 9.425746124057198
Au 2.2072737596007825 5.4394623390250345 7.934525515349361
Au 5.038984531186024 10.434222627288657 7.375974643015005
Au 4.112989712200238 7.42906210609506 11.844669213309704
Au 3.188054382285431 10.06359534368391 5.232893300078344
Au 2.292743886328121 7.447532654094419 9.775540145788133
Au 6.269465502769678 9.118070314623656 11.84742771815778
Au 3.5977583144487997 5.004465010293366 10.544718412558264
Au 2.417197243544317 9.39070891582834 7.790466559627525
Au 4.305160864421328 9.4397140170191 9.887432456625117
