52
Energy = -140.85143334 eV
Au 11.972909441472176 8.125550937213466 8.693756090046415
Au 8.814467255646047 11.462273190247188 9.361219011986947
Au 11.250595065309831 5.825845513146618 7.361032840363158
Au 9.862652091491201 8.997715985766048 10.212587122307427
Au 10.74873800425286 10.418142011924752 7.7138513715369985
Au 11.598809719914993 8.369511221605547 5.9842252084489855
Au 10.469955392951643 6.246144165909113 10.001861737737915
Au 6.195190364544077 11.193484821838386 8.456375467324616
Au 8.178635811123698 9.08028136257807 7.8182827247365445
Au 8.95182887439905 7.04551425300923 6.067826514691305
Au 7.201621627724297 9.691129157512776 10.741662580253498
Au 10.310464190017264 10.58319118202421 4.981941489999765
Au 11.306653790135638 6.042532537677993 4.588988189737686
Au 8.301807160926565 11.583400890705152 6.586261666837968
Au 9.364077494697614 4.053071545530513 8.434377101855453
Au 10.020597403226848 8.285655805954908 3.465647255546746
Au 8.144452864031702 7.118190305660974 11.427755261833406
Au 7.817187646872448 9.298770391185935 4.820277453144333
Au 4.494359061884425 10.06210898883583 10.255702509505387
Au 8.853684702148675 4.345371670591357 11.13856985262519
Au 5.70671513868041 9.863403039437268 3.154547166515432
Au 9.545050844943594 4.214451264512707 5.6974807513723285
Au 7.890114520081571 6.534829953044931 8.729108014696362
Au 5.69630189020162 10.79374732671803 5.782821986851365
Au 8.847555477007425 5.700511219329 3.3165050417510282
Au 5.922299338104426 7.965561180219342 6.705931619691034
Au 6.906793712453188 5.094441769455584 6.535515904386156
Au 7.523865882892091 7.9035359272815455 2.2027791500249676
Au 5.412770185853028 7.604788431865655 10.994975825641754
Au 7.1187366958971525 2.7976791279390367 9.53578423057728
Au 7.634764382558533 2.4459974939258284 6.764106104624919
Au 3.048690514701721 7.843988234631873 9.444699958147813
Au 3.85753911977516 9.776379526090208 7.5581596889327995
Au 7.390681624580006 3.4828875294974284 4.123271009357696
Au 6.420325221181416 5.307185106779755 1.9342001948393175
Au 5.14138127073299 6.077200530684909 8.607286939048864
Au 6.210687557776199 5.019311932007025 10.934114864568032
Au 4.538492416840834 7.604714548480253 2.2840423467232376
Au 2.3063475907085698 7.585918007829492 6.747429800098849
Au 6.256627074378114 6.65803374504445 4.346710828575364
Au 3.713162158471713 8.946337959581937 4.821323476808874
Au 4.262419904313965 5.607562563969706 5.986021699327126
Au 4.32468198759019 3.5278781827358765 9.539061457964284
Au 2.4393924583657562 5.33121640781437 8.54281975990023
Au 5.23946430769636 2.1020163472328064 5.2556318241233395
Au 5.304754969688071 1.5470600086843933 7.904974305163745
Au 3.623571288382584 5.076444531093002 2.021957133416571
Au 5.198012039890265 2.9166200522811727 2.6362914769133923
Au 2.48174465193452 6.652573294814678 3.980708916214774
Au 3.1822952511181346 3.0521102277552514 7.022789190938574
Au 1.4566559840412794 5.029784368154529 5.977670173096194
Au 3.067278390602248 3.599673322255893 4.269383180006483
