51
Energy = -136.26588003 eV
Au 9.509866418020065 2.23503946989348 8.374250450932225
Au 9.439770719144024 2.806747012955206 5.601722513105803
Au 8.797846684291898 4.084463636930574 3.264801549640755
Au 6.776153413020149 2.7115975962307974 4.666440650313051
Au 7.399689624715124 1.1957933212986593 6.918853134522982
Au 5.942219697878856 4.292453172072992 2.5584698364220673
Au 4.1178150083453176 3.47868921781244 4.6228476984727855
Au 4.994588849616681 2.4631677841529345 7.057777060148166
Au 7.899233807066707 5.5019531940927235 1.0994155743365999
Au 2.7120668421460983 4.149109956501343 7.173100415418848
Au 10.266653869553165 6.503911793419399 2.482587424348154
Au 3.6250498896017245 5.785776237088181 3.1359716605919883
Au 8.840282326972359 4.258778898491068 10.080060882345194
Au 10.244733298106292 4.8376227605025 7.693926462645138
Au 10.400789683631528 5.556427902623721 5.031375924330244
Au 8.167139928759369 6.579432124263014 6.439739365141789
Au 6.726293926306323 2.3949543832098916 9.444667845970502
Au 1.608410744420963 4.5684764993468 4.72528327086321
Au 7.492735121018058 4.041662875115386 7.2566947117005745
Au 5.946622735279412 5.50820616602348 5.1521882711273115
Au 4.124208662068764 3.34347518988138 9.56434990714677
Au 5.6805282748280606 7.0358279792629235 1.7683980315114085
Au 5.121610146977211 5.329416899922465 7.806941987698287
Au 8.400186094389138 8.212401068897485 1.212784825624879
Au 7.876450680673704 6.963638192040004 3.7416146326459505
Au 2.465778296872666 7.03516841608299 5.389816728343731
Au 6.0762916043267365 4.674200607690631 10.963553322948261
Au 7.259201675565696 6.530922309800279 9.063192651847492
Au 6.656961613262472 9.49988737051663 2.8497065331686464
Au 10.749421774115847 7.470806979259611 7.024963258591782
Au 6.060459141800592 8.28256977460543 5.492684193048745
Au 9.991623987147214 6.8960186702604735 9.70242502959317
Au 5.115678196179637 8.092167548786085 8.140989370691136
Au 2.195416419803041 7.922461608377946 7.941443537951899
Au 2.965342199861905 5.8117554648526975 9.484140553192212
Au 8.22046643807502 6.3172808984960325 11.779525373248402
Au 4.070427021370252 8.480228635696825 3.5028229254745082
Au 9.485477186542976 9.349234685006563 3.495596881148615
Au 5.777071083230683 7.4450208600203736 11.405195460016637
Au 7.773204437151464 9.051455204956019 7.575395102101799
Au 3.4403685353241826 9.499644121838974 6.058074172446297
Au 8.213509636888 8.892729390548237 10.645201235650191
Au 5.0896802315649285 11.00510769356288 4.5188447752925605
Au 10.210379842905745 9.976749562665216 6.055179327154182
Au 10.21144062514575 9.58214921146515 8.785045868719674
Au 3.4690463035022407 10.490346986133137 8.65371703014527
Au 5.769773451288446 11.022510912632349 7.238184326572306
Au 3.411664107111974 8.341300593806055 10.424056509291423
Au 5.696716783431083 9.991726075242818 10.256616321655372
Au 7.756991097621428 10.72910725097508 5.177619070693475
Au 7.874107784177506 11.27887682885225 9.143967542412803
