5
Energy = -8.82153424 eV
Au 9.507419671815587 7.524370986758256 7.494628778424245
Au 7.073509536742101 6.4956000567046885 6.959517151222283
Au 6.471214425263662 4.161300574641116 6.232069566308535
Au 7.491990204650393 9.148402737823421 7.678707698382364
Au 5.072262622096705 8.259763494042364 7.220949554821923
