54
Energy = -146.62530652 eV
Au 4.330632274160269 5.6241676203716064 9.431793808091845
Au 5.023736274479999 3.2190536020238523 4.523565145051468
Au 4.38356032932035 7.236769547634479 11.646984285041793
Au 4.41807448429409 4.1659083393515335 7.062473379941984
Au 5.939894893457121 3.3975862595889836 9.27946421962665
Au 6.298521405432485 2.08879723907258 6.723198204673601
Au 2.840232517923557 6.563464988207065 7.309773822066622
Au 6.2721582949877766 5.167354370704892 11.406848528475695
Au 3.193094914253031 5.310282420931959 4.82362417766264
Au 6.899657349970743 7.749217828816113 12.50306099869237
Au 3.332133827163451 8.342953573135 9.410363663258266
Au 6.231953288373419 2.8801594210607573 2.0163351483201915
Au 7.948247548767871 1.580318170180543 8.811833127565214
Au 8.396360810588185 3.62614639604822 10.601880615359015
Au 5.733214575046104 6.71331485884811 7.138181011648135
Au 1.6655927797059902 7.576376437919749 5.062806704054534
Au 4.643940668525485 5.044367413343485 2.429145724871175
Au 8.941122339384869 5.93548819424199 11.918035955500269
Au 7.530484239565679 5.239153254579923 2.772796791826834
Au 2.9632592411614156 9.820599398443012 4.131861940157778
Au 5.610938849200052 9.562254725213165 10.681522239862709
Au 9.498236227964473 8.33351143030261 13.129738412362993
Au 3.277916466073885 7.375739397622039 2.817358274094727
Au 7.196237404981791 4.629308255382789 6.0576731341336165
Au 2.459793907540224 9.344791884432988 7.005734590099766
Au 7.827708049759406 2.615370602360503 4.1702658334346685
Au 5.643440859550759 6.899427759485172 4.299347775324083
Au 9.218137020648548 2.536819268137224 6.515808076716679
Au 5.171385307527217 9.144325507197479 5.842565304032994
Au 8.771835747170103 6.199067067469977 7.837061518435589
Au 5.281968677966011 9.234775819953283 2.636936464214079
Au 4.6408075860690365 10.601065507456017 8.386283407619931
Au 7.007749895561744 7.257373514831579 9.614228714211714
Au 9.813774163169832 4.509129827851503 4.658410785070327
Au 3.5955527012391 11.697127249184376 6.120450092390932
Au 10.45220449901473 2.7227407479043237 8.945782587910948
Au 8.389116100360221 9.640305515547357 10.971678800018257
Au 7.718105651131128 8.04803006418157 2.5329502615632653
Au 10.616254099364738 5.290431648279482 9.848429859458397
Au 7.564116259955069 8.725909306336302 7.244874217716526
Au 8.25831779391002 6.990299175477989 5.155291968000526
Au 10.635825936770786 7.949660144285773 10.678215249020415
Au 5.097652768479964 11.70096620554597 3.834648549820144
Au 7.394726229131163 10.946007996396242 8.803298244830717
Au 7.5333302426796065 10.480706184372476 3.875992952517233
Au 11.062305245676288 4.6962995142629165 7.123502826691673
Au 6.434050042564345 11.651600821830034 6.294635273020253
Au 11.465378632063814 7.342312313871621 8.157015233734368
Au 9.956236775591666 9.733657093661364 8.677751904908419
Au 10.028111005560168 6.6240586717917385 2.90494640458827
Au 9.896152596077313 9.158712696967955 4.145502266736763
Au 11.478045270347533 9.469273617563958 6.387312570505281
Au 9.053496709766172 10.84132849980917 6.251141167867197
Au 11.155479264064919 6.884729128693017 5.43844884225852
