50
Energy = -135.22812877 eV
Au 3.6969511718834163 6.428085365277721 9.564927541769123
Au 3.390982690856812 4.083709356140361 8.12416648250877
Au 4.866231080629474 2.5346269054927317 6.2814093443966685
Au 4.079838798423065 8.840611638945374 8.173838181110087
Au 4.326304839862778 6.480805084790713 2.0054899673483004
Au 2.574276102426925 6.813979208626375 4.166507475803585
Au 4.3495974790596375 3.8658469720048836 10.69319207649228
Au 6.4223861221117176 2.0294848134189563 3.996669938800646
Au 6.121822104518846 3.1831581656319816 8.72542290111667
Au 5.175288962983618 3.8212842193844487 2.080945211964273
Au 4.914071880029142 8.609831110769328 10.80894675669037
Au 5.991873930616321 8.58654232450243 2.496582091582226
Au 6.585035794377698 6.818820643238042 9.022782717406482
Au 5.708586916157229 10.745865010625986 9.293834219196002
Au 9.163606371290797 2.3073616947109876 4.150204499853208
Au 7.82396924033227 3.335324805395049 1.9648522354128761
Au 8.114118829462937 6.072432005699308 6.050078965493628
Au 7.034197489958249 5.963455605685415 2.067458498254233
Au 4.874632619408239 10.792364440046658 3.729714622513475
Au 5.723638902842904 6.6829147298111415 4.499294797893775
Au 9.801544704579058 9.273242996678603 5.5147769613221955
Au 11.99842195571934 8.355492515120103 6.927588070834848
Au 10.119532384393505 4.0159569864647935 6.031539691537417
Au 3.718016176703495 2.2466105655616455 3.821505687418825
Au 9.312424663478359 5.044310462029913 3.4893825783536894
Au 2.560624022026755 4.50294431666997 2.70976339273059
Au 8.58196619857182 7.703282010324981 3.5823822024266345
Au 7.602733795137042 2.7746060896419267 6.402981830252176
Au 8.847286847030965 8.110340569703151 8.051878752834677
Au 11.49053400668277 7.92933599283316 9.615189847439513
Au 2.818645196105164 4.293059919565802 5.454261449817732
Au 6.439249703418504 8.25932617577778 6.680012750119962
Au 7.339243365283743 9.99560583532012 4.472685562608692
Au 8.584946996865531 4.3748108469727125 8.450831323501385
Au 10.782269349254953 6.703469640203065 5.101600821058862
Au 10.782408644412802 5.93308656374724 7.8327559119578885
Au 6.704844907030133 12.908964472944076 7.9829041125734035
Au 8.103382210690187 10.767288082967188 7.038358529382339
Au 5.611454066092736 5.282501032698401 6.8169428228605895
Au 3.806182686555062 8.886924498136795 5.380746012761947
Au 5.31380314904315 10.94001689924442 6.509535187669448
Au 10.550262297522332 10.289079996684501 8.368413203373368
Au 9.342046470366753 6.306478991959281 10.282907347977137
Au 7.0531638810302315 4.750869403775684 10.842316972154409
Au 6.981921450580893 10.18336036365503 11.699339320060039
Au 3.042502760665674 6.664603746442599 6.879963144951076
Au 7.363477037810335 7.440404228660492 11.806775856559275
Au 9.35965317581145 9.122447905778968 10.81520294384409
Au 8.413568672429372 11.468436219270783 9.697697958925168
Au 4.922130975998822 6.181319891557753 12.052195810949076
