52
Energy = -139.48683303 eV
Au 5.55591258348598 11.731124521706962 6.131388366633308
Au 4.251713861928999 9.77645114717668 4.32186857868515
Au 6.957035248676964 10.268278580766953 4.254783725728038
Au 5.957581776391052 8.219753551361825 2.5342423221187804
Au 1.8385190934948803 8.665166049965574 5.328392651617838
Au 0.6510251302216372 10.008415173364153 7.446437982886587
Au 3.0474423522521543 10.882964052238032 6.589313771355204
Au 4.845887963958799 10.980929935043045 8.783583930999436
Au 3.2872477704383165 7.2412833363458935 3.5189539139327906
Au 8.13113376641156 10.984020652590855 6.9290278583036775
Au 8.775168913889459 8.518247047583404 3.171137788728998
Au 5.990899060315644 9.119383495219404 7.032474182305339
Au 1.1209368740488677 7.283443194598921 7.843417642184771
Au 7.913506915801923 5.967551664652531 2.4583487326278046
Au 5.820046035771774 7.274026409752531 5.0314688505273155
Au 3.8494320571951945 7.354777646017609 7.177916729554834
Au 9.684482859319113 10.574996150117975 4.684179877091829
Au 1.7909762290445335 5.895575476232587 5.5891167903355665
Au 5.279899016415359 5.524210464970481 2.7450204644478937
Au 7.362500295273581 10.00726210213146 9.449986734263366
Au 2.7279861496096878 9.247317411008442 9.08476071181089
Au 5.144999014229568 8.34989824300682 9.958677816330285
Au 3.017205670120834 4.317795595552615 3.703148111285983
Au 8.636547293766299 8.181155934238863 7.316039511193103
Au 4.601987593091373 4.982524072708365 5.966867776351937
Au 11.079888794437752 8.183125347802108 5.1241031896059495
Au 8.534182698862038 6.448570200778861 5.1828423241189014
Au 2.4641303661763305 3.2922171078442903 6.355773194030188
Au 6.465504228057504 6.388520480065506 7.599018002133436
Au 3.014255267056217 6.451560167354498 9.728074827790227
Au 10.62443077312083 6.417251365819571 3.11985133303273
Au 5.5153932960985665 3.060480329837704 4.038690069547522
Au 9.970346380134481 9.032636587922303 9.630312860983643
Au 7.271636844210773 4.112662999614504 6.044144354332805
Au 3.867448012970879 4.084004575916103 8.661980612086037
Au 9.504954013642655 4.037425864425127 3.783660370222387
Au 7.73878368762947 7.423523798065594 10.419489872248715
Au 10.814487540320952 9.99748011130108 7.17556374496301
Au 11.423502339838217 7.293003369843756 7.767729081315206
Au 5.602642692963792 5.575472980514796 10.234863945873759
Au 9.025841172840034 5.410580618484016 7.782945103580037
Au 5.046822104616783 2.2819131968245716 6.811150714503108
Au 11.314632140218594 5.40561054406368 5.645456878526569
Au 7.992772364269952 1.8977733696154298 4.458801519149155
Au 10.380281350889614 6.44713424051684 10.246630532064453
Au 6.5143337382341375 3.211895332107852 9.041565449324032
Au 10.015346688126003 2.9460667465176433 6.2608260206120505
Au 8.185399532076788 4.698481216399193 10.684643247489214
Au 11.575580648574013 4.48202435789318 8.23483454571248
Au 7.700811049825191 1.5006927779208132 7.1486460930718705
Au 9.301113007862376 2.7244783541932605 8.954356950383433
Au 10.853083363468082 3.8634870892956297 10.865870652302975
