51
Energy = -136.93493625 eV
Au 9.484197700532036 9.8119828830926 3.728719671948705
Au 8.650930233359366 8.099066801793676 1.6644158768448611
Au 6.10413412407108 9.296065055647421 1.6679090880923835
Au 6.8156760667053184 11.078120425279163 3.7388456085812045
Au 10.200426578781212 7.110533759320259 3.816789462352258
Au 8.35296911268448 10.688459692956634 6.065852294836444
Au 11.199864340465258 8.822881790135941 5.795748328770133
Au 7.114707806440258 8.365642497189707 4.120433825676685
Au 9.978151649952508 9.752504880282261 8.143501513442537
Au 8.85304055901062 5.380334303269141 2.1637567144578154
Au 4.41051139235454 9.4942012268286 3.836239461092505
Au 6.320069964749818 6.5510193866454625 1.6413169094582913
Au 5.503545452626823 10.789321722245008 6.195142999282802
Au 7.106006938862367 10.692028031021893 8.521595474642798
Au 8.730875077796973 7.8352543522034495 6.324239131664107
Au 10.288071590326336 5.214852227827625 5.825739704819197
Au 10.93725647539287 6.931359441173644 7.996241974530269
Au 10.689264609608637 8.23903237348514 10.399852753863936
Au 8.816007915435184 10.230343742806072 10.672291258194244
Au 6.5322233122911 3.966998678339723 2.6329308559479156
Au 4.478249896985416 9.944622325738512 8.705039326859296
Au 4.025708689383641 5.366310071077257 2.4605501524346165
Au 8.925419476402013 3.3944231210905365 4.089503830268923
Au 7.9076374201692285 7.9611244052579675 9.093392909517075
Au 7.6092469145444275 5.708579614421297 4.792659374896528
Au 3.282759903948836 8.942199183673617 6.283575757165031
Au 5.027531147255605 6.744710795188952 4.734295255307373
Au 8.115464908123847 5.528674937179633 7.775982141051586
Au 10.550217543595995 4.151316149461547 8.407983036337683
Au 9.874299951422598 5.6652957579857235 10.560882165073595
Au 8.286687658249056 7.687585634009332 11.875698440829849
Au 2.5595820807083833 7.361773180817327 3.953068338800241
Au 6.21552554672628 9.465566865761817 10.949968634544408
Au 6.048025604039449 8.138902415400247 6.938857501920394
Au 3.1640693815656697 6.299260406257774 7.208527964229043
Au 8.58538211748277 2.9327267208612375 6.845246309925476
Au 5.600194464942917 4.781076758144547 6.542370433927906
Au 4.262555045106836 2.7405325098907185 3.509252132554801
Au 7.648466352912789 5.013840315321251 12.011476048033593
Au 3.658848003798884 8.642349755414626 11.07542267461995
Au 5.723419726034408 6.2793864289009145 8.942345489026335
Au 6.547203689966989 2.4123607353591305 5.07102410653126
Au 8.158298511830562 3.5047050250488176 9.74586993369121
Au 3.006629328319319 4.731526007716144 4.972787763230146
Au 5.586100349201833 6.806980310832404 11.802028924609482
Au 2.23830625901877 8.314108473844664 8.779190319858648
Au 3.315297037898858 6.036542085584633 10.225075205184789
Au 6.116310927801082 2.5329957185016143 8.14268452859712
Au 4.013494297882042 2.4101599432678946 6.246325190668501
Au 3.68424494794075 3.8957420354783108 8.535517699574553
Au 5.506882011746676 4.057814411218175 10.60771376575104
