50
Energy = -134.27261378 eV
Au 2.8771352722023305 8.77667779974462 3.4614915621099005
Au 3.2329070743172283 10.360420690276495 5.7853659556567205
Au 5.316792893626692 12.317076542727209 5.692278013684526
Au 5.01169280901584 10.52135113743734 3.540930315070625
Au 2.331297361417285 7.617300217882279 6.008530678698349
Au 3.38612581692014 8.982509234885221 8.203808502234985
Au 3.4468987421987936 6.102770731640365 3.6652828068475607
Au 2.846630390096202 6.248376520879736 8.416994508694689
Au 6.184209402724218 12.291155159051746 8.401211832903963
Au 7.358611619596325 11.961404668949084 3.8760454971522553
Au 5.348590444648908 7.835578673869473 2.3842621248269937
Au 4.972145750355097 8.008637833712429 5.2137956411708855
Au 4.149131038407364 3.466396374266153 4.058467204858257
Au 2.707705647880333 4.830630288292335 6.061990242104266
Au 5.819518705407048 9.946290022077505 7.0355943798084954
Au 4.537425649118591 7.405727063114018 10.373255827089222
Au 8.116294075675569 11.572543617404827 6.504816363620597
Au 5.466309647003144 5.314908699155323 5.850204090575019
Au 7.434896646304696 9.575602056937461 2.5692283495662283
Au 5.811995768698994 7.300169948074707 7.830422475740597
Au 3.735987936982477 4.786437836713308 10.627949220651905
Au 5.4258831397521545 9.983466695781468 9.840644223150171
Au 6.006886630486734 5.192122283759432 2.8751239810512574
Au 2.86662327292554 3.405634315190276 8.438282758859584
Au 7.072663839252649 4.812677361657231 8.120606189296556
Au 7.590414160807306 8.324417423120776 5.599860831519804
Au 7.2653326725190785 7.979698267917216 10.40746794537163
Au 8.10958286537812 10.391605084509179 9.095044207743074
Au 9.372259746732869 10.10704599655107 4.4400088453766315
Au 8.227767582054991 5.462677254485022 5.6757705361169775
Au 6.732086286325674 2.870367994959727 4.757321599142022
Au 8.11698345620686 7.000494737995212 3.0473137445428327
Au 8.623041473561829 4.297893345101981 3.239872998163012
Au 5.433267116597856 2.905076138026462 9.414909063967851
Au 4.797265874710934 2.6222469596301092 6.7017594282250235
Au 6.376005743010122 5.27483036643227 10.866853497070549
Au 8.641897817743004 7.004731431824359 7.944828085488618
Au 10.937392036140123 4.891256308175181 5.890812794108834
Au 8.998719782268887 5.8683612562903384 10.66534833995169
Au 10.00497246251962 8.548250175261447 9.80141085638015
Au 9.899884122745206 9.48883906518672 7.1188441491336265
Au 7.447344323988237 2.1081465039656453 7.467275304315698
Au 10.206417424375887 7.466398995271727 4.988746209178357
Au 9.358066558852785 2.691188361702605 5.414152987947221
Au 8.12722165812279 3.1436075788423334 10.097050224389388
Au 10.755404934578578 3.7631790955138853 10.460410473759023
Au 11.635605175761734 6.41022003896895 10.157977146894648
Au 12.224192905909957 4.509005130285948 8.224626376583737
Au 11.42164603185746 7.122987208994627 7.4869668119614206
Au 10.075001415227199 2.7833799500486647 7.988188697649688
