50
Energy = -133.84084213 eV
Au 10.04735660056696 2.397084275398147 5.665738808485642
Au 10.936467826143655 4.094625403443018 7.553468863128429
Au 9.77849880718885 5.87360905473185 4.120687989719354
Au 11.468173321420393 6.428680784273471 6.18758401461227
Au 9.074526617615666 3.3600024990731905 3.3218389435973905
Au 9.992701979448098 8.471991868879684 5.10562770774975
Au 8.10158295793148 7.894560771822975 3.09522970680624
Au 8.073893821886887 5.380778150434034 1.815694571718919
Au 11.461236823660565 8.96666169155088 7.472442883456281
Au 7.9516751483625 10.291889310734453 4.46564531531693
Au 5.81430183225943 6.947783416657567 1.8901776938130546
Au 11.862707466068104 6.219916831806249 8.94772170615859
Au 5.819206776035653 9.525462305283058 2.7581388959262294
Au 8.660445622574827 2.5933304482081643 8.088990065874249
Au 9.888848909549914 4.353879087199294 10.044176467668713
Au 7.3491889887111075 2.6974182842280854 5.407939187780902
Au 8.273640576138046 5.08530416080105 6.636557032609532
Au 5.904496508147082 12.012722316838795 4.01931461713623
Au 9.339111685482631 7.220633812439163 7.9833373169923645
Au 9.07998932799542 10.355422980838982 6.969129732992206
Au 4.790880063980248 3.619820393624324 5.091698317299599
Au 6.777423956378191 5.393204442590354 4.225554722923168
Au 7.346899121576185 7.758786702042259 5.883143724046181
Au 4.085266752143723 5.118340759534598 2.8737446083830345
Au 9.584110492712636 9.537311617805914 9.687751001973927
Au 12.162643814904008 8.712633729890522 10.119516536610998
Au 7.072959402160254 6.175469189632606 9.095201992718533
Au 7.151252977310547 3.625240723352361 10.138152508731286
Au 6.320102900264565 11.200453239870765 6.595327272555794
Au 3.8271962873268777 10.31872349800758 4.453085238707976
Au 5.909398145691441 3.065193405784317 7.698194228387075
Au 8.250932634121007 5.375595890191028 11.96231871563985
Au 4.916201929540119 8.60873756467949 6.784704143945025
Au 7.029148068157923 8.885137512958961 8.546899431225752
Au 7.764055924072915 11.58514280243316 9.040023228647025
Au 10.272838467745368 6.986311093989744 11.1018228763149
Au 3.626811078590796 7.807862710442014 3.4120232956970598
Au 2.928189133701226 5.817552273528324 5.234134677805108
Au 3.2163346032311875 3.9071884356574724 7.304427935182325
Au 5.451794491672607 5.875250037986264 6.771407684268361
Au 4.569433668043795 4.628471271855297 9.575457647448395
Au 5.067731842803701 10.905280449200836 9.074042470750177
Au 3.253426909916181 10.971538783913875 6.9965909449367105
Au 5.66041635710635 6.147958638502974 11.59697076055065
Au 7.7335189184412565 8.059562935750327 11.23285200649867
Au 2.338593373595343 8.467285665087037 5.8856234774655976
Au 2.971562235728286 9.062029369881722 8.966936406796203
Au 2.738474280113909 6.552396260079275 7.884924181430439
Au 3.1592355929595723 6.775413722596345 10.559523847339452
Au 5.119549740885317 8.757712484088191 10.759988727831278
