55
Energy = -148.61689526 eV
Au 6.450901997061332 6.450901997061332 6.450901997061332
Au 6.450901997061332 7.890325825760675 8.818099523584115
Au 6.450901997061332 7.890325825760675 4.083704470538551
Au 6.450901997061332 5.011476162982343 8.818099523584115
Au 6.450901997061332 5.011476162982343 4.083704470538551
Au 7.890325825760675 8.818099523584115 6.450901997061332
Au 5.011476162982343 8.818099523584115 6.450901997061332
Au 7.890325825760675 4.083704470538551 6.450901997061332
Au 5.011476162982343 4.083704470538551 6.450901997061332
Au 8.818099523584115 6.450901997061332 7.890325825760675
Au 8.818099523584115 6.450901997061332 5.011476162982343
Au 4.083704470538551 6.450901997061332 7.890325825760675
Au 4.083704470538551 6.450901997061332 5.011476162982343
Au 1.8088538265062375 6.450901997061332 3.579126850220886
Au 6.450901997061332 9.322677143901776 11.092950167616422
Au 6.450901997061332 9.322677143901776 1.8088538265062375
Au 6.450901997061332 3.579126850220886 11.092950167616422
Au 6.450901997061332 3.579126850220886 1.8088538265062375
Au 9.322677143901776 11.092950167616422 6.450901997061332
Au 3.579126850220886 11.092950167616422 6.450901997061332
Au 9.322677143901776 1.8088538265062375 6.450901997061332
Au 3.579126850220886 1.8088538265062375 6.450901997061332
Au 11.092950167616422 6.450901997061332 9.322677143901776
Au 11.092950167616422 6.450901997061332 3.579126850220886
Au 1.8088538265062375 6.450901997061332 9.322677143901776
Au 6.450901997061332 11.31262436461445 6.450901997061332
Au 6.450901997061332 1.5891796295082112 6.450901997061332
Au 1.5891796295082112 6.450901997061332 6.450901997061332
Au 11.31262436461445 6.450901997061332 6.450901997061332
Au 6.450901997061332 6.450901997061332 1.5891796295082112
Au 6.450901997061332 6.450901997061332 11.31262436461445
Au 7.960771270337398 2.55099084129208 8.86424941346735
Au 4.941030718405778 2.55099084129208 8.86424941346735
Au 7.960771270337398 2.55099084129208 4.03755458065532
Au 4.941030718405778 2.55099084129208 4.03755458065532
Au 10.350811147451095 4.03755458065532 4.941030718405778
Au 10.350811147451095 4.03755458065532 7.960771270337398
Au 2.55099084129208 4.03755458065532 4.941030718405778
Au 2.55099084129208 4.03755458065532 7.960771270337398
Au 7.960771270337398 10.350811147451095 4.03755458065532
Au 7.960771270337398 10.350811147451095 8.86424941346735
Au 4.941030718405778 10.350811147451095 4.03755458065532
Au 4.941030718405778 10.350811147451095 8.86424941346735
Au 4.03755458065532 7.960771270337398 2.55099084129208
Au 8.86424941346735 7.960771270337398 2.55099084129208
Au 4.03755458065532 4.941030718405778 2.55099084129208
Au 8.86424941346735 4.941030718405778 2.55099084129208
Au 2.55099084129208 8.86424941346735 7.960771270337398
Au 2.55099084129208 8.86424941346735 4.941030718405778
Au 4.03755458065532 4.941030718405778 10.350811147451095
Au 8.86424941346735 4.941030718405778 10.350811147451095
Au 8.86424941346735 7.960771270337398 10.350811147451095
Au 4.03755458065532 7.960771270337398 10.350811147451095
Au 10.350811147451095 8.86424941346735 4.941030718405778
Au 10.350811147451095 8.86424941346735 7.960771270337398
