54
Energy = -146.49350492 eV
Au 2.6630961968511775 4.599947203563747 7.778747809275395
Au 4.644830466139344 2.7576404065360984 7.105919513308676
Au 1.4647230026405338 7.064442026643723 8.285355385114876
Au 5.995779130599461 3.0399849533537258 4.709411138597135
Au 6.734233102188005 1.0145778908594063 6.430282094131257
Au 2.968784323126599 5.87325151052189 10.29694784556633
Au 4.3692966914237354 3.5190772264226013 9.721617329819196
Au 3.587527716683536 4.456145874107179 5.127225269432786
Au 2.9557640708557242 6.696187949423294 3.503907943661854
Au 4.6903788937915385 4.856129706821915 12.161428866338452
Au 6.465068668629562 1.7965736024588452 9.028356752397602
Au 1.2807219137830699 6.036431054347721 5.660296401988515
Au 2.2005591701003264 9.524720576479172 7.267314703516543
Au 3.612522341955201 7.165393426897154 6.349353736220704
Au 6.059442868849301 5.777593154082895 5.771833877667282
Au 8.661991314465874 2.243398534713914 4.911781058066697
Au 3.451012157928185 9.046577429926474 2.011265640440342
Au 3.733361916820878 8.406512913649992 9.246430208434145
Au 6.902631103037145 3.578267598856777 11.01760465525107
Au 5.286271354298322 5.07522173575595 3.044562095448624
Au 5.404412545599192 7.322407675467663 11.165336649534643
Au 8.977565259105868 1.940458702554614 7.791579126282035
Au 7.859801611058239 4.031709419389479 2.904850584991303
Au 5.280700613152178 6.013944683755926 8.502212509030889
Au 2.7050681173599114 9.404266762472698 4.605216302322829
Au 4.5106155667052485 6.74650359491835 1.0446503306716555
Au 7.537560424939424 4.304469743085749 8.357790260730715
Au 4.280791344536494 11.036814663999166 6.239892354765813
Au 7.240311560716332 5.858112996757151 12.562890965111881
Au 6.230656675771505 9.513562103535115 9.7777556964964
Au 9.181946248965085 5.13021807747204 10.8071908214101
Au 5.372602729327612 8.123529897357159 4.305119940946788
Au 10.47165485318766 4.130602997012294 8.69770755378697
Au 7.175103957204323 6.169154519304448 1.3052149986017734
Au 10.984012777333326 3.014086284618714 6.264686553106941
Au 7.796973886684429 6.951126640231622 7.74481945120318
Au 8.66114383033634 5.004741193514956 5.815292293657757
Au 10.527186042228525 4.09989243857539 3.8282716862962514
Au 7.9932685317973 7.90165807875911 5.089475385942458
Au 9.830948575336993 5.691444267891376 1.7274610542548718
Au 5.702753274640276 8.72874292326605 7.102004572673964
Au 6.616305123642792 12.111643506404873 5.178052373671091
Au 4.905627064799587 10.857300760185673 3.4586465745467883
Au 6.702984925139792 11.197708065138288 7.751164546164925
Au 8.15850421112651 7.714057173753722 10.656870763163559
Au 10.307392532642444 6.959800209952506 9.022037960218245
Au 11.28017627094725 5.763081921623418 6.646178733522935
Au 6.227173580765883 8.864087125263051 1.7142467875040446
Au 7.723902208542404 10.30985234735527 3.531260825598196
Au 10.486093761268029 6.875200919630445 4.22327070747654
Au 8.841447367986639 9.462752260130639 8.600295819406632
Au 8.85926538678665 8.133599541426532 2.376852437937406
Au 10.380993050583838 8.364799288674547 6.541789770073444
Au 8.820588108448414 10.561361630657114 6.0134744728462515
