54
Energy = -146.45433589 eV
Au 1.9249750355805915 9.15961208337592 9.078782949389211
Au 2.9224128666583375 6.769470252133249 10.183191675817351
Au 1.8758209929395842 9.652017227306116 6.435737969929219
Au 5.971746241351845 11.019129312586571 7.09717812272257
Au 5.846893394465359 5.319354881874191 5.182354177391114
Au 3.2268542231609816 9.35068134953925 11.396281257131957
Au 2.124432907506504 6.890818310693157 7.480123898056278
Au 5.166766215731344 8.6912404353051 3.2274707669421443
Au 6.271481167962775 1.6345617193616737 4.627638460801465
Au 4.7201967959639735 3.0043435929678535 6.5921623247830246
Au 6.995175228425658 1.542117936527747 7.230806043197282
Au 7.354830261813049 10.68990364067398 9.43716058836493
Au 8.58359926822103 10.169331252057848 6.913637811525743
Au 5.652361238967769 4.331658801274884 1.4495031328021775
Au 5.273583461077456 5.327950806628335 10.701940225573384
Au 6.091169336011182 3.3549229198044874 9.01733691480771
Au 4.596059528030471 7.274628554308189 12.478622041152281
Au 6.166889224283133 6.993253978214909 1.3482411579114213
Au 6.627350907344177 8.000630463456485 5.998143240847917
Au 8.749122516352616 2.722945148296047 5.337150511586492
Au 5.9000561141202565 9.870867905053254 11.814327604379098
Au 8.778929561396234 3.452279022708764 8.037612227618112
Au 3.5333451699293494 4.665230825265549 8.487200330540176
Au 10.856650059848588 4.3289172521486 6.153201103113745
Au 8.596982019315064 9.671762632566255 11.723015727941732
Au 7.252352160329428 7.178872379442606 11.891323383922519
Au 7.991177580557537 5.167522673083575 10.075387851340825
Au 5.704834128701925 8.070440158303715 9.6979057054785
Au 5.934866918756759 6.061195453760004 7.887641106099533
Au 12.57546818247195 6.354842945235499 7.029383949448761
Au 7.7537662467347594 6.696382140970058 3.823975752942117
Au 11.976446454347336 7.796478705820096 9.316318159427984
Au 7.791849204462474 2.942323764840774 2.731003592356821
Au 10.357890608598467 5.620715344573663 8.62024359697729
Au 9.748204473973914 7.2556632958484775 10.829466463343604
Au 4.334120753446834 8.681662322800973 7.432390113747061
Au 9.849622577461213 4.589104639344335 3.5697734150912095
Au 4.2991085677010235 3.436801608251218 3.81004275806389
Au 3.118339901827584 5.096347513801696 5.673470775978148
Au 8.38194578650812 5.62855828305664 6.275871456257051
Au 9.947232743370268 9.705043988295321 9.331891604467412
Au 5.360832859858092 1.6879896161165255 2.006563592578091
Au 8.226055622424866 7.659988570172804 8.337286976185037
Au 11.045498832946485 6.776291478073493 4.792039755235789
Au 4.5585630671065855 10.752487442183789 9.412480542128314
Au 10.825427247723834 8.561288941089451 6.8814382985900675
Au 3.106975651287229 7.762226306777684 4.902091429871638
Au 4.118075780011787 6.09301740160902 3.021582586644164
Au 8.316370921905847 5.281717943749927 1.3485093410791065
Au 9.525897799411634 9.081951968971918 4.496963301214008
Au 9.998246349517647 7.270381311490102 2.3108619423065613
Au 4.175970856597139 10.406496332272138 5.109906748748874
Au 7.808535022973243 9.064960476827368 2.25826801769713
Au 6.990046978891943 10.387608646105939 4.573829372309609
