51
Energy = -137.46079158 eV
Au 10.662356446688907 8.699184414374972 5.433627298805695
Au 9.50239410276266 10.958627877398554 6.754011880350638
Au 9.239214731287106 7.573428320894985 3.409681444620252
Au 8.696385082274345 10.252779790439996 4.162630297205455
Au 6.897052521300492 11.659820410124693 5.974585157085863
Au 9.678507143829684 9.315321041759606 9.123191788197788
Au 4.242920443505228 11.628419536725518 5.141120386344284
Au 7.532792082475022 9.087226140836433 1.8365075295653948
Au 7.366837489643312 10.79514891744121 8.610805352372884
Au 11.885302293785571 9.820975523779753 7.615786019651642
Au 6.1342875297056585 10.876047574962742 3.356248837030897
Au 10.600265082518408 5.89278260646888 5.367164292489609
Au 4.829438999114675 10.7125393460784 7.686933889039959
Au 7.595010857875537 8.87486788794383 6.532888503358348
Au 8.930716190799531 4.838237709500784 3.283078460075639
Au 7.352839758024914 8.682776437458935 10.327519895167315
Au 3.816915992352131 9.280786400797238 3.7261525633245474
Au 4.7648594281976075 8.554592235093477 9.405896910525087
Au 6.350909939260708 8.047917148233775 4.1481283069676955
Au 4.949516328994402 8.008246899030425 6.564756228366059
Au 2.644338549856073 9.676595354415317 6.288562539966534
Au 9.138716947891632 6.622711844196024 9.910057932055707
Au 6.92998781203341 6.382341501036591 1.929578208413545
Au 6.905361398488267 6.683478071764484 8.165793355607118
Au 11.046979002046498 7.221119329792098 7.828697929447663
Au 7.931919422161668 6.210156768151044 5.633037081369471
Au 6.218818013080768 6.267853801263462 10.850368423846538
Au 2.528632824233188 7.505057819861626 7.991805257252272
Au 2.520570033629893 7.171588914674304 5.03212232434325
Au 9.734886133418872 4.865414726503095 7.874362681452712
Au 4.190353170221963 6.684124653513769 2.87933555394605
Au 4.451103671048326 5.2557224599096095 7.802976864560235
Au 7.473221092644527 3.78670936885595 1.1577503955692647
Au 3.5111997993293538 6.229259357051771 10.273511711526227
Au 9.189884124012773 3.3619422062773294 5.580237054470504
Au 5.330280284586047 5.489201395656826 5.207890449251729
Au 7.744055512167372 4.155982385883762 9.859856296947063
Au 5.261249372638386 4.158070527098341 2.692430778298735
Au 1.718746518185598 5.17481165064097 6.661483808156309
Au 2.9876925772128753 4.36403929655644 4.337717041496987
Au 4.965900755779664 3.8154821095809712 10.365478136741762
Au 7.39860244611649 2.487629132423057 3.574334053135556
Au 6.790348224428169 4.0297820335275585 7.094443988186192
Au 8.859490236043696 2.2530546854599405 8.14352736340529
Au 2.795483252222819 2.6678342710696192 6.619650765215228
Au 2.245337443255771 4.079217971316324 9.119071684244041
Au 4.811216823118337 2.284707934093483 4.696660450826724
Au 7.168912004351042 1.417097848704533 6.055952755604073
Au 6.2940571972292485 1.8330644808111878 8.941061764993227
Au 3.568929595464888 1.729033052826951 9.145802594682896
Au 4.701510847943322 0.6895922228251425 6.907516793829955
