52
Energy = -140.15439868 eV
Au 10.964914038251141 4.67257339321266 7.136141334640693
Au 8.502832174883022 6.362295320412307 6.002890619673929
Au 8.5141832207914 6.646127203545963 11.436327062474456
Au 1.7866509872626093 7.441728000566473 4.74684078625623
Au 9.751026612178299 8.736170728257013 10.062700778206672
Au 10.013770047186862 5.0787400197409145 9.676514414529832
Au 6.720351824183597 8.545833799494455 6.75800899998944
Au 7.564637461399075 4.195499172487334 10.456318034029646
Au 5.4174569899286045 10.712492170550668 9.11671101386854
Au 11.513330339500092 7.091886883786574 5.883951088191324
Au 3.243489085353707 5.781381314999587 10.257575918213767
Au 4.0804310429924415 3.895657916901563 8.389346982562715
Au 4.036643333213894 8.303245851450482 6.173629128027157
Au 7.021508878551979 8.125307602850981 3.10388430162524
Au 11.076959743012786 9.778833812089449 5.234725782784251
Au 3.306066960020824 5.390974315589909 3.767314374275339
Au 7.3867482810691065 4.190250794917168 4.624367852801299
Au 4.22225601647407 8.021221712514134 3.104674344990361
Au 7.910681754035709 6.853643559887622 8.724573334379041
Au 9.728051483528168 7.79206823062808 3.854570561526095
Au 5.662986977915508 5.882554746050927 2.2252143882252535
Au 5.703165363853803 6.265622005017125 5.2979122295191186
Au 4.199986551106531 8.493108419655947 10.438433145387684
Au 2.267130118874831 7.5874675162689895 8.497724926030456
Au 9.740473252114002 2.623045916622858 5.69778046159396
Au 9.506383581123016 8.718705100125147 7.269615739694498
Au 11.465404533328163 7.088736680791482 8.616468337434895
Au 8.160008865520696 10.736496437908146 9.007961399984193
Au 2.9818940215881495 5.62194939596083 6.565294465121781
Au 9.470549234308516 11.524930928111036 6.703701597990612
Au 2.718383885997819 10.298713163891774 9.024269351729906
Au 8.291262119553336 10.00115031952322 4.724380287563675
Au 6.943452381333104 8.908057461811882 10.640124078688377
Au 2.8280867202583084 10.099209563280724 4.281298075324121
Au 8.478350637127914 5.786578261250803 2.513894513478883
Au 5.8180468343409 6.362889494743665 11.107999451889002
Au 6.715570382584323 11.424715042475356 6.7122263573276735
Au 8.986463986563338 2.90609246843675 8.318231249375758
Au 4.77702132041047 3.4841502400401088 5.784802606496276
Au 10.507872299983577 5.048669314915978 4.376037679886914
Au 5.574638732705447 10.116502356884078 4.473183504772689
Au 3.9977959475417304 11.10994910827344 6.69951893720285
Au 5.093555221176173 6.731901872679797 8.239499583931213
Au 6.817965807468321 4.592580689638051 7.44427246649064
Au 9.400835820690054 2.9820173619622503 2.99888141428734
Au 4.90725592472443 3.68153207250602 11.01891976957942
Au 4.843141489205544 3.281055754326064 3.0614910679592997
Au 6.992075834234884 1.611497264864209 3.752497284184434
Au 6.279722978383004 2.247075388207219 9.001861303359656
Au 7.138577739088628 1.8273722886521524 6.453071999969314
Au 7.128548669526861 3.5948536702373692 1.5813549956111297
Au 1.519137327168759 9.511756876021446 6.670186963712725
