50
Energy = -134.16806191 eV
Au 3.72519827541332 5.93416341814151 3.825298260103738
Au 3.180091243816589 8.546114818500698 4.4207137558072365
Au 3.028048048243122 11.142411286267613 5.227880195130691
Au 5.298026001081322 3.3901499532239066 3.869965498391932
Au 3.118575731146241 3.8869225873017177 5.531699956922943
Au 5.68640775755811 5.345821749921946 2.0315024384171867
Au 5.505345162994526 8.015538955578918 2.830280659884489
Au 5.433466155380412 10.493660798208406 4.063212617075499
Au 2.8556721505124947 6.566339875368552 6.446220510397665
Au 3.4054817111494313 9.216007524378007 7.249306313627916
Au 7.939390804479397 6.864332133894224 2.272995482188647
Au 7.828182146502035 9.655930185998502 3.134564653575753
Au 8.037128840819138 4.006904962286408 2.7915865464954392
Au 5.339258795031089 4.860698680148059 7.241356979332043
Au 5.2617504461981115 2.171127253384169 6.324693631430251
Au 5.3273256615743865 11.321728157816052 6.688479611253699
Au 5.556308539559289 7.6127734084086995 5.636263980244939
Au 7.766988521233898 2.5028241885918545 5.130575052619005
Au 3.2232293075637246 3.166556309048979 8.147157697821662
Au 3.182013303503196 5.745653286777827 9.08857108776842
Au 8.279223849001808 7.6957551485562075 5.057718681181551
Au 7.798775924445398 11.329459533934115 5.45579764499309
Au 10.271484815576125 8.306798428108296 2.6461308793361127
Au 5.174272646555279 10.30940867524291 9.22811522708826
Au 6.975511154301746 5.253922267075436 5.017132468198487
Au 3.3179241109919855 8.358757008843343 9.902960149481897
Au 10.126646070477802 9.906593747234634 4.819056253723029
Au 10.36121349198746 5.5466853074842595 2.384929159832661
Au 10.187405290223913 4.003706357637106 4.615294244795888
Au 9.889441936948979 10.905262935515745 7.3106223205274805
Au 7.63020448813721 1.7247470438173234 7.7903430576202535
Au 7.753439351955822 6.229027705505767 7.49534371796614
Au 5.219525188211992 1.5115788595435593 9.00042856043509
Au 10.925005088028142 6.7243822115683916 4.866635978918334
Au 7.312372648957583 9.13381083024946 7.335343366479609
Au 5.037165434920484 4.005295731451279 10.205635958188882
Au 5.40669629546089 7.409181702188219 8.388771968634371
Au 5.139665429409338 6.544526191717245 11.164388529057893
Au 7.479520971089567 11.713586047412946 8.38300236036969
Au 5.195385438132229 9.188445292277589 11.786115799693292
Au 10.13921418633077 8.07802800338329 7.217740250769394
Au 10.025756104630595 2.5013546145734202 6.838726331712991
Au 7.302561447149071 2.4369986890339526 10.559657914720907
Au 9.25037952575687 9.365409193968546 9.519611068239184
Au 9.416358940586722 6.599771010695376 9.608181517546448
Au 10.375053700813693 5.296851850172033 7.117235126563963
Au 7.671094807119636 7.878205942419299 11.352001519929575
Au 7.350388481502847 10.643939978503445 10.944605072983064
Au 7.501048965084355 5.139331133182124 11.101114287820463
Au 8.937482320348332 3.9392843343486366 9.004502301707488
