55
Energy = -148.93364518 eV
Au 2.0672150929816513 4.388171184743914 8.38051995303599
Au 9.051717604546635 7.19816449483842 5.17108521633352
Au 6.766826799122027 3.3928425001692193 9.560728804989601
Au 4.267060977143097 4.5727780624187595 3.676393931764007
Au 9.089890682607198 7.378779805794021 7.990167601922502
Au 6.739427960724443 7.646032472762188 1.0268603031842802
Au 4.375973576266494 4.96895013639514 6.809313673055394
Au 2.0334823429256885 4.2439621791466955 5.348231812850624
Au 6.706989243082652 7.992848215246675 3.7458637083840327
Au 6.7821669965782725 5.837266532212892 10.998273899196233
Au 4.33187568278666 4.94344990172638 9.961052358376705
Au 6.756450317619982 8.220712645551005 6.546430044022059
Au 4.337742347598104 9.756840646434219 3.699264488557341
Au 2.1490501856357667 9.027492848282002 5.200822785543952
Au 6.790812339803197 8.364272453961739 9.383806618982186
Au 4.270013207527155 10.426156575502425 6.447759337548006
Au 6.722824514797984 5.259408838880231 2.4591229319368133
Au 11.311971143584744 6.271295028083782 3.815253003153335
Au 9.159418508752628 4.395713255390566 3.583771408930724
Au 6.671295610104098 5.620941413429145 5.313677021329349
Au 11.835792206625902 6.53345030802995 6.593167795735566
Au 8.99142484538593 4.892230243773446 6.725680468658547
Au 6.723069790820408 5.776490296576083 8.134449394032561
Au 2.0924550318586967 6.541429324289899 3.894868063339496
Au 9.192470777185695 4.8526583225672955 9.911877208772612
Au 6.6657568522047725 10.288530888479672 2.219924517185531
Au 2.176412689854689 6.853069504233212 9.530986391852013
Au 9.065487193956622 9.618077749926083 3.582797609425862
Au 6.720329107513401 10.6811733576361 4.9951247117926245
Au 4.43740020650611 7.615496827157924 10.930170506428869
Au 9.171081461216637 10.198080030159 6.346920764394948
Au 6.776331338690268 10.822854978746987 7.743488192680228
Au 6.8377743378377716 8.41442431511375 12.131397971361755
Au 4.403019553109315 2.4327277824553186 5.460011944080771
Au 11.314703736632788 3.9985378031460534 5.397569233738975
Au 11.367964249541576 6.697062117295714 9.41843215095564
Au 4.41888202438993 2.610830427371882 8.401181676398995
Au 11.336209813032353 4.226788396095719 8.172024188964611
Au 9.166395887290815 7.509189699631288 10.887436377255169
Au 4.347271719685842 7.0788522102913065 2.3766871948526815
Au 11.300256882685217 8.835955782255098 5.0118438864057575
Au 2.2106585573738387 9.197615081293826 7.975830040771833
Au 4.375502046589809 7.310822244964893 5.252989504780553
Au 2.1401088336018894 2.0433056772982248 6.9585454382829
Au 4.450994015271073 10.113943745660924 9.27074593279889
Au 4.428377425781013 7.489743935449961 8.04507750218248
Au 1.638129088402587 6.697590067147156 6.735884359109769
Au 6.847692260539636 10.863734610444302 10.541073560421971
Au 9.070614396963808 2.351975302364038 5.507696697896559
Au 6.7337201626359215 3.0414598205755126 4.209266403420052
Au 9.174240491076207 10.002773725988966 9.198586061257885
Au 9.096777436784398 2.571546515682391 8.291009661629882
Au 6.721665055376004 2.021116587541069 6.960527993297975
Au 11.341399468496933 9.031167238166406 7.803983004664084
Au 9.096224883465299 6.928014853792033 2.3131436506471044
