50
Energy = -134.00873913 eV
Au 11.675445311352835 5.309369825113234 8.45690276642325
Au 11.51740933536818 7.945547330471904 7.740781798093277
Au 10.57335652375642 6.965768905488279 10.397235622381498
Au 11.752642716652376 5.938443203066157 5.776496092471851
Au 9.665695249966758 4.242255933931605 6.883547715506076
Au 9.618478790803348 4.159226797690684 9.759200222792623
Au 8.246088315956316 5.861399837169019 11.508821588779615
Au 9.329958567484868 7.256903213945619 6.027535522995442
Au 7.340026771456788 3.275534748351941 11.003737165167562
Au 8.1708280963939 8.547161125973487 10.883583529930672
Au 7.4012019767049 3.2917734894449016 8.158344337172476
Au 10.371288544896931 9.582129445770345 9.538990263310902
Au 9.53597331389991 5.04149686544979 4.210961349351333
Au 10.971510635728018 7.281421676972182 3.4730852250336604
Au 7.518090088230932 3.464264049323164 5.287270587285193
Au 8.475450476490435 6.550553688261386 8.607882509260547
Au 6.086073359242113 5.461681966265647 9.490686542267428
Au 4.05232546294542 5.021818520171833 11.250248049542417
Au 5.808266120775435 7.208845362013952 11.649868253356683
Au 6.513745322770747 5.750338167296851 6.816592753239714
Au 9.68560241671522 9.906641122435937 6.802375549915519
Au 5.010377570735011 2.788062184103966 9.629810669115873
Au 8.526950114833719 7.148887978243303 2.15539461816306
Au 7.97563330480735 10.637203640305454 8.987878345379027
Au 5.716714927058724 9.20027439823256 9.666620245869465
Au 3.7769461705073093 7.242747752143392 9.578752389903189
Au 4.992318719327488 3.192546684712635 6.784987144067533
Au 3.2618600150707353 4.652520502501862 8.588568518138706
Au 9.086755006852774 9.230462314647262 3.9817268698342345
Au 3.3008786886600148 2.0573545416808674 4.919237422208612
Au 5.703473324304802 11.128352359171092 7.566458565472647
Au 5.5534844573445294 2.666241323080687 3.471622851191243
Au 7.290279101185913 4.696614274058389 2.701575511193852
Au 7.0543306213273995 8.499868238665009 7.182699540076286
Au 7.393314077035009 10.745997041119889 5.434667327504827
Au 4.625376602335505 7.582071680856164 5.757897747972768
Au 6.988251349279196 7.122558129466412 4.464958033558899
Au 2.4292888068629956 4.41096713375294 6.007327889977897
Au 3.647017523171683 9.32493428280225 7.781720857474569
Au 4.943637398015221 5.124722605383223 4.5823614209078185
Au 2.3193545926514947 6.895168063345451 7.21047995815687
Au 2.668293131944116 4.140455710173704 3.205689871563876
Au 6.433216184492477 9.554492413247113 3.0829586881030746
Au 4.646789641709292 10.455964886612447 5.121511477383379
Au 4.855354260693154 4.5062628632378345 1.485406002338943
Au 5.7646617100989825 7.119317572855556 1.827549903336046
Au 2.1215582412347707 6.64620084850978 4.352504482249444
Au 3.774715903650891 8.763586820691891 3.0852751553130697
Au 2.2139202686591926 9.153051763863653 5.421168606806843
Au 3.0293550139120695 6.513348391829835 1.7720902408705907
