55
Energy = -148.95179771 eV
Au 9.253710230810483 9.488300011188496 9.02812684211244
Au 4.509533040599147 5.262591073063162 8.083129312439677
Au 8.778393871403516 4.739540655061952 11.686098883905483
Au 4.476232700171093 9.55654794307299 10.487728706535467
Au 9.257568382588865 8.06944111717762 6.517632431910189
Au 8.974897610326327 8.069278608533976 11.361743367631627
Au 9.120821610718854 12.35725106603056 9.047956406300752
Au 9.384580648982427 11.148310477099418 6.524516592444046
Au 11.28720173145555 12.170693322961547 10.669738638538252
Au 9.255449065821157 6.6520931674537085 9.027130571975999
Au 9.391449181291094 4.991428306536188 6.526477478864234
Au 6.557406820145276 9.88598612681522 12.338131615035188
Au 4.481248856649099 6.5739880592019535 10.488966485320315
Au 11.612460296113525 9.55020226557845 5.895075882322381
Au 4.58572736405053 8.066114891202163 12.80659198762999
Au 9.134930490481018 3.7833539792860438 9.051805805419312
Au 11.615740521822822 6.592955374744125 5.896005619022524
Au 12.126591854683845 6.686023812065559 10.665888523199834
Au 6.788924711552442 8.06796285197451 9.733344852300956
Au 3.9544491687753345 9.455251018808703 5.706924334116593
Au 11.305676975949806 3.972881799565418 10.671863876057266
Au 6.724068055048203 11.137529600712627 9.82465173021509
Au 3.957991858990479 6.670201140848711 5.707362806191733
Au 8.766419679600327 11.402539017341564 11.685839691752149
Au 6.733687827785657 4.998486969465974 9.826395106320437
Au 6.940915728081418 8.069772003537759 5.0154624585238805
Au 12.121195828958314 9.46106806275647 10.665115479828486
Au 11.890252843892743 8.072874035330702 8.276529480152808
Au 11.532376851142175 8.07056466438591 3.5997155885755387
Au 4.696386467638641 8.062833094808063 3.3494422611096115
Au 11.619046617759256 10.893678587523343 8.288217472788247
Au 7.299089203792504 11.446261358301257 4.681916623356002
Au 4.877205062718174 10.78597414172177 3.4169806282680866
Au 11.62585486159009 5.251604980470018 8.290125909805163
Au 4.788816228098361 12.185555566501314 5.719145932262614
Au 4.884849824403151 5.340127765220155 3.417184247623688
Au 6.916976949722859 9.532634452676433 7.309125396663292
Au 7.307663805681786 4.687535509307756 4.683616873700878
Au 7.141166425251052 9.519329968442818 2.609907710366349
Au 6.979332244087861 12.397643899448568 7.308237178081772
Au 4.801192155832607 3.943956240831605 5.722271754697713
Au 7.1446902411943 6.614930486483694 2.6124441250904877
Au 6.917884557353867 6.603130401312258 7.30733698299522
Au 9.589093796836075 10.073993290784495 3.9767296925554336
Au 9.362405694190862 8.069146555601737 2.0128226993195644
Au 6.991455921976465 3.7372871358293613 7.312183533838552
Au 9.593900840913259 6.063761854925264 3.9771512016010346
Au 11.318539202232314 8.072711532688782 12.985758483158099
Au 4.285079753126233 8.063681279395176 8.080138829066556
Au 6.564682996351361 6.2525424831007665 12.33858569703941
Au 11.157157921034196 10.777799804034084 12.972484258377476
Au 4.5028519097500626 10.865627271609954 8.080635773893752
Au 8.85868678153216 9.450367389949111 13.764287291883072
Au 11.164806864879827 5.366779754122739 12.973738350310317
Au 8.864130187763791 6.690724096710262 13.766430861108066
