5
Energy = -9.26449571 eV
Au 8.102764458288158 4.749296457281896 6.0730136093975435
Au 8.102764458288158 7.396730761513198 6.0730136093975435
Au 5.479952166393145 7.407570315686271 6.0730136093975435
Au 3.1996347970832435 6.0730136093975435 6.0730136093975435
Au 5.479952166393145 4.7384569031088155 6.0730136093975435
