51
Energy = -138.34056669 eV
Au 7.876922448844927 11.072915489611972 6.190928023906332
Au 4.8917475966524595 10.760959648488193 6.483248430404839
Au 4.042620221620245 7.757500723409357 5.527330866926076
Au 6.136336169515296 11.342874850039188 4.076485004033522
Au 3.5536061202569162 10.376524589371954 4.048953794765662
Au 2.797764269060148 7.954715486060737 2.949450264598598
Au 2.194834978975099 9.717739637028913 6.34448056952451
Au 5.550417160915312 8.81783658004217 3.016481251542963
Au 4.867507055677317 6.129174927842098 2.723050220228934
Au 4.401042359357293 3.4917983896090825 3.2999419094245446
Au 2.2945211671705144 5.294192928521132 3.6434914538361003
Au 1.188648478364203 7.39126810350931 5.129171346972858
Au 6.829339234485603 8.521362448061975 5.680589795027255
Au 6.662612678046157 9.899808259525804 8.439113008790734
Au 5.71223736103022 7.285019209303675 7.916220383605201
Au 5.522176220744109 8.534972326464286 10.592124952064916
Au 3.9255518217310534 5.333486244667699 6.919848942916669
Au 3.806333261132695 9.244365847140458 8.541672756447012
Au 1.2096492461532005 4.894519626471158 6.278653474853465
Au 3.142100441080947 2.718170334420728 7.502186802471802
Au 1.9211203985499716 4.751122546212947 8.945218224931462
Au 1.8501880450106427 7.315203049507143 7.80968720278384
Au 3.5992375618873957 6.701435519106119 9.888106322999853
Au 2.3028316680364918 2.8079926015040493 4.890932516289309
Au 6.479380533651715 1.6551540919928676 3.333281350594035
Au 4.78981554005412 1.7211680698777057 5.477513310456944
Au 6.066643715479601 5.839509459614786 5.180551159380078
Au 6.606777899371836 4.660111196207255 7.623777479166661
Au 4.423393443272823 3.9127618338860315 9.7206314757872
Au 5.857464564615834 2.0375500617268782 7.990771167859517
Au 8.977597437115767 5.216131325367888 9.814522203486979
Au 6.281554521285201 5.8912290868795925 10.642051925540645
Au 11.371743836798311 5.335890203064442 4.976343236259876
Au 8.128648746707047 7.9681616958912125 10.021648763654428
Au 7.044467156924942 3.2980962015305306 10.186283529487444
Au 8.803845590477586 2.976345238159992 8.098902189867147
Au 7.635735416179903 1.8624739585896948 5.855387195075216
Au 8.461603367971254 6.817108340835624 7.246063300947206
Au 10.776466697148471 4.998304879571726 7.647180348609963
Au 10.643560653270308 7.31840072657198 9.187907564069336
Au 8.554656955697272 4.7290384148817175 5.439657991616483
Au 9.05092525965696 2.5782537438791646 3.541412947618426
Au 10.49130921279037 2.7909007732639557 5.9015617623142775
Au 9.730819286325609 5.158960979184761 2.7846744620073336
Au 8.287917321112614 9.648019001850281 3.5629339368908233
Au 7.649883632829674 7.01135535500699 3.083638508135893
Au 9.377947565035228 9.447818567825697 7.917906877780933
Au 11.176333019330304 7.6236409906303395 6.502091488315743
Au 10.296958148228516 7.669547180726588 3.820203754013105
Au 7.015165994186037 4.323105610528005 2.794063227452687
Au 10.313840377424057 9.969805511843951 5.385473178816382
