53
Energy = -143.53592536 eV
Au 4.953925362949803 2.9551940860674857 3.7863526700581125
Au 3.9987267260036417 4.767603981238994 1.8907779547464658
Au 2.482653108519225 4.383637473218406 4.1898882249844505
Au 6.73827832551672 4.469217019788002 2.173664875425061
Au 7.954844664101517 2.0748076768009867 7.067098091895947
Au 7.717765357077384 2.8357809037411315 4.305689187433658
Au 3.504670119160094 2.600836186572052 6.129580842358914
Au 9.354048414397106 4.762005770627267 3.0634703199639235
Au 10.024390924677698 3.3838580592310676 5.755763192849282
Au 7.505538557915022 2.8061028404778976 9.733884059252645
Au 5.289768689962114 5.845573153240863 4.226892573769735
Au 5.1960560648987935 7.260098035452936 1.7076027885042895
Au 2.6647818356143853 6.932480301240769 2.959066683560287
Au 5.339986758317329 1.9889421498932383 8.158899348623986
Au 1.344614892584633 6.643873916978347 5.554581810257152
Au 7.923208513713081 6.997908850238829 2.175823059404748
Au 1.2525726824575862 4.183691078810262 6.712421520760768
Au 8.240010271016725 5.597085270536182 5.459686996417038
Au 9.830091830177231 7.6765883613083 4.081274885713663
Au 7.003776777204192 8.030734771058732 4.739920106358284
Au 8.343905967539913 5.402735728134617 8.26612503473758
Au 6.056404982699593 3.9293605219923453 6.233776720604285
Au 10.020828112685908 3.1496055391208486 8.573756291183141
Au 3.8129113668992156 5.581640137258158 6.6362388270308905
Au 11.44215077394433 5.458371174954121 4.653258611686814
Au 3.0596749983702045 3.6122594263098904 8.712046265350526
Au 11.358471149432205 5.3075257358118915 7.396326255824377
Au 6.709497387728935 9.50701294679474 2.3752514065379873
Au 1.585365400518895 9.028220836497153 4.326094310014111
Au 1.8171431313905748 6.405776060798281 8.428733786293563
Au 5.613396573720378 4.172356688292196 11.531603401061977
Au 11.772324383271725 7.752241662292665 6.097645835384572
Au 4.285404389398686 8.126298952186145 5.443516409660956
Au 8.633694146237334 10.255609007530357 4.317503777538808
Au 6.2107264304359795 6.893844359880957 7.163231558317033
Au 3.9791649894784995 9.500042753843417 2.9257999802794696
Au 8.175608897284775 5.066817362806363 11.226823406029073
Au 10.581203263655665 5.460599404813773 10.055506083329265
Au 3.483157959054804 5.684707783165396 10.530749749689926
Au 5.633490159810246 4.780020516731611 8.841033796999985
Au 8.83264371865223 7.886475652571145 6.984343063808383
Au 2.218426771193952 8.890626303758566 7.1678587121764545
Au 11.075577879694652 7.839183661908576 8.750855472611736
Au 3.236151937221812 10.882632253516377 5.397857495128747
Au 5.877215176348502 10.742464005007168 4.748184634040144
Au 10.395507131346486 10.094147225771597 6.428348828935384
Au 7.5661362814908015 10.596759444812482 6.951986415201287
Au 4.0942565775877515 7.972954569156246 9.030370399549787
Au 6.0867901079206135 6.883327826467999 10.715655614076587
Au 8.787406844827165 7.650752592524725 10.426911098099042
Au 4.859004493144691 10.158981518844211 7.454908819830605
Au 6.699104529056527 9.070831932311311 9.186647941297839
Au 9.306292864334258 9.950209709391935 8.99956414204373
