52
Energy = -139.30107404 eV
Au 12.777308021022549 4.753538662952043 9.59779937815141
Au 12.00232412921864 6.918878391792203 7.942273926088303
Au 11.593240257259044 4.278238841708274 7.196475493351678
Au 10.722877139328691 6.343550710764177 10.390573098142653
Au 10.522189100276066 8.253039080556668 6.122259423962859
Au 9.837520204403859 4.480264918449065 5.172446021450187
Au 10.317420837189264 3.463424432696147 9.78251019955779
Au 9.669489555688816 6.879003908385067 3.673861982276627
Au 9.58697226210916 2.493645827356687 7.159953541286818
Au 10.243016952994523 8.782009961447992 8.893783412314283
Au 9.22547712381151 10.00421083060621 4.49761341169087
Au 9.268713575253711 9.013712053133348 1.9570828410278431
Au 7.657002139541772 2.57159403273564 5.149473385029373
Au 9.02499657477077 5.296716181755183 8.097190375744075
Au 8.710417442620011 7.919484392832815 11.200876538654363
Au 7.652532222171911 2.888385332865162 9.222058402038359
Au 7.754273826409477 4.6568578578499285 3.4084628854634387
Au 8.133671954955158 6.643409071098983 5.937737392155944
Au 8.60693638055757 10.196540850982416 7.113372587317526
Au 6.321912732497345 6.739291177548703 11.715144279771415
Au 7.678681709138669 6.596396140860502 1.5526608640024941
Au 7.3872872931080185 11.119403428770957 2.735922443503391
Au 8.348066346058248 5.030399840426127 11.001376136562214
Au 7.096407235140032 8.223593081619532 3.8203478155253934
Au 8.017091269331706 10.238689348252894 9.827362595797833
Au 7.405830960612805 0.9027849731529385 7.338154684472
Au 5.9275852338381165 8.288034732266302 6.436973449287714
Au 6.576064955434199 9.063248619165416 1.0418356796074628
Au 7.6411436891419475 7.675900953380391 8.600484816078
Au 5.61552795450553 9.007134823670254 10.318849005219844
Au 6.201402810606726 5.5100349610158545 7.672715116539214
Au 5.726234727609146 4.420749993407618 10.331081759486079
Au 5.884173308134984 10.606092512218044 8.005338751436538
Au 4.9181508270088345 7.16776615114494 2.086610893869796
Au 5.329078329263128 3.378733628018979 4.004725755308007
Au 6.573898697158078 10.901672025098538 5.332813191096869
Au 5.578606954361346 6.043229049543319 4.75806099133527
Au 3.7367618392707582 6.615365496439882 6.807750769626406
Au 4.113652032519591 6.696632156153674 10.10298694979841
Au 5.510046512118898 2.855516385866587 7.109938726739075
Au 3.9078664011860784 10.106185081389114 5.754422877238846
Au 3.3594557067328785 5.265175959805847 3.2712562855757747
Au 4.8659108860369376 9.899172233016873 3.191376555807045
Au 3.632899423297416 9.05501349011502 8.406316494173423
Au 3.6686328031642073 4.321104223690072 8.568021854642042
Au 1.6949435477488692 8.594786325264662 6.329453798346061
Au 3.31283672408103 3.9613309535113297 5.765959066842925
Au 2.9881632494650647 8.03675211700394 3.903506942564193
Au 1.226547025960258 4.69359898450996 7.411089202444296
Au 1.7674396441882883 7.067439241118208 8.823864298126985
Au 1.392176086321859 6.086987555523852 5.009931623965147
Au 12.777308021022549 6.913029215600929 7.157618094288477
