50
Energy = -134.63068529 eV
Au 5.692466156650968 7.213967916777719 12.19087900192442
Au 5.765762474519236 5.169959060372006 10.404336803430962
Au 8.285842729614764 4.505983868345758 9.429467561158068
Au 5.96205524683521 3.071446081383988 8.573475287014576
Au 4.269435734195763 9.391652104606592 11.41999523767693
Au 7.068003364049738 9.590138680971377 11.38514462259753
Au 6.221429407075305 1.2533620365068299 6.4794425565027405
Au 8.191553774268078 6.696160705702786 11.153128867431297
Au 6.524619119617177 7.858117628738963 9.256831416168923
Au 3.6919461332811028 2.5330063522859216 6.997857337108416
Au 8.384883223315317 2.729607697718164 7.201080693845055
Au 5.426039797236266 11.33872839857545 9.897755721441387
Au 3.637943595824485 7.034203176031804 10.162836122542705
Au 9.469733240747543 9.062700418016984 10.268181375803225
Au 3.602358915573792 4.772550336779606 8.593563221495828
Au 10.469145678363919 4.331783025156611 7.7971120507322
Au 6.108688656747534 5.7157268999057855 7.539437583082311
Au 5.867646785696946 3.9591209668830323 5.436640824798127
Au 10.14560325563252 6.685177497006545 9.15011428595101
Au 3.399654137266189 9.619829298943984 8.861475687305186
Au 3.798863408907188 0.32060718073223876 5.407513896261589
Au 8.196756411878548 2.3336731875871513 4.3947791265979115
Au 7.757826940730188 10.557731636284684 8.681612649179629
Au 5.9032331287210305 1.0029701404825346 3.7552339566442363
Au 7.947113838760828 7.554263935369353 6.786720494946981
Au 10.54688857578877 3.6448884686412075 5.0909620624175025
Au 9.964620001805471 9.18241482648917 7.540748108669211
Au 2.7458211270483273 7.228394640284255 7.518165666923985
Au 8.34031265322654 5.140831869807776 5.536704681865949
Au 3.6870674090435034 2.805981190639926 4.103775089484438
Au 8.815891872530461 4.473017134615826 2.6990174499853996
Au 10.888827627153791 6.661384654182351 6.4831300972011645
Au 5.4097053090444405 11.203934915776493 7.207487682150889
Au 6.216301054695217 3.4252852839398433 2.578245940129473
Au 3.057321382998201 4.978950951260735 5.831940267755907
Au 2.9471327373891807 9.893272357231133 6.213940937942989
Au 5.25618377554469 8.382387122733482 6.913570881842674
Au 6.190577208862289 6.716352027941953 4.741792378936156
Au 7.762471549214509 10.237375162317951 5.928097643067745
Au 10.728644351553244 6.125712658473149 3.8018989982995457
Au 9.724886474383302 8.5311826499963 4.784679345763359
Au 3.2073052129999655 7.478759095235154 4.7651593694765095
Au 5.31524360362374 10.195323588648984 4.6217374181636615
Au 4.232938615048814 5.343348521394836 3.242849252969726
Au 6.6137556723432 6.009804114541869 1.8609248704554195
Au 4.866876503151362 8.09430901667667 2.5855811155699016
Au 9.106074857766513 7.242415650206538 2.01695760097628
Au 7.479330315477695 9.118109241064177 3.3520537029849042
Au 2.877427806521281 9.892831442800997 3.457988856144393
Au 6.997636682520741 8.48567846484674 0.7389497510552394
