53
Energy = -143.66236435 eV
Au 2.6601288203835134 7.569498759169732 5.431801923285701
Au 2.5007418350179442 3.4964051213496896 7.70512237510829
Au 5.351623756437441 10.875752986552364 7.394344904695678
Au 3.5615168996269766 2.9289376148264785 4.982260015680748
Au 4.992366610991619 5.553333605668719 8.837633795047475
Au 6.184163298937906 8.484653985988018 4.491862011716467
Au 7.1209788140948875 5.987709631905481 5.500499414061278
Au 6.287875939314252 7.036115948687431 11.041018233965898
Au 4.2420682294894 2.9693344380366993 9.889657566420421
Au 3.364231902980886 5.5316571529751695 3.426305844270064
Au 3.7008576847340766 8.286642257379697 2.997166513067109
Au 7.466587901232281 11.153603301782319 9.098987386646984
Au 8.062552089393911 11.599940958445929 6.405339903538535
Au 6.140952274384781 1.891635561500459 5.136686191462394
Au 4.570366903526848 1.740814716183728 7.365957732775641
Au 5.836768879884516 11.87478166369239 4.8565586252127835
Au 5.515717380976789 6.519378903581633 1.9824848402303794
Au 5.436158724511802 9.393528280028095 9.771369132285317
Au 6.5729743445350115 3.9058674107780713 7.28571326721362
Au 6.747410170256667 4.1009681760460515 10.825705236861092
Au 5.739234009038001 4.122216783642686 3.5033581854117672
Au 4.441023052191201 5.2739493175614705 6.1062944428636765
Au 10.28647854416942 5.385355603072462 4.438217545684892
Au 8.29285205057136 1.773939206823854 6.912711195213189
Au 1.6742447810797279 4.963003063774549 5.551174118220409
Au 7.997036385524098 5.679015309503034 2.804038649080485
Au 2.1685401514994616 6.511612692385983 7.89033100089964
Au 5.523681904661705 10.317238976226411 2.551445828870599
Au 3.88574545139107 10.003164264425 5.226611135729697
Au 10.208206074998644 3.7511955664979046 6.693109673094685
Au 10.162637468955861 9.32298007949445 2.567899357447546
Au 11.69571617764948 6.1326417830453455 6.680461158208947
Au 11.625953414500026 7.814542061900901 4.446077197703266
Au 7.659323954130475 6.401780087724652 8.161650933416341
Au 8.296251031005266 3.5179083045955255 4.6500400698145015
Au 2.199215808758352 4.898718009457207 10.052875390061754
Au 10.404758768802468 7.55106738281016 8.814016045816741
Au 6.636408372000071 1.7825703665320283 9.204558399263629
Au 3.2349028065118985 9.107710496652663 7.926765575583732
Au 8.869013041640512 7.806972471658838 4.4286368919733174
Au 8.884428668303652 3.349717018922088 9.206042333249197
Au 3.4930793314977566 7.489885160053198 10.228482984879243
Au 7.547681908877025 8.394350476602146 1.9252186428724842
Au 4.382459528750601 5.2069123654694485 11.670246029442778
Au 8.058945651818217 10.750719034024469 3.6519039181718247
Au 11.093006835988524 4.9160098344303975 9.058874365994638
Au 10.257229863142937 10.248432305686022 5.307746075993142
Au 8.183155232746673 8.664064475934687 9.938284109193422
Au 11.965721855941704 8.8600858980485 6.979578279074779
Au 8.853747252015722 5.877353808076366 10.531673145931046
Au 5.36683307867317 7.712668316243087 7.000023289229022
Au 9.902034294702156 10.245601904255345 8.144645135681927
Au 7.918986679869257 8.82052884171564 6.842876459394059
