53
Energy = -143.93213194 eV
Au 11.769879634448912 8.64037134462016 7.8928091867426895
Au 11.493695704306944 6.522983741638045 9.88498658173698
Au 12.042422377798015 5.959865960598738 7.276971471237699
Au 10.721820089010206 11.14139144617183 8.42118580216396
Au 10.538786242634766 9.274872623399741 10.444231423997635
Au 11.049532548109203 3.871404933493557 8.789262672819682
Au 10.869337489132546 7.539625039589956 5.354253734427712
Au 9.236065916702906 7.657081435723501 8.50062666711674
Au 9.7414937072169 2.5274004664873937 6.6110318686641705
Au 10.052987819070712 7.177574826073247 12.13807207010835
Au 10.783782171380565 4.691596975730968 5.206442599802313
Au 8.424983439987836 2.8591521697744455 9.072164301799662
Au 8.481620181200894 12.377812493564857 7.379626970622543
Au 10.462653641101308 10.21890773503647 5.893649590942725
Au 9.64799974247262 4.717191122487176 11.000847601431069
Au 9.213508900195615 9.013722133914438 3.6669069071342526
Au 8.430598326765981 11.086003908366811 9.942274348792516
Au 9.02832791924188 5.1372757723068725 7.308937849152766
Au 8.104824200027592 9.088204624568988 11.933232799784104
Au 7.780800241437298 9.754468404699137 7.086560936471221
Au 7.249271923048624 5.82859065593681 9.328430592980776
Au 7.063084217101991 10.474278569385458 2.4452635793726745
Au 8.330212635925864 11.482297596400995 4.684079395990792
Au 8.047931881559498 7.244278058622192 5.840259284263456
Au 6.843985181426452 8.611900273126361 9.454505365328455
Au 9.198202223904795 6.2037441440987395 3.485931251697803
Au 7.138954302957087 3.677186455423117 11.370807020779882
Au 6.396973410442448 9.093617486487139 4.704880571809687
Au 6.956769508369411 2.4896398378086557 6.631393288643564
Au 8.349061813238574 3.5729457577341996 4.405285734273636
Au 7.184566676688127 7.651647043653299 2.247905086006755
Au 7.02560419230213 4.9229780118738375 2.4061089894749217
Au 7.431822979753352 6.335959447500926 12.115813152749
Au 6.019117966214162 12.239855619079819 5.9896352982945364
Au 5.971438547925064 11.565419649618327 8.626562090765285
Au 5.960857428589934 10.72223453819347 11.268823987100717
Au 4.456714588280717 11.012882695639014 4.137291725369577
Au 5.595347357997928 7.893082707734411 7.049543968296732
Au 6.290474732887505 5.246828911715269 6.761988689133536
Au 5.649577518720461 3.3497022378913703 9.092641097564261
Au 4.96716592695448 5.407175403869677 11.0037078552877
Au 4.6811905470820285 8.888828202594318 2.3777738355106344
Au 4.818701747477012 6.319671522901701 3.334855138070708
Au 4.25799130933041 3.2479462817356564 6.751731992730662
Au 5.523632561898242 3.8429776876162713 4.408634966373634
Au 4.11942117767815 9.641949574211264 9.469609976402149
Au 4.073920148860085 10.384635333993643 6.8198967174124565
Au 3.54272110523165 8.382793566893493 4.899179244261848
Au 5.305584406904915 8.067910276662868 11.769250522092712
Au 3.584852759160002 5.226641858033822 8.566134202864292
Au 3.652552015504533 5.7788034542389894 5.781867527106766
Au 3.042862625511415 7.269387926919795 10.324519799239686
Au 2.913122649557762 7.845379140520219 7.609698894219048
