50
Energy = -134.51729839 eV
Au 10.670875968812583 6.52063721867917 8.16232977207068
Au 9.22040494293701 6.520590137716321 10.487049668305861
Au 7.916291743561671 6.520743487341009 7.732407969988564
Au 7.459308120540202 8.864123159662444 6.053510977308178
Au 8.852205896906208 10.959216457919569 7.371828245228276
Au 9.210804557353098 8.854700670448297 9.105957393110549
Au 10.64493102991563 8.906427015982473 6.679685640610765
Au 9.509052863780623 10.692118362136918 4.734264066770901
Au 5.511080862821589 8.827939730804538 3.6003641720804764
Au 2.7359035709504482 8.913477348841335 3.520971273911684
Au 6.855953721158442 11.14658739170406 4.14095003075777
Au 4.117537286940083 10.734859096827085 5.084709911932315
Au 6.19429407326562 11.438380484308908 6.7557783449456466
Au 6.7844788810851755 10.260630154310121 9.121019111591101
Au 5.5235094031897365 7.950188906124088 7.846199403563635
Au 3.946524734048394 10.291765536670498 7.8378378048985935
Au 2.1771826815034148 8.942083771000165 6.180289172402463
Au 4.522244518389828 9.26245851433634 10.34382693587319
Au 4.551347079288716 6.520648820678459 10.36063569820604
Au 6.9632782800393604 5.039173480925413 10.744618577933075
Au 6.963229374518788 8.002148926699709 10.744675259004223
Au 2.711857721218768 5.115693475075114 8.725464520514453
Au 2.7117728267916057 7.925606987345568 8.725551101917354
Au 1.0458466712716172 6.52064567424508 7.04043234418386
Au 3.8494521863084947 6.520687838838166 6.141659864776341
Au 7.459588987463276 4.177287888231728 6.053669031549947
Au 6.414790832318021 6.5206601233697885 4.910192027615137
Au 9.509131561646031 2.349046118443965 4.734440534171576
Au 6.856075503704448 1.895318473627628 4.1408436646309426
Au 2.1773279702122537 4.099232270426622 6.180276325043702
Au 2.7359976768619263 4.1279405706759 3.5208849905089017
Au 10.96922878507925 8.501118749911782 3.950845998532281
Au 8.232298768549185 4.39868665516486 3.307054598347402
Au 9.164568787322908 6.520618658423419 5.235467094261372
Au 4.1101851022562315 6.5206122625592755 3.241564945108786
Au 8.23211035451038 8.642528155275793 3.3070856218186195
Au 4.117587964946994 2.306457425826842 5.084624422196714
Au 3.946658612949722 2.7495239010419077 7.837761156814821
Au 6.19447987397532 1.6029976761251652 6.755639262675415
Au 1.5515810621585835 6.5205906253772365 4.365660051237325
Au 10.645038003518929 4.134801889016213 6.67977260053982
Au 10.969194058468068 4.540042871225511 3.950931020075979
Au 9.78264520416946 6.5205912600123135 2.449360180558396
Au 11.91133546678924 6.520592939878597 5.696180497985465
Au 5.523544332915834 5.0911862746391545 7.846111148302297
Au 4.5222384061741385 3.7788084588508095 10.343765286327045
Au 5.5107710822118365 4.213828478102762 3.6002273062062122
Au 6.784510975612564 2.7806259868294863 9.120952620624658
Au 8.852267136597165 2.0819833356663087 7.3719277659136155
Au 9.210804602360536 4.18671642011513 9.10607470181645
