52
Energy = -141.04560151 eV
Au 9.19994997254544 11.104704783137928 7.011846117079194
Au 8.19171181151343 11.99992147069767 4.603711725139539
Au 6.928271710089946 12.80036483211122 6.88622229983878
Au 9.983353975677032 9.888340250799924 4.602145185604742
Au 9.645633270333812 9.612635104302546 9.274010846880369
Au 11.125984172029897 9.00741947445829 6.990680665896129
Au 7.4386229430007775 11.43314430946017 9.199033338062547
Au 9.927128132201577 7.94628226235274 11.547118210376782
Au 8.35775445606145 8.314380258478408 6.9344600630005875
Au 11.723921667756505 7.815335575176107 4.489752856614812
Au 12.439229639109282 6.5591452304176245 6.882058303104181
Au 11.176847145111878 7.233718162353827 9.203675144678401
Au 7.7167905035684505 9.650108825842953 11.262433846085168
Au 7.642742744287609 9.820416207503202 3.084441546309142
Au 5.639171153579131 11.12321990445606 5.074297078019963
Au 9.582341181266838 7.907468863946207 2.5972954438883837
Au 7.992334216035366 7.154449197057279 9.517200661984335
Au 9.789387530290549 6.17475340678274 5.848295605705826
Au 7.510076074660679 6.975466483542254 12.388679174293602
Au 4.81994677828015 11.33731286630647 7.810349448946033
Au 11.796519101996589 4.257513330735892 5.5189484931486135
Au 5.609964888444693 8.953423789538697 12.797530000541894
Au 9.77756992073414 5.2948641115153405 10.666536330907938
Au 11.178918807323965 4.558397047095842 8.375283642894964
Au 10.88362688559089 5.530064096046666 3.185631087466331
Au 5.357481195600705 6.294508604537257 8.904963060374385
Au 7.621998773884868 7.236579873213859 4.471511643716995
Au 9.256244508004196 3.616526876373539 4.380382470692264
Au 8.217833877291499 5.409814109921176 2.4083352604432298
Au 10.09935863414227 2.543281794467562 6.826964145355463
Au 3.686448628302295 9.433509033743006 6.0491137989447195
Au 4.903624775379418 6.4326111697425885 11.687731204988468
Au 5.098089946347814 10.64879256857672 10.57135256910953
Au 6.143118925539367 8.967059958551312 8.582034035432141
Au 3.263154006373211 8.739631612344889 11.479726939015908
Au 5.242928844298283 8.782312175959124 3.7719069542471066
Au 8.623979181492425 3.5028794347955357 8.9226907161644
Au 7.475234672659274 5.557119900687453 7.155901127712027
Au 2.7192909026114895 6.617521584052538 9.904026880339444
Au 3.2038534508997563 9.302067364545984 8.811470793809582
Au 6.9531540150414575 4.739223253472045 10.829569983165069
Au 5.613119369486629 6.195036877468182 2.8472117142521856
Au 6.553249203684928 3.7001647228437125 3.8800413688901805
Au 7.425487199375948 2.830269345907055 6.333992205482542
Au 5.592730584297624 7.418586198036349 6.329643639143162
Au 2.642204133388327 7.131322533174344 7.191461766836692
Au 3.3068867428208395 4.4842821915402675 8.2988821891022
Au 5.879977127344724 3.5080313666814567 8.558055675975488
Au 3.4282660701174708 6.905142764774338 4.526514682642644
Au 4.737129344118599 3.3773846958669984 6.087832315555451
Au 3.884454080865747 4.2295687720794986 3.6353646771644463
Au 2.299506563908706 4.759859855325652 5.787439485842436
