50
Energy = -135.06003593 eV
Au 11.298588607288194 7.233111656446289 9.432405596341637
Au 12.115993859184618 6.195022634736002 7.0508801928621825
Au 10.905663466028148 4.2931010890372425 5.563384624096317
Au 10.415839425156264 6.932047487458087 4.917092227057282
Au 10.37172709191257 4.738326664056161 8.615483060753473
Au 10.951836739787153 8.719353963857811 6.999681547281093
Au 9.456925833247833 2.464832266267898 4.217483140449033
Au 10.124464141415675 8.509520880076506 11.551400443992067
Au 9.793001291846023 9.545995903029217 4.640748795459431
Au 10.909854789050186 10.02850558678873 9.36499174738149
Au 9.01405866335051 5.03520360045411 3.454409563534732
Au 8.896985935841546 2.916897281944226 6.9987959519209
Au 9.070594718583422 6.077277649871643 10.669514806308285
Au 8.555373012638297 5.739685358123921 6.83972701383217
Au 9.210142435889468 12.150587445257614 4.814246377279697
Au 9.105064519451565 10.9253260262999 7.430991886633076
Au 8.569940783140954 7.702818166915588 2.930827784701827
Au 8.277748369249439 9.972953448129552 10.094845650483494
Au 6.862930188449284 3.259046568460645 3.4262194972580473
Au 7.366355067424887 1.2542906287936941 5.381976779836881
Au 7.686903797827454 4.116701114513696 9.205615728657346
Au 8.084815534912462 8.439234822633884 6.595490154171783
Au 7.512841901789572 7.988257848773847 12.029242404903032
Au 7.766371467503376 10.44103154228691 2.995082335884523
Au 7.0784656313933185 7.488539837592443 9.043725283328406
Au 6.881389717029294 11.013520573123692 5.592413030781309
Au 6.5154293358343605 5.768264101433269 2.301361233325231
Au 6.336512420364799 5.582994915969013 11.137761176438843
Au 6.21691077370595 8.488587094114063 1.8174329934537015
Au 6.122921904799978 2.555108430927642 7.440478518674064
Au 6.705364493881851 6.4742052761374556 4.937708881921129
Au 4.806857009243848 2.0589493622647463 4.99678325831693
Au 4.850898864624874 7.552121541372965 12.4578502151294
Au 5.045790956993891 9.98260004666334 3.7635546630602774
Au 6.360590400048881 10.611004488532641 8.275166650484142
Au 4.8110609272944735 3.9134776817914374 9.440531359542039
Au 5.6159658326164354 9.569783565277636 10.748588336346238
Au 5.347854979083015 8.153909116828 6.760540323421255
Au 5.820823582986631 5.549968999244247 7.442472715582474
Au 4.286450653642956 7.240324905366307 3.296026110734502
Au 3.525908166323409 5.522749524781867 11.18990013930381
Au 4.532930144765271 4.60271158703886 4.054872883473572
Au 3.22059600362254 8.06569220929535 10.213242012128921
Au 2.9420482692799057 5.858324769892452 8.49327361528284
Au 3.1652348521146147 6.351686081656205 5.752453426246827
Au 3.71180450746116 3.83200253274988 6.729007111521277
Au 4.260201502090918 10.646435786592166 6.373877604460368
Au 3.691298420485201 10.50068286096734 9.081984133136709
Au 2.730330946694916 8.89666123276918 4.790228789906293
Au 2.634068479402042 8.472552752798014 7.522161140604256
