55
Energy = -149.36685962 eV
Au 11.08373472133436 3.4780307567893396 3.953608655769039
Au 10.948900480849643 6.153829986855194 3.931369959002434
Au 11.005638161513263 8.831442417315477 3.9343900876870066
Au 1.8010082126566498 3.4151212025111395 3.9476412895721507
Au 1.8559427022537205 6.093100774298828 3.969005277084294
Au 1.7158021936077172 8.7701634820725 3.9115052687152563
Au 4.175668260848595 2.166844472947034 3.943355834974989
Au 4.048745744203402 4.744001628118437 2.909613311361242
Au 3.9998775658886676 7.489369508599531 2.8775896431793693
Au 4.07601435774003 10.050294844714179 3.9555394681259037
Au 6.436417945305457 3.3871889231185848 2.8698698742345723
Au 6.473614888173171 0.7639082161328166 3.9626380106270083
Au 6.366384556320332 8.873676136787111 2.9103048766557102
Au 6.339406441357739 11.50005960168564 3.917218441021682
Au 8.721570274876074 2.2225581582016694 3.935190564230023
Au 8.8003497397764 4.765945542620216 2.828673057727531
Au 8.748711233763842 7.510455224849171 2.9103398780269587
Au 8.634422430785552 10.084084163234897 3.969253008171218
Au 10.195547770337607 2.445353187080672 6.37890306445772
Au 11.593066965421235 4.78224957044456 6.341150963073214
Au 11.61051895772088 7.535089440672357 6.305348109331633
Au 1.1624740407312932 4.6871236821169875 6.323106471561457
Au 1.1364513879219282 7.48739764089226 6.288236265864437
Au 2.4856699332881718 9.982980089475847 6.279378426263555
Au 2.668443538227019 2.277232827907567 6.323057544377131
Au 4.02073098764446 4.820944509544248 6.511978248197052
Au 3.9926084683404497 7.539755979849014 6.90246738056891
Au 4.903527537132067 11.393342264892302 6.277964527994791
Au 6.394246641552396 3.499231405105362 6.935902305302968
Au 5.106810809679273 0.9903991598052111 6.354652172286951
Au 6.35927429726269 8.942750931389886 6.840373640068104
Au 7.773648118668874 11.401815737132646 6.2796547048827405
Au 7.829693894833156 1.0837735676132394 6.387457599759426
Au 8.772603296932552 4.892228211646173 6.924208592495136
Au 8.744713959892746 7.604611098372775 6.513569707701088
Au 10.230966424521323 10.037563630553255 6.305533359335056
Au 10.748340459654438 6.039155503101166 8.611818464968124
Au 10.941853222653839 8.738452753497695 8.690257350936982
Au 1.938191912757399 3.438528516059798 8.714439533333596
Au 2.008443247009359 6.113843055737966 8.597148326032542
Au 1.6973278973337194 8.804883287266623 8.690628746358925
Au 4.414864697456451 2.335469904249572 8.611863130988425
Au 4.012677953468093 4.775540080793755 10.044497809420552
Au 3.9820951876029924 7.543201637692105 9.949972641577084
Au 4.130627980899184 9.980807777032984 8.58161363116658
Au 6.426832060693046 3.4990208280100816 10.012113303246199
Au 6.3578053159010475 8.935495221137442 9.916657699428926
Au 6.337835755960273 11.549777192193895 8.683392922987888
Au 8.580607043619194 2.5370246037254134 8.59952771161213
Au 8.753751950211328 4.866590797869725 10.02726979940198
Au 8.770586038721397 7.592695670599464 10.025154301210284
Au 8.564199191732778 9.987152916314589 8.578861356285241
Au 6.362493279687561 6.237465139216515 10.47288747426638
Au 6.383834205200905 6.212366506403735 6.507903186599538
Au 6.397173816395969 6.131358792070993 2.5966911788111755
