50
Energy = -134.23035304 eV
Au 6.4537591114443345 1.24585878760555 5.1937728563388506
Au 3.9302116738237083 2.2933158854685156 5.072155462483714
Au 8.596959423167949 2.2623789702515698 3.85366428989574
Au 8.295372158130467 4.686274525477993 2.6492065690938906
Au 3.594008733311757 4.2998590129626235 3.223639449997483
Au 5.786026699333094 2.2836862822906285 7.671462076272099
Au 3.2675520036584382 3.3480024507668658 7.5251828886823295
Au 5.149658523808259 8.258198589027682 2.060278269890083
Au 5.985991994193586 6.904312690515885 4.52479579212647
Au 7.797974377086568 7.378194591320916 2.0896828076267955
Au 4.503783944450857 9.459231819242923 4.531539606727342
Au 12.009846809567861 8.689851842142895 7.806524207123424
Au 8.340516379901876 2.6886999344424902 6.609016864894093
Au 2.5549538944773524 5.191512688844766 5.623594312045104
Au 9.917731132210854 4.62500999967315 7.787099643230545
Au 10.114278563287042 4.25441123725504 4.9346473674474485
Au 7.626993105497968 3.8290333956109537 9.109542158998392
Au 5.417338526501242 4.512256295094629 5.756993698555652
Au 2.9859099580955353 5.960814996905243 8.293887661063259
Au 7.904532578802789 5.570556824014229 6.01460106244186
Au 6.034000383220628 3.046508848106223 3.119474570169694
Au 9.357036449491341 5.8531460777374065 10.16853787930983
Au 6.782965956943914 5.511226572561188 11.124678271708037
Au 10.017883596078894 6.643920569636726 3.5766278019697073
Au 4.160158541333742 6.54991498343987 10.710549318893666
Au 4.839075439481804 4.038342104368413 9.685941025509038
Au 5.854855992977155 7.54131369992453 12.712350899317471
Au 8.352061423469724 8.252421159465658 5.3461498491166575
Au 8.531967699190513 7.540749324888176 8.058876349072028
Au 8.429972864948379 7.902656472995639 11.74174944554715
Au 3.280811438588334 6.979194266213271 3.6015831429075584
Au 5.977992588278169 6.036928312515174 8.071609183393155
Au 10.390436398752207 8.502550012449595 9.946657267426595
Au 6.3953872144328985 8.208445736792163 9.770220722465455
Au 10.740072698990481 6.750792518704187 6.267807969773387
Au 5.6976816872321345 5.545495856005783 1.9804157501434958
Au 6.095912639014997 8.512780645370318 6.9521071938585255
Au 3.673984018711082 8.654222263151212 8.788495354284322
Au 4.039549108278872 9.291822219927504 11.414394394938457
Au 11.060717694857116 9.370720121052111 5.334084410529324
Au 3.130161517555298 7.847445016111468 6.254298665296227
Au 9.858701105440243 10.381259310836834 7.680801502511493
Au 6.6320552362672345 10.120553267775318 11.998124920176867
Au 8.348818856741389 10.439681769376234 9.94606429035346
Au 6.957229408272203 9.874860494093811 3.359453399497227
Au 4.508027818150687 10.709532143635181 6.978721570474681
Au 5.438371891387797 10.934038547790895 9.572396338193393
Au 9.61901678256127 9.325491105178125 3.0035373428495857
Au 7.228024760534688 11.205563470802442 7.4991798599034025
Au 8.704199032012744 10.99101125460651 5.2169504840728536
