51
Energy = -137.30245489 eV
Au 7.693209402124571 11.73172601206063 6.349822008113045
Au 7.453514296951448 10.49930099183705 3.8715725222105193
Au 11.211625111476927 7.664126840600937 5.091265603181506
Au 9.2199544102497 8.24910357102064 3.311980492331779
Au 8.040821599620562 6.028038639622106 2.059274158158625
Au 6.883166219109511 8.490866291476788 1.91709092094282
Au 9.523064057806643 9.761129873874394 5.647652636271952
Au 9.949850285435097 5.504881235937676 3.975404884518062
Au 5.26291220284458 10.542206879042155 5.725617734950538
Au 10.837519816036643 5.354536991545527 6.6329099909148646
Au 10.224643885814348 7.8979711053707655 7.663344834230526
Au 7.892320512769339 12.695929288110106 8.977013469652661
Au 4.694790255876451 9.6544377205562 3.1627635913669594
Au 6.9810260463108635 8.625170023059516 7.416935749926169
Au 4.455553635344641 8.25324915840275 0.7313168980793943
Au 6.552591732459762 8.010896245056484 4.71028659814518
Au 8.18422374718162 3.5457537213372783 3.136474758260076
Au 8.17455545888236 6.288739092362077 6.344827766667447
Au 6.32681730061006 5.319245103166158 4.35273757264382
Au 5.795912753503514 11.04905706296764 8.446438093793839
Au 9.715108741465164 5.595670326396015 9.185200054525597
Au 9.177199522236423 3.3122691663245303 5.667817319591889
Au 5.26173891372346 5.831559224373416 1.7820421455596243
Au 10.273112194601921 3.096819491907919 8.16712734311168
Au 9.068451988446292 10.298283900275743 8.354587895674893
Au 3.1282977663208245 7.3447971522264455 2.9646138782070075
Au 6.7035744595067825 2.1159326631354434 5.044187845299234
Au 8.773125218088973 8.090120214776183 10.006046229777812
Au 7.3938885409397495 10.493534034697493 10.661050404829616
Au 5.476559803432701 3.154825539031182 2.667212182764509
Au 3.0280852848786877 8.976108780403537 5.242786378584076
Au 3.889071821841709 9.293543883065057 7.841499522049971
Au 4.9873332692797865 6.666210631090473 6.543256418344704
Au 3.4211071286193726 4.658879964998086 3.6474069082262766
Au 6.748657114424794 6.257708364009666 8.852215772148334
Au 5.10148992863592 8.889622438133284 10.241017953473722
Au 7.841322945233663 1.8596504725927796 7.6303256811852975
Au 8.432215553954238 3.3012058547326153 10.148623452959663
Au 6.422458206590323 4.2206166713701 6.947109793658025
Au 8.035754765429914 5.752004742982032 11.406799325189613
Au 3.939864782705718 2.2585559337376946 4.846442481972944
Au 7.04166593023705 8.228375154850239 12.145557917819183
Au 2.320784451972999 6.3216700669276245 5.393721277984957
Au 1.6395577641379835 7.850022837144664 7.497302830539909
Au 3.6753870206529737 6.674847966398551 8.986302293909107
Au 3.500766649410984 4.265495268880742 6.803734869470419
Au 5.206514386917995 6.2925695704544164 11.255552693227859
Au 6.132667270559449 1.7510630287648243 9.786573390649792
Au 4.725975814678298 4.142269046502849 9.312894019161872
Au 4.941840708335876 1.8513556530026214 7.345486829885233
Au 6.133134512122418 3.7341025871395415 11.675314911493004
