54
Energy = -144.81010458 eV
Au 5.387872143230511 2.5044756715896948 6.369590745161542
Au 4.6599941577719 2.1317633598405665 9.000991439009024
Au 7.928892724318351 3.1825458644284694 5.640908027969903
Au 3.3245230243160964 2.5336216025289064 4.61192521382819
Au 7.217759468906104 2.933765425799291 8.34165079432385
Au 2.90575454481289 3.407332997403296 7.257281443838044
Au 5.847733499609337 4.032492145438066 10.598645574673881
Au 9.874952274843963 3.649379919400212 7.8336396030040705
Au 5.687345897452412 3.7725574007282376 3.880319535336964
Au 8.58309339341106 4.131176289308828 10.362008755378238
Au 8.600993067132386 3.9745192890731404 3.0183852633974655
Au 5.178661485346011 5.556114654074874 6.264937550947039
Au 7.022820382128481 6.248045458436839 11.641782809696002
Au 11.099366156098228 5.1797900343697165 9.831136099013658
Au 3.2298017812948614 4.321212014893545 9.966228902412002
Au 9.785886727789533 5.9780067966230375 12.07637684380273
Au 10.2912796212043 4.428507288124824 5.1277398107190955
Au 7.285312777399311 5.998894447269906 4.497678848320846
Au 4.5096387979067964 6.484588688097078 3.368049901350287
Au 11.369214546781123 5.961379389023309 7.254072166097192
Au 2.6586974477642347 5.128508494664367 5.060072767018814
Au 5.951770035393974 6.494192298775533 8.820251814350105
Au 0.9377920480948552 4.769995546678107 8.559857794432158
Au 4.320695817941888 6.636909231630443 10.997013517552322
Au 12.436614980767498 5.936743726590967 4.534276040092252
Au 6.567458703868315 5.4107310784402145 1.7962761380482053
Au 7.990140921494879 5.598695772956933 7.215905867900796
Au 3.21437567212396 6.444646971739147 8.09741304376661
Au 11.23404923764887 8.083494722686858 3.3527737522959526
Au 0.8439617855737555 6.628733479761563 6.565228305818112
Au 8.961852811307415 6.990255616728668 9.544470037208594
Au 9.522582903869745 7.316661390360168 5.477365535437868
Au 9.011891305110682 6.750580611176139 2.3422543426637557
Au 7.592231806396431 8.328424886364074 7.538797225067784
Au 6.513625330223739 8.117176454953457 2.0855226781860785
Au 8.581636546167045 8.498108739590114 12.13865990765997
Au 4.8290692035526845 8.413461649549818 6.6025037801520945
Au 6.202352550168001 8.822136271532708 10.833967673847447
Au 2.5358834072070797 7.845724905892143 4.788600261190717
Au 12.290847846982661 8.247469314084185 6.0269083318467
Au 7.145989618112317 8.737069350148289 4.865977251190645
Au 3.9304161413640117 8.937371546423247 9.385864335112872
Au 4.5752458290755085 9.300278160785165 3.859213949986237
Au 2.0263854378578463 8.967588875059382 7.344630720659968
Au 10.422429279137823 8.828749037369004 7.906987085136119
Au 10.422935877986268 10.10811171220434 5.321751097354284
Au 8.65162002130264 9.911320124086185 9.816201347211067
Au 8.993107544218585 9.509605378699675 2.8339680660014053
Au 8.550179300439131 10.982659383927086 7.25804209789732
Au 6.175380889569555 10.628814787485695 8.688416079341023
Au 5.882104830193966 11.043963243407502 5.836456844630995
Au 6.534984040151405 10.816037190335935 2.699014161471613
Au 3.7457472683366895 11.03999101180276 7.54126040630256
Au 8.301659012542968 11.618215655435915 4.611959487369259
