52
Energy = -140.63464563 eV
Au 9.039771667600835 6.25642326356641 11.717493918594704
Au 8.034334699230833 6.454051221500632 2.926993288446214
Au 2.350532640169725 5.981991470660669 8.97631787281158
Au 1.980220709333524 9.939634066914548 5.1669091865068015
Au 11.771320452528839 7.2595244376566015 8.144745765669075
Au 4.5069451298887415 4.286800127119591 9.397794164679187
Au 5.751250450127347 4.921911559854211 2.7326908269895545
Au 1.2521454222582133 4.701996187389447 3.8282154478551362
Au 1.3399926472657613 7.369118113045137 4.361937995160698
Au 9.51855945460939 2.1992592420523445 8.143993923428585
Au 5.694250167060484 7.652876086168727 7.575923527311699
Au 8.24856465461455 8.333292548550572 6.465836573485954
Au 8.056953790375124 9.802242294816308 8.971964221331321
Au 3.4759173678321065 3.4770595129312993 2.7744925598206898
Au 12.002097370796188 8.645159463610959 5.775478756531975
Au 5.594057974992052 10.421682181293773 2.1973894322492766
Au 10.039688370994314 7.866560575445985 4.041848742418603
Au 7.1451377700265715 7.913629341620039 10.771784711426774
Au 5.619777772561762 7.72096360127288 2.705302539507865
Au 6.962559386822403 2.7701826802666236 9.126629093793811
Au 11.104682915775017 4.4583719627694425 8.026838216747489
Au 6.426055595213043 10.402719647936358 6.860402429146666
Au 5.356458050865645 9.600439226433553 9.510555937925268
Au 7.456311479371011 9.429121057179925 4.027547509454301
Au 9.808809910750636 10.33254918984194 5.240876556744803
Au 3.175863617098435 8.996334169812519 2.8153599944200507
Au 6.749710653612686 5.088131119860974 10.767922375607979
Au 3.261441200964875 6.2238720567731916 2.598464864061075
Au 10.514744394457013 9.73514288183227 7.845075252139091
Au 11.370976245200211 5.797314020208712 10.39575801349394
Au 3.9483504176649467 7.742799342560721 5.337633015206105
Au 2.7483150401442393 8.715874467871028 9.484212961374658
Au 4.730007108540802 10.481752876468397 4.750088522159132
Au 4.941628328093387 2.6667838174852982 7.204716245195053
Au 6.326470911997871 6.415959364626553 5.163331612994769
Au 1.335119388476023 5.323746806669057 6.497295274573495
Au 5.461505189884911 2.687350527948586 4.487589865860712
Au 9.252512716257854 3.940939944829294 10.211593785238835
Au 10.215134350623085 3.2832917373062482 5.666862505284319
Au 6.75370686273389 5.0462756479652295 7.591002472180338
Au 4.10862529073402 5.407350700561298 6.806221461734241
Au 8.940724921236777 5.721164427443867 5.96202738167949
Au 3.695077776647637 10.064592636176311 7.30043312754881
Au 11.775962343611742 5.879917083362475 5.747565885974338
Au 7.552027273079861 2.2998876025235835 6.281178209917738
Au 10.37929058225781 5.127680436775192 3.5351835301116377
Au 2.88634070406388 3.2032297534712257 5.519617553135018
Au 4.617869146944474 6.887779688997047 10.346875350046906
Au 1.5723471091564032 7.9907154607078965 7.1309444600035405
Au 10.098147888075284 8.382335930125366 10.238418759928344
Au 8.81819984717401 6.553599858729428 8.608861764379844
Au 7.96408956278305 3.7582811687188364 3.962898018864328
