50
Energy = -133.85319965 eV
Au 11.060639335164714 3.3818262876789 3.498420659423218
Au 9.685151308093538 5.7450217582451915 3.0216110347278384
Au 8.444007820681923 3.204432399741645 2.638818412634168
Au 11.705598157842877 5.508678573762534 5.035219828331503
Au 9.55675006884318 1.4185324481057668 4.556556173513601
Au 8.14148931356266 8.04817634550441 3.0546404263735223
Au 5.793039885533323 3.0726568089376394 2.4045514108428496
Au 7.017254471141758 5.647941969207961 2.2195475384668772
Au 10.038496908441315 7.663932137267508 5.033313190811112
Au 8.470974884725859 4.392007359774642 5.315504385732688
Au 10.74369079058778 3.286969646238168 6.463564912862027
Au 6.824713402403833 1.7730388984910295 4.6191526823871465
Au 6.553749256101163 10.274509034214974 3.253184027228112
Au 4.190562269683006 5.4615354693499345 2.475602102192908
Au 8.633016475230148 9.9739495112253 5.0823267037890885
Au 8.486834103003476 1.7491495562780093 7.032837412812406
Au 3.171104588480292 2.858194592219879 2.9676514829642398
Au 5.400452869953711 7.870132435096504 2.708347726190539
Au 10.348485284392156 6.076200891922196 7.324043998310783
Au 7.260454432231417 6.6162920674759915 6.372861365639026
Au 4.160421094853296 2.4976422829879574 5.550240550039555
Au 4.895634313779759 12.55164760940943 3.5089853886891373
Au 7.103043400329828 12.24102713854012 5.111292527446736
Au 5.824890583945161 4.813083183103238 4.723031230275389
Au 8.985346016854171 8.581730442754612 7.438053485136914
Au 9.0406481637857 3.988475449748147 8.564950545369951
Au 3.845689061923858 10.022222244208068 3.794693004245303
Au 5.138159387482735 8.395406664556642 6.087806754366361
Au 8.83343797736914 6.706619090905737 9.497008725806893
Au 3.0926508249029516 7.4983675110940124 4.242137407658791
Au 6.889172368706225 10.455425396015201 7.20203817895553
Au 6.474658316569781 3.709096172758482 7.282082486620873
Au 4.495719131362673 11.547009487119963 6.041615460292231
Au 5.8606027508681455 0.9556928321075077 7.090591811624675
Au 2.7886037999120252 4.865580975224361 4.763244775094714
Au 3.3935271253417234 1.4501622877677467 8.0967566707907
Au 6.367545884914345 8.105754670113235 8.599053895687586
Au 6.746655089578576 4.986146941474098 9.725053165793014
Au 2.5675745275746924 9.48209989957197 6.320998254055337
Au 4.652476326109226 5.828402313593249 7.117644185654494
Au 4.583257550410552 9.010039116745876 10.72294602657197
Au 4.323126613422305 10.342838886105481 8.415421589029275
Au 6.7481603151337035 7.322570533253324 11.23070058689867
Au 2.0343467532795745 6.755804343132389 6.701671022792444
Au 4.355068431734773 6.4096276040785956 9.931899966542773
Au 4.377889832660548 3.7429510000435013 9.213465021398811
Au 2.308310352001459 3.9210442137097146 7.216715603272848
Au 1.7470926532146007 2.9794294712928475 9.731794836377624
Au 2.5005440328262627 8.336579299878645 8.908404652653832
Au 1.7209732131636835 5.702067796358749 9.292668441767109
