51
Energy = -137.71246437 eV
Au 11.017328433423588 4.32955520408923 3.1302924249257713
Au 11.674536490521044 6.801510736588666 4.076916045305692
Au 11.350126533658237 4.719888141388317 5.898586518591884
Au 11.246270859044959 9.299007617061124 5.039902231268113
Au 11.134817011098335 7.295425463885632 6.97779858986269
Au 9.425330018062908 9.523457384582843 7.136045868974952
Au 10.593705382233221 5.210280566572173 8.669577010423328
Au 10.2412362401855 2.7476860483862424 7.430901265650586
Au 9.30942622046753 7.651726337091074 9.147030462128514
Au 8.772414516953866 5.503477130380595 10.741501506020196
Au 9.657338273940343 2.6520444740107507 4.768184997554746
Au 9.498110036422192 6.4115841231007735 2.219275853242858
Au 9.047304406169014 7.4093786134692685 4.854508363778744
Au 8.745646590473962 10.271970676909708 4.4763043306312555
Au 8.597065672804103 5.253889840169764 6.656486074607686
Au 7.1626825305989215 7.781937010817073 6.876512054308987
Au 6.962581556064757 10.720475938882103 6.536955744378615
Au 8.123538459421757 3.530651835692316 8.992827025120803
Au 7.624773929823853 2.21552173076232 6.638225965115028
Au 5.937619455577214 5.624714502110515 8.147127796366897
Au 7.902128462053403 8.607424144071292 2.4564362868550247
Au 7.31777961899243 9.575637619635598 9.092075197664728
Au 6.69341078322035 7.294206928487536 10.487643367413126
Au 6.137453653501957 4.520156235336867 10.709301911464069
Au 7.1754738503035576 1.6827195015240504 4.011382491160168
Au 5.2773182509854335 11.37521350388131 8.622451612105507
Au 5.540824857005572 2.7905310800894583 8.316364026594504
Au 8.292948426153629 3.9085788215569752 2.710251548100636
Au 6.025450528522504 10.028059479774587 4.015795541923466
Au 4.620517021076357 8.994030380888537 9.869648623997799
Au 6.6862414542434685 5.949951525004579 4.8468500881099
Au 4.001962280256488 6.372976057600753 10.310126441666055
Au 6.744792932606618 6.067943030945358 2.0400178908392945
Au 4.246477788004115 10.501814444658283 6.099272898774926
Au 4.979234800544435 2.2736367250748195 5.612115233920834
Au 4.312348069569927 5.181586046703458 6.047494230621691
Au 3.5959845298669424 3.706440686810847 9.99887535362017
Au 4.3970672710690595 7.721217809547351 7.074272316204183
Au 5.219887984596711 8.364480920576355 1.9549983593934361
Au 5.561243297972126 3.7976110048761154 3.3169302554658127
Au 2.720968119792757 10.472218480882391 8.429358738099046
Au 4.133847351608668 6.128182576596893 3.2028122435627853
Au 2.954235340272715 2.9752826246647626 7.360494735339388
Au 2.1253095175130814 7.866430321065487 9.023641146186774
Au 3.581831171175059 8.683719398296002 4.127424812451807
Au 1.7373075732453587 5.156027595059055 8.747400955166366
Au 2.869706807963709 3.763949061559426 4.269770520352988
Au 1.9289972254645216 8.921161029615666 6.302562825968286
Au 1.9388380373788507 6.5392743386594345 4.790056791551723
Au 0.3684728478450455 6.846018592686468 7.088386275790576
Au 0.9526026491945334 4.335305164944764 6.134895459948044
