50
Energy = -134.57225609 eV
Au 7.373752809451672 5.906470476706479 1.14059421412267
Au 7.659302732544566 3.749648156558761 3.0811291182886134
Au 9.212308427633381 6.086157806739094 3.10027470511427
Au 9.166424658541727 4.29404437886221 5.360760480083927
Au 10.841757074256689 6.441602438210304 5.294705548092388
Au 9.66608335319156 8.708462211766241 3.916538057374798
Au 5.355451103145882 4.201976209262348 1.5053795205779985
Au 11.884642511761232 8.996077840809482 5.545463635115643
Au 12.507549677111216 7.005829228356943 7.391220366002304
Au 7.22839046241525 8.203828021499278 2.5683314892678566
Au 10.554602005695415 5.045313311048229 7.692299395493736
Au 6.9529367867641065 2.6933009272310606 5.658968427558654
Au 5.235749138618349 2.377148910523846 3.5372888773067324
Au 8.486103022255712 3.206841576696055 7.955677003708716
Au 5.719412544048006 5.232771155704896 4.611556945708
Au 4.825595173840211 6.845623367388225 2.2570945424162665
Au 7.671737417296809 7.211826507788042 5.228069929587758
Au 7.268165220901169 10.05847924984569 4.667599383714325
Au 6.990510735527596 5.352079893923943 7.110627552420927
Au 9.54945285839823 10.327717418011868 6.159919394133644
Au 11.136982612379137 9.248800966233118 8.237666552800409
Au 3.3600184060488054 4.558654197058463 3.3925312121690134
Au 8.652099031710803 6.921489028456177 8.764697806717212
Au 11.228109239500382 6.904882555208099 9.803267341541606
Au 4.82395630640324 9.212798466743989 3.6487244857582435
Au 4.955016595538908 11.393322479117774 5.426139028901308
Au 3.0496460109530497 7.090245158340483 4.3576566506683685
Au 7.270147282169008 8.864673314063351 7.4216007247317926
Au 9.452954919334674 4.605734021213832 10.237059573095454
Au 7.168176747598829 11.61714589842249 7.104665839320225
Au 4.031995740849 3.0768725557161987 5.86429614276161
Au 9.430288015043637 11.328736729717958 8.705426479680133
Au 3.243675675828466 9.372261964442258 5.965845893311555
Au 5.578516778066116 2.9611166841789576 8.11823915939967
Au 9.479550581040463 9.23579201151513 10.46253172996428
Au 5.073743425686104 7.210382330557347 6.4215397926624425
Au 3.346192734119375 4.589506216861774 7.9601367803415775
Au 7.020116717379419 10.51687922291633 9.789969509280455
Au 2.368474579879067 6.98537152254197 7.025638681948677
Au 4.761466924175104 10.76039428246685 8.119419048610679
Au 5.958361699928624 7.075936754297646 9.155708442480075
Au 9.4180789201784 6.892248828709001 11.845354923936856
Au 7.135232550968402 3.100481184672223 10.375406973040548
Au 2.5185686970025594 9.292796115717028 8.668913162001514
Au 7.087691154080073 8.414385932620446 11.605365280063547
Au 4.851710986071016 4.623323407720079 10.289436222290949
Au 3.195634407401616 6.79895212879842 9.634985771858208
Au 4.633188144778011 9.289776268433895 10.479821216661753
Au 7.133317582420505 5.494103594965663 11.721557647456669
Au 4.792186083415522 6.922763354707764 11.917925603802846
