5
Energy = -8.42015994 eV
Au 5.452555301913902 6.565967637892102 7.2706059259367155
Au 5.898640244980635 6.8532542939497025 4.539783448202377
Au 3.8111790032071275 5.263491806717872 5.569387458162584
Au 6.348386655679052 4.31472036719853 5.915253947762774
Au 7.992271800639171 6.505598797831301 6.208002020695126
