52
Energy = -139.06107201 eV
Au 12.715071427436767 6.419279468594683 8.541148805593911
Au 10.448381432126986 8.03678132607885 8.709082306588188
Au 10.452258900032946 5.322501599861298 9.633361696255262
Au 11.387518524859127 7.0856612276784805 6.216602268045307
Au 11.518905277091532 4.322072070705261 7.166475270154836
Au 8.208115062949933 9.571333206776737 8.775042752515105
Au 8.269103024346524 4.194778497809522 10.648319383466111
Au 8.202024276750212 6.962042804279692 9.890261102368502
Au 10.012299038276405 9.512716325881721 6.373190435454295
Au 9.053873951678739 5.673396615369203 7.095683475564309
Au 9.378975192082272 2.9654796183419156 8.351451055059073
Au 5.805300066853132 10.871362284812253 8.719473113531645
Au 5.691247974593945 8.213237797205398 9.371752517590526
Au 9.609060382359354 7.460773692011709 4.24047490679971
Au 5.974665804894628 3.1538288112915063 11.72084251894942
Au 5.8500947556204395 5.660749265971553 10.681828872455243
Au 7.760658920919974 11.125989751738834 6.475602063726533
Au 9.626264872356371 3.2669490898791125 5.5485794131294455
Au 6.889486858595899 2.1780239403010357 9.31856206026259
Au 7.630863727147627 8.008751359949098 6.456707172739269
Au 6.433964412485245 5.832096395895327 7.910437294838103
Au 9.130666101128005 4.875408112714247 3.280020472407164
Au 8.618133405070514 10.021375941595098 4.02329695480503
Au 7.587770643725379 1.699261499624649 6.716020395140605
Au 5.415753059034767 12.531247700094413 6.4107106116332275
Au 7.193950255910669 5.650328568272931 5.016173444794787
Au 7.86326605647495 7.093194183941788 2.147160068828228
Au 4.86436919033868 1.528607122551099 7.582067172252012
Au 6.154549076202316 8.225654595701481 4.061059770226361
Au 7.379310882057313 2.90882555701867 4.082379470389939
Au 5.253205958496833 9.463522604610795 6.35956030567746
Au 4.25141005743737 3.358016642042273 9.606583693619058
Au 6.1388888716056345 11.303815596810223 4.052628692479701
Au 5.758806275501477 0.8185563816509815 4.885842899729029
Au 3.2396443943179647 11.201835679182201 7.609307518210207
Au 5.430970482791528 3.868490361422903 6.208917678944389
Au 4.669003900243671 6.697416417696592 5.855294500186034
Au 3.824774626631301 6.063039832561211 8.894502295788932
Au 6.915444270950932 9.788082405973185 1.8883188949189391
Au 2.7682144478802706 3.6317238153524785 7.290641028028485
Au 3.4207820392497887 11.276865764737844 4.85813478799358
Au 3.170387700150496 8.555116904287882 8.046680077177813
Au 5.215165411579939 7.699663708984931 1.298057553250787
Au 3.995222897273109 9.649776813080685 2.823575228527477
Au 5.5565881013460725 5.350338923676464 2.7026529577085077
Au 3.2678198640658844 1.8866849824384435 5.312448142153912
Au 2.5247018155295695 8.693721309569876 5.285390945918114
Au 3.3132962787451365 6.980421421468758 3.257399756481048
Au 4.768208076963093 2.860139008693862 3.2152691137104434
Au 1.500993293282201 4.799397961979448 9.297010939192035
Au 2.0562535356284326 6.304336066049659 6.688422124570097
Au 3.071648487745987 4.630742699275386 4.590809982640163
