53
Energy = -143.93241596 eV
Au 7.577244500843948 2.0230696519584885 6.792017073672387
Au 5.03047413511161 1.2489976946869643 5.62772285557573
Au 5.302783609583015 1.3762517469551587 8.303506316076659
Au 6.8886569666428485 2.527020388094983 4.136403116550986
Au 9.619099336304316 3.476766982325464 7.959823102615939
Au 7.399389564174116 2.600803743258628 9.553787568560349
Au 9.42329375503584 4.040285391451063 10.667694925527167
Au 5.849953356935452 4.312661710514371 7.587960008282069
Au 10.8887237662505 5.453116128981203 6.291774618219652
Au 8.655168950200768 3.7816455700729437 2.537032693838395
Au 9.364653559466076 3.4100651105550073 5.150960844927733
Au 4.300499400106899 3.5914512527366123 4.474222347829895
Au 3.38698521831005 3.075402505915385 7.167300654014821
Au 10.869229120533667 5.73677715701978 9.076799283176562
Au 8.187121256975072 6.29403826442082 1.5478733871577384
Au 9.93294981530415 5.869011902554404 3.733969258647849
Au 10.699364368929162 8.070714141241213 5.178252993176204
Au 4.601485437515706 3.4162306280271904 9.92982027474857
Au 12.203146867888897 7.555531722760006 7.474081675916504
Au 8.108442493400123 5.447249462802889 6.624264871222356
Au 6.832532470555211 4.899640885507131 10.99853413763495
Au 6.044373861550437 4.7579429823814205 2.6328352463278155
Au 8.96098818382544 6.751108361958624 10.87998419796867
Au 8.969015300656487 7.769265928837321 8.026967229693332
Au 3.68797704319036 6.062207434510241 3.329803998122805
Au 2.589510914432984 5.3434585221826785 5.862995254468891
Au 4.2446795872043435 5.832609733188858 11.081558796118186
Au 5.602359735547386 6.008605937924626 5.3868104052181405
Au 10.97305765428392 8.46047776879845 9.833804731185387
Au 6.117523492358542 7.515892634660847 2.878374416921705
Au 7.539330882072979 8.023884374075738 5.633033773446276
Au 3.2175362083790526 5.520815907196928 8.515809863247432
Au 6.330183096169763 7.634570760239181 10.92720499052144
Au 8.35291489462336 9.409528873920559 10.523614691847543
Au 10.978690711936876 9.950437206864214 7.168490914369622
Au 6.152803087042363 7.0374531209112146 7.98918655272592
Au 8.779137199825664 8.437391309487893 3.149816498507905
Au 1.5912893553283938 7.459437878980283 4.491588474279422
Au 6.973502761724608 9.710310547003573 7.723826970793071
Au 3.9016046411032432 8.007998037478108 9.487537894664504
Au 4.079417841689231 8.603183499776353 4.4187858364386425
Au 2.8134587372373905 8.018581576501868 6.9378016979420325
Au 9.156690634725052 10.41710177719142 5.053102838895337
Au 4.532426698730868 10.78970387388021 5.879636190044483
Au 10.389488805255118 11.117480193899336 9.612645661883196
Au 5.5765140186181785 10.18398691558738 10.128412056137625
Au 6.49535353926792 10.019413513728935 4.026703351359505
Au 3.4017612167975297 10.352409678802628 8.281180026323796
Au 6.972320809533344 12.034746022114991 5.8113193040331765
Au 7.729062890912631 11.891349220632284 9.597906394669671
Au 9.389916668936449 12.123235273315617 7.205749847817356
Au 5.318271720276543 12.243252543068346 8.184487651308817
Au 7.432747461491347 13.944090992555486 7.749796836184806
