55
Energy = -148.91974132 eV
Au 6.373685613265982 11.336310396355335 10.508369547809764
Au 8.015284911361249 11.822904385286996 8.392212513871332
Au 8.893550223406317 10.27427624647265 10.651508740221232
Au 8.996421957466758 7.793197221926327 11.963584365228952
Au 6.39734231600395 8.767491817487889 11.480145756782875
Au 10.576462469050929 10.640890714188233 8.497364401785918
Au 10.885045980760916 8.22904300291446 10.028278132359732
Au 4.175376477339847 9.794527811011813 10.041068734633546
Au 5.27071899932017 11.401809358857573 7.953511256194081
Au 6.878473125052347 11.812044785347181 5.671939844449034
Au 7.428065991770939 9.364109662792837 6.906395804029627
Au 9.612710232421918 11.826246456892482 6.187746862842143
Au 6.980003978117084 6.009608682633768 11.410384847731162
Au 12.536529766169618 8.758119057016954 7.938523278084867
Au 8.018905839077842 7.970100178794175 9.23144816019499
Au 3.20152973013899 9.626884781077312 7.374423365470116
Au 2.227233509250712 7.988243179369199 9.363004444029881
Au 9.572489637565738 5.701776420314314 10.134495840703643
Au 4.359622860043299 6.952403328620141 10.86911063314198
Au 11.324184042522294 9.82075635243862 5.519950936264429
Au 9.882842458236999 8.1060679518288 7.187262658467489
Au 4.191490976959323 11.205685919235577 5.385210881938493
Au 11.522531432631549 6.001989006060825 8.190597948809252
Au 8.69521290541808 10.049551783678977 4.321349436842005
Au 5.344732822012241 7.879568928430383 8.358666165182317
Au 5.40215482033677 7.943289272060127 5.616616789630695
Au 5.978105266041522 9.966979010666284 3.699906502041755
Au 3.0055615603446952 8.813937657833272 4.619010694816882
Au 5.0849377169613765 4.3248119016226685 10.383670841347664
Au 2.885877723908533 5.359289378925615 9.014199419158851
Au 2.293806327294481 7.055505789653512 6.747505859143767
Au 7.1521051336443024 5.4108712681749 8.685499687013277
Au 7.901396325143299 6.580541946136748 6.196238631636944
Au 4.90399274231557 5.491169483962904 6.935418022272902
Au 12.41601188316683 7.2087242492658 5.6991154405452304
Au 10.121192772313801 7.664032957780526 4.188708024898961
Au 10.565627059311135 5.199002321697163 5.645898965259326
Au 4.083277601189874 2.976383019615679 8.18905546551814
Au 9.648834487593486 3.9297890327067244 7.959481169694359
Au 6.872173576844831 2.671464608152307 9.103608082714777
Au 3.100915589533609 5.998308206832979 4.306931362970366
Au 7.6261237719375625 7.855044093143093 3.026000580954147
Au 4.812369686536465 7.574375761382898 2.788702773010515
Au 6.156161467036168 5.466218052731372 4.408132589084751
Au 2.410824890136864 4.295215453040695 6.385051018289956
Au 7.121525310292379 3.810750818272272 6.402093854342311
Au 8.931146962321106 5.358927732195575 3.3381957315871653
Au 8.553243153567411 1.529733984310738 7.122535717086329
Au 5.750043096699033 1.1176614141938366 7.127280847518614
Au 9.28820875683721 2.963079686704308 4.779596801134924
Au 6.595475670965849 5.7034527211165065 1.6479757625847757
Au 4.442719369056801 4.124005608187948 2.772247508328237
Au 4.512896316212599 2.8667541036295 5.254368138263856
Au 7.1907318409538465 3.276470710286406 2.7876197197600026
Au 6.941283133450829 1.439774593996498 4.711951709633441
