52
Energy = -139.88051363 eV
Au 7.023512533264874 6.741271304696548 11.359401088881215
Au 6.8610697684589175 8.997137537832309 12.93257277019642
Au 9.622951101163508 3.9910772757040744 8.522626866658635
Au 9.164139936931054 8.590480321086117 11.544525751304926
Au 7.845260726206865 1.836672475551571 8.77747518245913
Au 7.221803713487859 4.176882776533511 10.0935029155689
Au 9.352916278435297 6.3010373835689615 9.91681072504429
Au 4.754914317467932 5.584089169303518 10.378132274454371
Au 4.596623667286571 8.16564088760775 11.600130550115955
Au 4.642091120074078 3.1342020535916633 9.207219837976762
Au 10.1153284245433 1.8097052835512135 7.015798975048252
Au 7.539046385026981 8.871754069903323 9.277733384960428
Au 7.80183347605193 0.4860090525562295 6.33340536621052
Au 5.925795264552002 10.546040236911702 10.873094884775108
Au 5.3757426720944155 1.122775673568916 7.5307663569451595
Au 10.414276528826331 8.764996442257493 9.136928419036742
Au 8.363377856831965 5.1953402986944255 5.990410891553007
Au 6.467360844777402 3.7145724242947162 7.169057420660034
Au 2.589003429224604 7.227854468915408 10.049217732797233
Au 2.9540780914435545 5.163500302920613 8.234892200337343
Au 10.76522375167119 6.33792923539638 7.515611694098595
Au 10.858459173158797 4.156959655440814 5.72745707589045
Au 6.849780503680767 6.259622986495932 8.360886630459563
Au 3.9633401549024425 9.591672708047183 9.207477788202299
Au 3.7975877640377624 3.2596164864773907 6.391597599605351
Au 8.805126283574138 2.5177933510429846 4.691277880685693
Au 5.762725113263696 5.973327470878159 5.699802939155551
Au 10.360441425791366 6.863950062184271 4.738604669723261
Au 2.9886303500294042 5.804432477257525 5.528962781329461
Au 8.914652147224393 10.60738325235531 7.358013755844872
Au 5.918325024404139 1.91778263437276 4.919586951367402
Au 5.588407948706082 8.431724517604877 7.202239444934442
Au 8.285029707330589 7.921506081490071 6.625288233896865
Au 6.240979774789467 11.189937328334029 8.24734765243461
Au 9.10338297101852 4.900456899885828 3.245582216623683
Au 11.028309991877666 8.911434925162538 6.522476372551102
Au 2.7780761180965956 7.854987931519524 7.405898727417635
Au 7.033940795629331 3.0261715730524883 2.6953471331057854
Au 4.699990842831709 4.134596113616616 3.853293479261456
Au 6.866250285055165 11.088619405182406 5.601372340398468
Au 6.381549901180316 8.391289022854012 4.517893911650578
Au 9.248510058008538 9.611556186750134 4.581277363603591
Au 4.016966583311029 10.592650458161993 6.5870131521390825
Au 6.601262342347399 5.660489599546699 2.263029765758683
Au 4.206612939898828 6.736068559735335 3.194432871459575
Au 3.0816449296896056 8.627467904434168 4.8505238387093055
Au 8.518100237009127 7.6047664748717745 2.776231870041468
Au 4.671951361252448 10.86183859079956 3.9588935723312084
Au 7.385389182018933 10.458377222343792 2.849979843493236
Au 6.032279173839736 8.245932155796234 1.5910490927501102
Au 3.3680819226439747 9.163323781499221 2.191931353746951
Au 5.287750909811502 10.912546505214511 1.224986145898909
