52
Energy = -139.29482278 eV
Au 4.122788639292554 5.665537440526452 10.872285344997543
Au 6.990333392750489 5.7263615371535765 11.230916184311361
Au 5.541134409355169 8.091692105094525 11.342157469747912
Au 1.679705281119227 6.159298745431463 9.741404011196186
Au 8.468203930436962 3.533550745400535 10.613574128827748
Au 5.694959929779845 3.6434214126620024 9.651050065841051
Au 3.2457562590801623 8.513433459876937 9.951201374306011
Au 3.0954495023635205 4.09270366389508 8.607366325387453
Au 7.97228385947098 8.507815319486454 10.079585384532697
Au 9.5178781153895 6.100193089049528 9.97237953283223
Au 5.799102312768938 6.7135624793139765 8.871966076790272
Au 0.9658042951499961 8.339012371283886 8.259740645415834
Au 1.0420144687456436 5.676617441963278 7.036521287324735
Au 8.055053083111245 1.922160746817747 8.333680937278286
Au 5.612043049571837 9.794255133003526 9.050834756078151
Au 7.747249635806512 4.646205445940506 8.058595029260081
Au 10.378148516781781 3.633781477635996 8.552202618969865
Au 6.830663528035494 2.5329243893428988 5.934628019046329
Au 3.444014732000486 6.981708204631922 7.501463446442426
Au 5.26197826231464 4.662002312948291 6.962978247187039
Au 3.1137562765189757 9.942060298317871 7.52031104118475
Au 2.860993297583006 4.000980829944329 5.782133610573536
Au 10.432037113755294 8.489450755125306 8.732043460305698
Au 8.138139054975742 7.330366315615479 7.60330358582045
Au 1.570177120131131 8.333913922012927 5.622959480602629
Au 9.56856379514564 2.4584223805963563 6.032989522583744
Au 11.683355419186483 6.053228242629667 8.245155271909661
Au 11.991408730544627 4.137082104938106 6.303620114560753
Au 9.51245617927028 5.2880055120665865 6.023432532695271
Au 1.5864453523594753 5.8922787574966655 4.268221401486631
Au 7.945702002176861 3.7597320297120937 3.7720253594764666
Au 5.636709839128555 8.437675827454697 6.506939745396299
Au 5.171980603294389 3.888986826432866 4.199414955852745
Au 4.2831196816701045 6.6085039560330685 4.927223584684215
Au 10.682452608126924 3.7028311469169872 3.8227356573869224
Au 12.014059882106288 8.00695078991738 6.367664513381571
Au 2.4469818529887286 8.19991501628509 3.0027295222518497
Au 7.840356487257482 10.1242805603714 7.193115689032688
Au 7.0192810447888725 6.261919200276284 5.2819508844153535
Au 9.345943891093183 7.9471805711704695 5.292420897668469
Au 3.7222870146028613 9.894817015245001 4.760113424898838
Au 11.79068451309833 6.158505694140079 4.348838680295821
Au 5.346617126722315 11.267659664401231 6.632780432604396
Au 10.535758526616895 10.29180314632452 6.641272429531057
Au 9.373829935016158 6.031232984070052 2.908282072924026
Au 3.7885401776827488 5.680355975252157 2.4403745698821258
Au 6.412548570017455 10.25753746983223 4.310957925294341
Au 5.150135554323819 8.30145498558932 2.710362025861745
Au 11.065017084736645 8.615897064763127 3.4115769112641283
Au 6.577012944331055 5.88484468226583 2.505403699461146
Au 9.113320676150618 10.500765568495515 4.311305122592367
Au 7.887925124482526 8.361621701347717 2.911999616879065
