53
Energy = -143.15364329 eV
Au 11.105640622921925 5.1955896512223605 6.3969580928083065
Au 8.31556368005097 6.465566241423023 5.722324264290391
Au 9.191630972454794 6.675557228255544 11.049388028094034
Au 1.437999139345092 6.740151912518334 5.394287406552997
Au 9.808271757033904 8.970858240985475 9.64923625872266
Au 10.564935166503954 5.272847863615773 9.061899652720657
Au 6.2982702619137125 8.451117756410497 6.978956333368156
Au 8.369563601687053 4.0916555943802555 10.089971317887349
Au 5.209403564080776 10.350811672183193 9.530689174520885
Au 11.234813193322067 7.792988646429809 5.348454865888105
Au 3.868490844307631 5.149947904443961 10.6712104536464
Au 4.503781881882074 3.3939504796016267 8.607132899345032
Au 3.6478313022376456 7.856768800262271 6.673231372205982
Au 6.282984632554458 8.230238945364288 3.273987765311517
Au 10.340506629506597 10.377119343316844 4.885151546191605
Au 3.1162385175267593 4.851770003696524 4.246111849587778
Au 7.227617656774813 4.371317820282267 4.3022792684040185
Au 3.531762065305705 7.695275915265983 3.6124384352999503
Au 7.9880343363618005 6.760849276088283 8.547283354671197
Au 9.068288608497845 8.292952428623952 3.5873249350239296
Au 5.111925893447528 5.820373227347069 2.429570168268975
Au 5.466154776681639 6.18294509758991 5.398922677512091
Au 4.520751676097345 7.919211968112748 10.786267059820563
Au 2.3592107063396055 6.815374231288533 9.14804169880239
Au 9.84870910886801 3.1768509633853736 4.920215515132264
Au 8.981670743560363 8.833920058039137 6.922293113962899
Au 11.62724900347846 7.531644260071111 8.034792783943738
Au 7.876954621702874 10.89672585764997 9.183996519777157
Au 2.936463792275499 5.0030072136116654 7.0284792948309835
Au 8.816240675009801 11.748201671903997 6.774894892853647
Au 2.592625741547197 9.547867305745326 9.722348440034937
Au 7.48973771443425 10.264057912574733 4.802353701090639
Au 11.185224031426126 10.290251125626385 7.627021684586122
Au 7.191929347934227 8.6929096822826 10.684022931246876
Au 2.046928608766309 9.567643630046767 5.026635583806162
Au 7.927851036144735 6.242686060189616 2.208638847754941
Au 6.500702460081626 6.012770770398771 11.105512011540005
Au 6.096201780717355 11.346503230954786 7.026542330267408
Au 9.503067528277068 3.165254303445743 7.636330075189306
Au 4.774212486887638 3.036609447318383 5.934376292322348
Au 10.362536190953302 5.779383284234658 3.7405554702219477
Au 4.775716478934974 9.94068662601974 4.9055310380462425
Au 3.453412648470498 10.648126261996808 7.3292589196445155
Au 5.155286716462098 6.29268252906 8.41228270214153
Au 6.935629239255089 4.478626057727488 7.14179228764983
Au 9.342125434258653 3.7657575744277065 2.2609431561598394
Au 5.911182787386304 3.267765875818631 10.992800137246222
Au 4.892979392986768 3.0090222000502314 3.2546014821217204
Au 7.5512419454449935 1.8408615618208424 3.2771079304000073
Au 7.008953016654173 2.1350301176552473 8.648529726109222
Au 7.52403717323612 1.9128454036174651 5.986142189662731
Au 6.725203016750463 3.8598988861675587 1.3658833651367628
Au 1.1526096337254867 8.723633491367895 7.518436941704023
