53
Energy = -143.51003707 eV
Au 10.781500963573128 9.471095886721683 11.492346300370956
Au 9.965781657638805 6.920676795104762 10.917516882617443
Au 8.072542024082423 8.848939548137528 11.835560202937538
Au 7.650360730450311 6.142730275441265 12.265131665204287
Au 5.589093114333639 7.728501986482244 11.398621392301155
Au 5.860025991370885 5.038207210064118 10.529006653768759
Au 11.135280826933807 8.574655985561813 8.881811743571232
Au 10.692678973225382 5.8113005158230235 8.458894904972983
Au 9.047396272222173 10.295578547897144 9.57383307330722
Au 6.357266072885608 10.346958171127916 10.31187091105196
Au 8.180726792205602 7.334367698844082 8.773445398770805
Au 8.644980062012806 4.660738042236454 10.137186821534375
Au 3.8624330795149744 6.646371109723913 9.468034720916032
Au 6.860188383703227 2.9234883801401774 9.049910288252741
Au 9.561987915251244 3.2679413949957623 7.955016405174769
Au 11.086483479481766 4.817888470209737 5.91174534296108
Au 7.868426386006307 1.3122281118107986 7.0513765224582015
Au 3.7670841132994366 9.328047082314807 10.165731209440331
Au 4.23842400688531 3.938657638793227 8.532930205269851
Au 5.922611613463689 5.863197242477119 7.560188518899216
Au 4.570054911392455 11.18638551441637 8.282822789579594
Au 11.256073302225998 7.617580787652922 6.359650873337685
Au 7.335332634246803 11.250939748930906 7.75633871879254
Au 9.60722071465584 9.842246647898758 6.895680222729211
Au 8.477853841792243 5.416148465339939 6.642525072316788
Au 5.821099602074067 8.596478635844017 8.168506262071142
Au 9.247536443035326 2.774565137394748 5.179431032031
Au 3.061716601465366 11.145269773257922 5.974700935441736
Au 5.1631191292198055 1.6790964795203176 7.280005951727764
Au 7.5459033966893125 7.948439255659029 6.044220068310697
Au 4.85300567465706 7.54773850719249 5.533899165173254
Au 11.400985923026317 6.752270223626606 3.7947256200457518
Au 5.609877682140937 12.22734762415641 5.893137251211778
Au 10.56102013200257 4.224576630525234 3.2500289367381883
Au 6.506936922772517 2.2680107833915946 4.877592183662385
Au 9.610497719750137 8.73644678711772 4.303088826628679
Au 3.029630854540708 8.793772295851282 7.522383195092288
Au 6.403270241830144 5.273585864541066 4.8500119512562065
Au 2.940407993435611 6.001400987154919 6.957452684877848
Au 7.637712120292959 10.579973644688884 5.034941497850462
Au 4.0906598494394695 3.6237615118895325 5.660219104054249
Au 4.993706071043982 10.13404485550238 4.1826881998918575
Au 7.8965042107075885 3.7890746086614326 2.928056735695051
Au 8.875729500119975 6.452697352881246 2.7671771521541677
Au 2.475790017928562 6.187337344627407 4.138385480502269
Au 6.984009113006807 8.435055569060738 3.2503912079539066
Au 2.4548953550210575 8.799729587351969 4.780838476083098
Au 5.177731505383933 3.522483589301206 2.8644023030661665
Au 6.295482910756005 5.990833986503041 2.038202821609574
Au 1.3497137861094577 4.1871006295041076 5.679289029624089
Au 2.520074911348402 3.5118627980375465 3.3155146663734656
Au 4.284262801891436 7.864470246634079 2.7549486180430853
Au 3.6053084411775655 5.471205868654368 1.6550880130156123
