50
Energy = -135.03865487 eV
Au 11.971620278206696 5.986780422537209 7.429860845814286
Au 10.948925768383257 5.969111153202427 4.809192256816401
Au 10.661477943148627 8.207671247497622 6.488374040841254
Au 8.820414027196893 1.8431515011342736 5.980504768486183
Au 9.167059326087767 9.851334145184836 8.189953187500272
Au 10.742929899039085 3.7627603962919514 6.508118349775918
Au 10.214845964437497 4.804302279343953 9.243109333622371
Au 9.37406351643691 3.8418275323485247 4.089592163113378
Au 9.62211813391471 2.2341332546888344 8.583391363043747
Au 8.56937056925636 9.049368482073275 10.788072727374663
Au 10.257181568342272 7.50385800557538 9.125827500612473
Au 10.426897811175165 8.494832383446063 3.7770173949043904
Au 8.453895007839552 6.3016134407611775 10.81362416862307
Au 8.002614550916821 7.348682425696127 7.426447931248409
Au 8.70728330235834 6.416207933343711 3.2239246295934847
Au 9.120639550917849 10.258603160831683 5.443471802367889
Au 7.562544339832248 1.8162623002469833 3.5562860066390316
Au 5.943420541979684 5.366782743629092 11.43259434596142
Au 6.2890643210480786 0.7493533324750346 5.8010747855693126
Au 7.787032577811351 3.7276140195603307 10.131108255335226
Au 6.658993730470353 10.343131681121866 9.309843023674691
Au 8.07923356253921 4.565227290920009 7.140138495987992
Au 6.913465731139513 2.027269830923573 8.136135236322774
Au 6.783799473564339 4.385091914166069 3.0421568805808064
Au 6.0421926997961535 8.000526399389397 10.664990320918916
Au 4.062622998452203 4.935030895690026 3.1145004598426236
Au 4.975975629281762 2.556734723183215 4.186058541277927
Au 7.744949224917127 11.955342380961207 7.213687299021981
Au 5.092841585773667 3.672505715698889 9.416827330917142
Au 4.4551705039934175 2.4629427730220135 6.95986449963887
Au 5.616591583627482 5.707208339931503 7.609764069083053
Au 5.927772664595366 7.051920818094408 2.720826530799247
Au 6.766521889986452 6.227714941630795 5.184619107671863
Au 6.7053166131890265 11.267347730034382 4.723025046298347
Au 5.435962107118727 8.31065175954062 6.4891816822877875
Au 7.710088255164452 9.048110586198451 3.405505367030894
Au 3.9472680161242204 6.436970324217793 9.804301727014478
Au 4.17113023360628 9.104526998994393 8.904554718380275
Au 3.20464236153883 7.513134670403765 2.9786934177090134
Au 5.152784615341292 11.117434998459467 7.18764812356784
Au 2.674069375920782 3.6054424540960053 5.211210139608223
Au 2.983495103556424 4.626901360929483 7.868041036293058
Au 5.029452352061715 9.638738566663285 3.2342985535836877
Au 4.043589435581412 11.777749924788894 4.751538463150078
Au 3.72214137329626 6.314956114734658 5.502156755645353
Au 2.331692279268705 7.37102768589183 7.77563919714818
Au 2.9228979992852993 9.746132160855778 6.428759432850716
Au 0.9321776800982855 5.457872538468271 6.1908671270844415
Au 2.2887866624083255 9.97156614711387 3.6837153670040896
Au 1.2925341655056832 7.919249442207038 5.160350141924653
