51
Energy = -137.28587067 eV
Au 3.4904773329891343 9.681211161363722 10.09676634719225
Au 6.2517192751959065 8.890978899884395 10.166969903251807
Au 5.3779842332241525 11.268254989158187 8.841935380302056
Au 4.090754322500306 7.045437496303704 10.41421884323244
Au 2.2290813433865018 7.713979592750782 8.409354008935077
Au 8.912701136742893 7.827007151478793 9.854399702105328
Au 8.02827763128209 10.206255758787371 8.47747431041936
Au 6.7199085418947195 6.1913143074525605 10.71377132401188
Au 6.771756427562264 12.056294857006744 6.71224468072558
Au 4.296954580510079 10.972109949995438 5.870446979957826
Au 4.667939253111674 8.885509540383934 7.68989487636144
Au 4.568506793655658 4.377711908673239 10.91821701271283
Au 2.819433750614125 5.037799324277206 8.90471229138464
Au 2.723630417160738 8.59132948216648 5.731097925882519
Au 9.183303809303077 10.764318626784128 6.014391941503118
Au 7.0663151122559436 7.458247762754952 7.837242115636219
Au 10.007341950418478 8.551775573632641 7.321906427053433
Au 6.495049605046308 9.011392088494427 5.494308077819541
Au 9.160022217557 5.037200258908084 10.307024730163114
Au 4.550025879603567 2.5086218229825223 8.836876286982797
Au 5.679426704308928 5.04305283785111 8.273151328173478
Au 8.266704706407499 12.956401157744297 4.617746668806868
Au 2.243303314212808 5.872414791890468 6.323628077034647
Au 6.9645412418305055 3.2859939072953135 10.148986431368591
Au 6.180527368445516 11.312100301591403 3.8830949347405688
Au 8.777056140961987 10.642307094351413 3.1989480630343747
Au 2.517006434489902 3.1060138096498076 7.01255716869385
Au 3.491797557021041 4.075780544206486 4.653086701705158
Au 9.359787121751646 2.5551001986918056 9.118433595034928
Au 10.834586428395689 6.27754156971349 8.572539269729742
Au 6.204654444866513 4.1243613134595005 5.670920602613314
Au 3.3434247163070947 6.704027006417865 3.7543154738807565
Au 7.028015246345529 1.6569565927102143 7.827339799859126
Au 8.316027335861733 4.716265994047754 7.478065943636672
Au 4.958236273632129 6.61044961791002 6.035484462102558
Au 4.357536165240768 9.32414416639273 3.56197704944182
Au 7.6469233752451276 6.495779862458099 5.338263642075269
Au 10.498252961782704 6.163523247694826 5.813801239790858
Au 7.356486767055083 8.334769961861289 2.8117247470285656
Au 4.773097864307731 1.7261845327786605 6.181026481117291
Au 9.64608935479738 8.436107189696932 4.536754125632628
Au 5.201787243725402 2.2891201774982086 3.4783090052457215
Au 4.903670879692612 4.8098016185585 2.375881782871051
Au 11.003860563690672 3.8452484562203533 7.280345721910819
Au 9.570398636264981 1.4904705671734784 6.594159575587197
Au 4.974542272558891 7.490770300495296 1.671474685208769
Au 7.402859949014556 1.6517074273518084 5.012467029941471
Au 7.507437643987145 3.741127542093995 3.013594591939157
Au 7.21938611209491 5.942633742955288 1.3866187797101186
Au 9.474418638394273 3.6906551305911 4.89672604475747
Au 9.238641003702124 5.977433103707153 3.21940936213288
