54
Energy = -145.49329635 eV
Au 1.6362330310613102 9.491885335485778 9.592299982196263
Au 1.559613666260666 7.657561799564281 7.582874124496143
Au 2.3481362383144937 5.071034714771604 7.89779119558118
Au 3.145584684919581 7.234283406607223 9.980562020914714
Au 2.0364306439237194 3.3972104490622175 5.790151058543099
Au 2.817271635283972 10.207376669221789 7.0902596755509615
Au 4.156471316532196 10.384680462826298 9.53493557309568
Au 4.258102168016401 4.692757959734974 9.809097394627381
Au 1.8106142147234838 6.070711597893611 5.2944198482327245
Au 1.739373192121723 8.77478134456247 5.02575245463638
Au 7.443039066786577 2.144282712688854 7.038368219820546
Au 4.145948525494121 2.013834224859571 4.906530448723128
Au 4.376310133249839 6.951626375300094 7.4627607246677785
Au 5.35330236089972 6.506770395192101 11.572430408972847
Au 6.203396550966044 2.7712102659047533 9.410124365452333
Au 5.907418789346897 8.170204971574943 9.487489591226158
Au 3.763469164797218 4.607642436650582 3.944053590445084
Au 4.401106881319645 3.1380746500375625 7.403816227105323
Au 7.3929859428043265 4.722413551223069 11.000377715379612
Au 3.5365896411837503 7.343434908404429 3.5264505399651216
Au 6.5319718308419255 5.429060021873872 8.371970856124873
Au 5.552337764579655 9.524621776361325 7.076916381184574
Au 6.314716950955697 11.782505722005562 8.805923659161811
Au 6.357712819533968 4.677264639277111 5.705669981623543
Au 6.476804669922543 0.7378328762745938 4.935650252064512
Au 4.172346639570988 9.98731135779464 4.63822014911745
Au 5.811267843691622 7.426614854485169 5.162500764212829
Au 6.56223385880671 11.937158374725604 6.097712391283408
Au 6.086860256177782 3.1656350447566113 3.331145918786397
Au 5.883866691137161 5.880047550921859 2.7427684446320533
Au 7.996559757307914 7.4386917573439 11.266054814056998
Au 8.902425948399344 3.1691072681150207 9.19182176973036
Au 8.54158181155436 2.4108435651641527 4.373143851852663
Au 8.573588538100509 10.511261071370571 4.853652591212668
Au 7.7234928612266955 7.6317457387051535 7.120063050653799
Au 5.7959180198437865 8.70513769579905 2.6493770242900063
Au 8.434675529965855 10.459914200775122 7.615224697385859
Au 8.48822359265653 6.388542880787741 4.631898882412791
Au 6.275516887419212 11.31106037987554 3.486225006133256
Au 10.16344791732262 2.62130684191684 6.5999220183127525
Au 7.751306230832866 10.00628033339117 10.319860061396012
Au 9.802892781130248 5.739094464645995 10.037732310160727
Au 8.914444167831368 5.061883787352563 7.016361329862833
Au 8.366403189953473 4.545573909993565 2.522819229303465
Au 9.621753470717088 8.348806368353355 9.101685310336755
Au 11.481625491882538 3.9806147231112345 8.760487277478981
Au 10.220428534488642 8.765795817544308 6.3206356209570345
Au 8.13833605811195 7.217712582534256 1.8981983235527111
Au 10.523401122014876 4.201606867239077 4.145679177691169
Au 10.018969315649354 8.557090833825406 3.5522568162582178
Au 11.254283810796952 6.59082088381016 7.749240206974296
Au 8.189867525806719 9.951084192886599 2.0747153422516793
Au 11.397979033458244 6.702936281166305 4.924560485736443
Au 12.293295064360041 4.4549267073011825 6.2148970265649375
