5
Energy = -8.55243808 eV
Au 6.458071103167855 6.765064720066998 6.1371679607232
Au 4.307079358101779 6.582702898583482 7.864555357525798
Au 8.05408707982869 4.413259554020607 7.155696892091062
Au 4.787877128423854 8.898443427706788 6.346733773480848
Au 8.65246387138358 5.786535753967277 4.896027083578718
