54
Energy = -145.29368974 eV
Au 7.444863691147133 5.347384969807057 11.225758132283719
Au 4.845558503991689 6.1944626212867195 11.024728964810892
Au 10.669465877762617 2.0547683049716983 9.944824485750758
Au 8.024444979727596 2.7628794200540128 10.209095738754765
Au 10.071249049434602 4.56241432305343 10.959417462112329
Au 5.396717625818462 3.494781469345175 10.37250638211746
Au 9.502605982711675 7.214132993854145 10.88955890810272
Au 6.791280260443446 8.0250482709541 10.799510627372712
Au 11.36969868796113 8.860635389256577 9.782490866020652
Au 9.315951475775227 2.642862636390329 7.608972743936912
Au 2.799982282765551 4.578145620007871 10.25499516332796
Au 9.04239699273309 5.7293621057443955 8.487341064108751
Au 11.51054514883733 4.261829685396706 8.568240429197898
Au 6.443685678987887 2.3086527221330364 8.030650856586384
Au 11.565874732355896 6.88868867933852 7.850593687483107
Au 3.873568713058304 3.2694379708279797 8.070260611048244
Au 8.708333496578174 9.630606583172213 9.728426803572944
Au 6.213164350553821 5.670303308076182 8.59325954305813
Au 6.050766846044892 10.205959036896049 9.356560602588514
Au 7.622432887286796 1.7899167253289434 5.573547731413488
Au 7.517918728465849 4.496417983583044 6.476954946706599
Au 5.1568000347919885 3.1585396347939616 5.593592397154037
Au 7.655226830175858 7.880219947740194 7.327667602282206
Au 10.560933568179934 4.852714994508145 6.077944136208994
Au 10.221450751859042 9.278738318261807 7.3738249909041045
Au 1.9742943413722274 5.384624309858036 7.742235088853131
Au 2.810091777498143 7.306528707928291 9.549560205224532
Au 2.3284607704597913 3.4284515566666935 5.836695186021457
Au 3.3476893187681678 9.933232490364977 8.818895379524049
Au 8.88962048720403 3.6990161327224325 4.13112431973922
Au 10.829201276963596 7.559986879902983 5.256775917630892
Au 4.902282716520552 7.969485169531732 7.6977239811991405
Au 5.275730259030782 6.001522763694663 5.79504723190911
Au 10.800004777094342 5.532378692274495 3.4076375612234733
Au 8.036925656594168 6.658356523192606 4.809216883328572
Au 2.027938282203815 8.084702318377673 7.021398401894397
Au 7.820669089709531 10.779796270852236 7.298708296667609
Au 6.2993879590027095 4.697537388439481 3.412807593839273
Au 8.892582998020853 9.541252107576065 4.997967307900878
Au 2.400574222632768 6.110734097838143 5.121704159901484
Au 5.081305275275259 11.328285945041557 7.04814009583431
Au 5.967562771746266 8.65870776056662 5.138251158990242
Au 3.5504638872131653 4.134648926405606 3.475573241391984
Au 8.53372572409842 5.3008493692516625 1.8463517108327578
Au 2.392437425752853 10.725267354509317 6.373038721954645
Au 9.49596610504418 7.900287305663163 2.7310932796564633
Au 2.914363374831156 8.757513376755057 4.46779542542541
Au 4.252981213542327 6.729043491717834 3.1001017090155165
Au 6.737359876405638 7.300601844986074 2.1491966759040606
Au 6.842687230777502 11.438876190443935 4.861183625371415
Au 4.100756493456396 11.346093676779166 4.4073977831549085
Au 4.887808744396916 9.31665576505813 2.5485607836083397
Au 7.68248654180931 9.924666142798037 2.5172929036222182
Au 5.78562389895315 11.905326003330961 2.336451806567748
