51
Energy = -137.49848905 eV
Au 10.768018526580079 6.395004372070169 5.223229167213277
Au 10.220742705117035 9.160970708198569 5.413594179489235
Au 7.665850945570874 10.056170121596722 4.773115214338833
Au 8.694326229292189 7.537588303131307 3.7838621662592553
Au 5.966083010073649 11.325232774986173 3.061167249875324
Au 6.506620879472988 8.665667479272129 2.6203903894034255
Au 11.374434302697415 10.477728903684664 7.5717720942129905
Au 6.654945386467313 5.92825168182423 2.791124520044095
Au 12.438948496117552 8.049697949387559 6.662276872483639
Au 8.731554538629188 4.796589261231126 4.296031893246414
Au 12.432871002334513 8.674427884610804 9.39210007511875
Au 6.211936583624365 3.454036587751311 4.0497051300942255
Au 8.449761468843452 2.170473130975259 5.0881238438731975
Au 3.9067218758933726 9.68555943406324 2.2431408366554346
Au 8.64918198757749 10.640144420092717 7.339784735646623
Au 12.199531446461984 5.404588937506789 7.3788910364542755
Au 8.547535507386446 5.460852140917842 7.204773787456166
Au 10.46086059174809 3.6180631829377226 6.251657937535956
Au 7.572803312863232 8.049107202318435 6.804252540969927
Au 4.388887419673126 7.044671239255318 1.688878480304128
Au 3.887473431070615 10.73235429904893 4.804235218680389
Au 10.038658483116794 7.587058627193393 8.153997619415781
Au 5.182823637970002 8.351363336361656 5.4138955940841065
Au 9.808882269763583 9.923157464212899 9.814713851651453
Au 11.980413541692066 6.022684647339065 10.017585348034412
Au 2.8267280849129652 7.775290341633294 3.880885758050772
Au 10.304376129831716 4.0728280712213865 9.06375861380162
Au 4.051388079448254 5.19242358211197 3.686001393211555
Au 6.023405091504816 1.7549142127155712 6.292124958088937
Au 10.951147139090205 8.079207583292568 11.61536058788491
Au 5.113344053688187 6.971657132657586 7.849794379842197
Au 7.62346872555573 6.844649488536744 9.37239278104891
Au 7.073980553127714 9.957659705503007 9.524354572312857
Au 5.883424270780346 10.639022520953398 7.022345736971373
Au 3.112316075598041 11.250777171150924 7.316633125547769
Au 6.228656166610523 5.789502805772943 5.63873717048008
Au 9.639468723894263 5.619125479894138 11.350223398347095
Au 2.5001969653954523 8.6986835882043 6.44486065134245
Au 8.234734160431142 2.689007322667606 7.829278723032073
Au 2.6480260514681713 6.022302372751538 5.97511407599899
Au 4.107382542327919 3.704863974023485 6.03896964580978
Au 7.65938517069905 4.041566387297774 10.173978621501515
Au 5.605688207683158 3.4429908808215304 8.40963997093523
Au 5.55100079013077 8.083823546312322 11.062239473076106
Au 8.276446814149628 8.439128650148021 11.615465050891219
Au 4.391796788294806 9.737384094887515 9.228884793400727
Au 5.148718756048768 5.389490025904293 10.314171817141252
Au 1.6963019046541066 9.455356286497937 8.94976727744267
Au 3.1052925030061695 7.275102381786573 9.780981105742873
Au 3.220162547077384 4.915388222237969 8.373534046875374
Au 7.0720641327627805 5.978855431001923 12.157048275056193
