54
Energy = -146.76915784 eV
Au 11.770865987647758 10.089763525375036 5.72634178770127
Au 9.826268974654926 9.478149860446377 3.515294854968152
Au 7.287520552216491 10.60235917777887 3.978276375202057
Au 8.997040004966948 11.620698631739598 8.19358427079974
Au 5.009719448423511 8.991630631931073 4.0501535257167856
Au 9.458577830188569 11.452735493686136 5.480795490088226
Au 6.904166375780811 11.939446386131882 6.369237827091149
Au 10.962843626063066 9.77793334098499 8.333746567603963
Au 11.89750552244259 7.752310375448323 4.300798396796795
Au 12.147913395995941 7.575508713800789 7.124367903432929
Au 7.471550430719779 8.240711152006817 2.651582181460296
Au 6.476058807901106 10.721475302002778 8.815858980624348
Au 9.567031151289585 8.316257402234973 6.103943145957327
Au 2.6675130832337817 8.673073164875357 5.648107686801528
Au 4.80860666195076 6.824891278834466 5.97298534135005
Au 3.0851374193460437 6.756436045371799 3.7479658212907836
Au 9.607839768617845 6.601267847712033 3.407799842566591
Au 4.564348688532638 10.519909944340828 6.545311301665015
Au 5.114596238535806 7.1178158196619155 1.9423344084264522
Au 8.751642701156097 9.529707423599087 10.01319460973696
Au 6.878210865993315 9.008433645376655 6.321958091639223
Au 1.9559213093448515 10.559366348731201 7.509033685067954
Au 8.11024905204837 7.285235870377599 8.20590644853237
Au 11.13646087503159 5.4227449147620925 5.538115269350529
Au 3.8957617434579315 9.933957990132575 9.36436923090804
Au 7.190029246594511 5.437081167080104 2.73289165611868
Au 7.678415376105596 6.386993836793087 5.571116645562498
Au 11.591350578187901 5.168839954424341 8.251002881842405
Au 10.5626720211016 7.354110446062291 9.588929721980136
Au 4.54902660106928 4.52850203304966 2.7437516598201572
Au 9.014510810638837 4.06287648666848 4.396148651089353
Au 9.794342978619287 3.5096160248555353 7.068557220427368
Au 8.165763289059603 6.99049113178541 11.015823222144368
Au 6.1107749766388695 8.974805128705238 10.916972817832004
Au 5.371907342477254 7.782692158200573 8.480235222839939
Au 5.835903397658579 4.3583047262735795 5.312801176557661
Au 2.1941726866798015 7.915741369493507 8.332511158487376
Au 2.267678793275165 4.203178910833336 4.31416289871281
Au 6.748889294100039 2.751358754829874 3.2760221429240626
Au 1.9988999346155671 5.994966635038182 6.3388142304219315
Au 6.143308520523275 5.216030167125057 7.873844156149859
Au 9.189943549062265 4.83643648984246 9.4882911908225
Au 5.776578698582185 6.630438329916777 12.30616041529844
Au 3.1341516329658137 3.450906428480525 6.856534142892688
Au 4.111389390654701 2.23898064365579 4.438364219491472
Au 2.82348306851037 5.317008933813785 8.893236626539519
Au 7.9755180266371575 1.953558293607752 5.866331496089107
Au 7.471986551083643 2.837539175626428 8.497963143875811
Au 3.6232818568180747 7.436687309296375 10.682373017020671
Au 4.006197715727439 4.774265241667547 11.29974850092388
Au 6.134455958286429 0.4039447225861812 4.623771494430134
Au 5.389677923768954 1.8006571661082391 6.9313990842075235
Au 6.677752162040979 4.587536055417668 10.57537239892041
Au 4.673589963124119 3.163972790491492 9.184107338842807
