50
Energy = -134.11747001 eV
Au 9.341719224459336 4.716438535485614 10.801183861170642
Au 9.787258681507643 2.861526707341676 8.884353234816905
Au 6.994796910078896 4.244907069118366 12.339153242670099
Au 8.210972906883738 6.691700541210833 12.308379098329185
Au 7.234927725596321 2.8516065779504807 10.02018713355092
Au 9.637387916565132 7.47257015546829 10.078252665821141
Au 9.464825946218797 3.9355211063053783 6.3356025597587475
Au 5.56583166411968 2.5449708209642163 5.66300175367375
Au 7.076777038851754 6.069826085795075 9.46677008149456
Au 8.800804658729774 9.809571118052094 8.778936775684448
Au 4.6196687430580115 5.6897061572949506 8.23656901294649
Au 10.694540088904445 5.330584809901053 1.2803115304364807
Au 5.500968573712713 6.6659496575235035 11.81766821456527
Au 10.672910120862038 5.477719706111031 8.4606805824477
Au 4.810202822847293 4.1731081238330905 10.677385037345696
Au 11.053930205160079 6.301601059667126 5.83181956709194
Au 7.281450064656841 8.817204400378039 10.88619590074787
Au 10.918024960455755 8.336878805152423 7.746035560996415
Au 11.192411706665713 7.262744995505519 3.1468490440094463
Au 11.209923422421868 9.029878821614618 5.112800333585687
Au 4.236380370081071 10.308505280646319 7.722526635315442
Au 3.081924596468523 6.355583190502486 10.497361106001234
Au 5.015791385209915 2.684912666277601 8.378596945889683
Au 7.629471569766116 2.005557133826684 7.420075627072575
Au 6.409534452054126 10.919492836552584 9.33316231251173
Au 5.2879205185153495 12.888919633653954 7.789294821287074
Au 1.8267776272241953 5.457106211182388 8.215874917580884
Au 4.820476421232564 11.658645098718454 5.3978003843559605
Au 8.56371528943827 6.862464072756659 7.187429853472899
Au 10.085836786217584 10.9296968240035 6.647940300826414
Au 3.2274659389947593 3.7644524568451687 6.589726808248828
Au 6.81567925544188 4.712944873479903 6.997319752647845
Au 4.765256704622406 8.561684427581893 9.875152561304244
Au 7.117104367497282 11.022872935214115 3.9225528857291314
Au 8.018280520092361 9.17535874171841 5.799226508533658
Au 6.004294484282886 8.008993143369812 7.354693263143628
Au 2.8645317617906243 7.972139939931947 7.958168636461071
Au 7.4493962266441835 11.712501231199507 6.657490448614224
Au 10.048397577157445 4.7241092651337135 3.8209819141137946
Au 9.23340537846902 9.321897642908912 3.181574007417621
Au 2.704292353044993 6.380817847124399 5.658301491062042
Au 6.858217159945788 6.874348955188022 4.916707061490128
Au 3.2083075883773087 9.184813526004975 5.454980765775922
Au 4.5262140592847055 4.757183532257417 4.343566931582664
Au 7.376551515190093 4.131399917009192 4.256023334132722
Au 4.512867383278909 10.147062760989453 3.222612604185846
Au 4.201405641962182 7.437809306924385 3.590703341700284
Au 8.590469338677027 6.71100987449629 2.3067102251863885
Au 6.616745945993278 8.597471054498461 2.5659396375257835
Au 6.079979238949286 5.805459157413774 2.3854356677623976
