54
Energy = -146.04018302 eV
Au 6.2618024456793915 6.2700858151052214 7.772395884867188
Au 6.250818797548077 6.2700858151052214 10.651258997617134
Au 3.795409865824774 6.2700858151052214 9.385532041901053
Au 3.8470691435517463 6.2700858151052214 6.2700858151052214
Au 1.512289301334095 6.2700858151052214 7.845789836057969
Au 10.278583989791997 6.2700858151052214 8.01218701157695
Au 12.595304225345334 6.2700858151052214 6.2700858151052214
Au 2.3668868580406848 10.797378401576047 6.2700858151052214
Au 6.2618024456793915 6.2700858151052214 4.767775745343254
Au 6.250818797548077 6.2700858151052214 1.8889126325933014
Au 5.495123810310087 3.909769834603964 9.401631497722962
Au 8.256058908070797 4.829792323500616 9.40770563632167
Au 8.256058908070797 7.710379306709821 9.40770563632167
Au 5.495123810310087 8.63040179560685 9.401631497722962
Au 3.795409865824774 6.2700858151052214 3.15463958830938
Au 5.495123810310087 8.63040179560685 3.138540132487481
Au 8.256058908070797 7.710379306709821 3.1324659938887742
Au 8.256058908070797 4.829792323500616 3.1324659938887742
Au 5.495123810310087 3.909769834603964 3.138540132487481
Au 5.521375819356949 3.959522448874946 6.2700858151052214
Au 8.22594231024773 4.857418270887198 6.2700858151052214
Au 8.22594231024773 7.682753359323244 6.2700858151052214
Au 5.521375819356949 8.580649181335497 6.2700858151052214
Au 4.812011394620973 1.734845238872389 7.853145357700339
Au 10.116199131199707 3.4991512501292665 7.856547663996706
Au 10.116199131199707 9.041020380081175 7.856547663996706
Au 4.812011394620973 10.805326391338056 7.853145357700339
Au 1.512289301334095 6.2700858151052214 4.694381794152465
Au 4.812011394620973 10.805326391338056 4.687026272510113
Au 10.116199131199707 9.041020380081175 4.683623966213734
Au 10.116199131199707 3.4991512501292665 4.683623966213734
Au 4.812011394620973 1.734845238872389 4.687026272510113
Au 7.514464578215487 10.060482935987588 7.991041812095707
Au 3.0327117625147464 8.63584826612361 7.973381229875952
Au 3.0327117625147464 3.9043233640868378 7.973381229875952
Au 7.514464578215487 2.479688694222859 7.991041812095707
Au 10.278583989791997 6.2700858151052214 4.527984618633481
Au 7.514464578215487 2.479688694222859 4.54912981811474
Au 3.0327117625147464 3.9043233640868378 4.5667904003344875
Au 3.0327117625147464 8.63584826612361 4.5667904003344875
Au 7.514464578215487 10.060482935987588 4.54912981811474
Au 4.130222713122296 12.924282130000002 6.2700858151052214
Au 11.927573097179133 2.193832784773938 6.2700858151052214
Au 11.927573097179133 10.3463388454365 6.2700858151052214
Au 4.130222713122296 12.924282130000002 6.2700858151052214
Au 0.7648072786831784 3.933824076185632 6.2700858151052214
Au 6.793387144007047 0.343562924719664 6.2700858151052214
Au 12.079318449720553 4.926673598939798 6.2700858151052214
Au 9.363769397616984 11.350893775386265 6.2700858151052214
Au 2.3668868580406848 1.7427932286344003 6.2700858151052214
Au 0.7648072786831784 8.60634755402481 6.2700858151052214
Au 6.793387144007047 12.196608705490789 6.2700858151052214
Au 12.079318449720553 7.613498031270821 6.2700858151052214
Au 9.363769397616984 1.189277854824172 6.2700858151052214
