53
Energy = -143.29008703 eV
Au 11.499117094755634 9.989321320123057 5.234403423360164
Au 11.46192706286581 9.124282982511131 7.935467220013685
Au 11.763328326689916 7.356264922691884 5.806670738274127
Au 10.237086981714093 11.491243964347294 7.136198740562994
Au 9.4575256824827 10.465132072131105 9.572337117353012
Au 10.098626963307309 8.236253714327788 3.6562632741080647
Au 11.643277588012957 6.450751826193327 8.563826681010335
Au 10.737329984055231 8.266417848671555 10.460183828359478
Au 11.767080276506267 4.695101671678562 6.412729857041761
Au 8.280448132044805 8.315600955956496 8.197060706925924
Au 8.765431864724725 10.2486573748561 5.153623926299431
Au 7.5570517597000455 11.01590287829428 7.513569394404562
Au 10.292331500563925 5.523732921744527 4.177539376301286
Au 6.7720869067585205 10.058444733227905 9.989900881678283
Au 8.482344997358988 6.470248883057364 2.2892909655500393
Au 10.359465793110592 3.9251954498295567 8.602027857313766
Au 10.158264444557028 5.668183213146071 10.913494295112075
Au 8.171119291319323 7.822396686899674 11.275496024542889
Au 9.279279537258894 6.2432606459300555 6.753965370912669
Au 5.646016691545762 7.230554693056454 8.272583492257814
Au 8.118367024940326 3.936287175852742 3.518753587018959
Au 9.377994045258415 3.4116302671727263 5.9385725225788555
Au 6.909088007225829 7.534457855463047 5.7220373117298085
Au 6.013555460611361 10.182045726745551 5.321269095144075
Au 7.434162737006579 8.89063580876648 3.2222787935082033
Au 4.9366606503260035 10.358012276130472 7.87134319584349
Au 7.97054905159328 5.6964634883506555 9.234141765412959
Au 4.161482302852907 6.652009762179313 5.982265324609119
Au 5.629758965851245 8.674970444045474 12.040412419378612
Au 6.084102487217439 7.566749218037224 1.311046925282366
Au 5.89367093730235 6.148736121802506 11.056370945731468
Au 6.333872526056242 4.833306085238683 1.5939872771145536
Au 6.78516002169354 2.526126291050213 5.514173140482568
Au 7.862002804170753 2.612990286432262 8.123411285815997
Au 4.640958420561588 8.779014196763299 3.3570858991080663
Au 5.709719352636468 5.13297595316097 4.328315928151681
Au 4.012655486118235 10.287235728719384 10.481838496083942
Au 8.815663599818077 3.279871103062141 10.736819675349096
Au 3.6597491476404804 7.583163124724482 10.227205322309096
Au 6.684272155966438 5.028072478424424 6.853885672579967
Au 3.3910750258965052 9.514192425091139 5.724479893941325
Au 6.194281593305931 3.598034206913314 10.134486937332348
Au 4.08910566772516 2.7001545548472827 5.165796764851577
Au 5.0109246401635605 2.8400481206547648 7.749118568336681
Au 2.4123571933619625 9.400370833551293 8.412185972253551
Au 3.981115137325845 4.96137900693178 9.289235654947484
Au 3.889519204786701 6.273789033051037 2.306614176579107
Au 4.156991093131176 3.515014565456218 2.5547653442629996
Au 2.176741480450045 6.644373838553566 8.066074422148699
Au 2.2168820795978883 7.60885403339458 4.038106450213312
Au 2.5236996743045874 4.8893959505097575 4.378874886998659
Au 0.9611890178342092 8.343144107525177 6.330431281221361
Au 2.6301176443043444 4.182605630978709 7.011980717541236
