5
Energy = -8.6102053 eV
Au 6.885145585801962 6.409686834649855 8.303183699124723
Au 8.570212530646797 4.5017168427361 8.321061810937312
Au 6.3903061446093385 7.295111405368991 5.853187595044773
Au 5.165157487944283 8.339965649239309 7.926252877996209
Au 6.741583603526972 7.252344302567276 3.3752358944965084
