52
Energy = -140.11727389 eV
Au 7.930927883880115 3.5537672476020647 9.942502550524539
Au 5.53219014723789 2.193074734451557 9.459011506777674
Au 4.533173207644308 2.13671972862319 6.8930390981498775
Au 7.492292749288309 1.9815398458267046 7.534721297510645
Au 5.513736474221441 4.720947500778606 10.618505393620811
Au 6.435348440156323 1.2445026601070854 5.102733052634923
Au 3.300793875386626 3.681533323746916 8.849985284137372
Au 2.548431816989059 4.025868291806535 6.224398235937387
Au 2.9352176943885375 5.572099279622884 10.760455686262494
Au 7.795745453753859 6.33937364929298 10.935359426247576
Au 10.146299179235118 5.102150674967109 10.107035132232589
Au 9.560168550178435 3.858892100977183 7.672345313026516
Au 2.0611146171672323 6.09780377318469 8.051490581404545
Au 4.293625343555442 2.8330240107194826 4.252046599752549
Au 6.292495943567748 4.502029536604521 7.811075041641072
Au 7.457579977165231 7.233860838144635 8.329961121182627
Au 8.635808884872883 2.9420660748826717 5.207850849260354
Au 5.270162681097183 7.487254871741813 11.047845826337582
Au 2.5133623751035477 4.854432527524817 3.6100890978430638
Au 6.815119088279101 2.9435236796409354 3.0374755802451077
Au 4.745470647873742 6.713868729851305 8.248006183536825
Au 4.973338410381072 5.38506975575514 5.521448621143842
Au 2.761396250516028 8.13626855571736 9.973130795744709
Au 9.897824033393077 7.819977955923033 9.839621108855523
Au 11.197879054711013 6.113973184667964 7.823685254357384
Au 10.542220411914647 5.032969045686101 5.32560337976308
Au 9.111911969969503 4.5658954014049264 3.0228704956886028
Au 7.475509910770379 9.167165043195169 10.360060951689025
Au 3.013463519080932 8.793546510849048 7.371216090405141
Au 4.8554080602810075 9.813076658370978 9.54535335180781
Au 6.7175179075952105 6.007620077933746 3.405344805163639
Au 4.70664355599257 4.517262071783171 2.0182650135613183
Au 2.5023458900999556 6.897754554750982 5.438132681442744
Au 11.746004912301897 8.794982707550869 8.032334009199078
Au 7.866350356387884 5.767247309902599 5.919237587901961
Au 6.0782146177271175 7.9884924359671645 5.978222010970412
Au 4.0419636974852455 7.13284204076395 3.1336929093883326
Au 7.276986491777228 4.669753773586247 0.9396588897944025
Au 8.735325147449862 8.596989146876469 6.374008522774929
Au 11.397982401801203 7.624740708118182 5.514706984277772
Au 9.47500679574325 10.26476496501785 8.594449100060807
Au 6.9448619817524895 11.293270690591678 8.65531257829137
Au 3.993593498245864 9.3180480692487 4.810489230409326
Au 6.417363590884959 8.81935062952139 3.09400464425794
Au 4.629142858747922 10.930320982805018 7.044209336900922
Au 9.18451976752609 7.292436006069477 3.866950647360145
Au 5.78747173349409 7.076413925700461 1.0047332091204157
Au 10.858427034664103 10.30657014851373 5.872281761674029
Au 8.77529969809786 10.074314984973057 3.9698934302607833
Au 6.284806379692582 10.928889315538239 4.80751172575794
Au 8.577435753297598 11.675987526275879 6.347985581301435
Au 6.268741327042344 13.04736632684766 6.596194628400319
