5
Energy = -8.63742672 eV
Au 9.385058836996325 6.614691445642222 3.917483710301958
Au 7.654791937744657 6.530261114223441 5.773185298435074
Au 5.2321953671263035 5.884194470116231 6.665550088351976
Au 6.8111226554476225 7.447175685449521 8.127034104623538
Au 4.328338512373686 6.9456749486861025 8.969305977627096
