53
Energy = -142.58703028 eV
Au 12.593968766600778 9.14311808889452 8.147408158884929
Au 12.122912313505052 9.262607480527402 5.425333030936195
Au 12.662163988365384 6.338251235642126 8.001273481312635
Au 11.118295205487055 7.6596649550684415 10.147853674058448
Au 10.878718510729298 11.273131399224377 6.958448415031211
Au 12.103673812330916 6.449337962898311 5.222436120539409
Au 10.743821247038257 5.010574597670316 9.493609232335622
Au 10.43437198807937 7.659155719863629 7.126772903905268
Au 10.608396867145762 10.343131710241707 9.567100785307852
Au 10.554293537425568 8.021024714781065 3.5283371404660846
Au 9.215754680743148 5.968224136290939 11.501197933087846
Au 10.763179577433569 4.508782516581518 6.7855394516276135
Au 8.189360676274067 11.148850270561688 10.37062361258463
Au 8.187840920497596 11.911806711987005 7.694216044978637
Au 9.909793782951953 5.050630752261504 4.196271352193485
Au 8.524577177292585 6.628341733246264 2.3165205455827866
Au 8.471434962706711 5.906523846304492 7.761372028482605
Au 10.160285017397575 10.827565333916805 4.157562926510663
Au 7.267019472861595 4.1674123548226065 10.905778521780991
Au 8.772993242927187 8.646531925638149 11.410211420564249
Au 8.29935006278517 7.073127544739805 5.199695680394179
Au 8.792371286255229 9.620963309692353 6.178481316346798
Au 8.870355538022233 3.1527485881768795 8.73203489567859
Au 5.835610469128527 11.957492354397992 9.339199531993204
Au 8.395679195255903 8.72153464911895 8.731306383910697
Au 7.978770405550303 9.26745786442859 3.273170322913411
Au 7.490311048550629 11.586600288692088 4.859768330965761
Au 8.249852768478577 3.521358310801414 5.946288811614186
Au 6.701862698094906 1.7547222479199287 7.485332505276697
Au 6.20398243053716 6.990347896213967 8.969097632921864
Au 6.278381127695706 4.35408790704948 8.185676062801253
Au 6.489735968666713 6.7386379528493014 11.655349701212776
Au 6.331876937406855 8.580803755703128 6.688542837064377
Au 4.528715874582176 4.922413800787618 10.46852795560089
Au 3.9442114523715763 10.065249061128526 8.860216682035032
Au 5.442089219848119 2.319793766160446 9.925284575417125
Au 5.976948014822735 7.2559470950989855 3.182310618707425
Au 5.8118525578539275 5.943278971315894 5.968315698081762
Au 5.44971274337919 11.279924620566161 6.713775862728182
Au 6.065418521159282 9.351077877027706 10.591072410542704
Au 7.108708132247639 4.639378667654637 3.692619562050967
Au 5.25123838401223 3.2276439037650113 5.623375796076239
Au 3.9703583799529807 7.44717195640696 7.430614547784579
Au 5.362560755177093 9.717213887145503 4.339051234255927
Au 3.8639465239496698 7.590485627528533 10.465741070502293
Au 3.6706197265870495 3.3433102361487 8.016205783167342
Au 3.1331925864793964 9.802184115255303 6.144976274542461
Au 3.543527863232176 7.540244655765666 4.4402569170742625
Au 1.7508269671922971 8.415064844562355 8.815434249708039
Au 4.3631646595026155 4.989369065856419 3.654313723192239
Au 2.9099225723842226 5.05435259224048 6.00758492781352
Au 2.355112072782462 5.648799809887509 8.81091277271172
Au 1.4639561177329445 7.452305553084193 6.228478444222521
