52
Energy = -141.22534264 eV
Au 3.755295674305398 6.140984143741553 6.954882114568891
Au 1.5855447711031052 6.141091262383513 8.89012047477183
Au 6.1409170376919295 6.14040724834858 5.197305234295168
Au 3.791069843904049 4.711913766747712 9.717210438699446
Au 3.791107369929441 7.5703506216908725 9.717092003798747
Au 6.140981143519276 7.54590242992668 7.720226099418807
Au 6.140873193949967 8.87560845741102 10.259752179766352
Au 6.140977426555059 4.736304148718802 7.720043704657643
Au 6.140872641919036 3.406571950138709 10.259942460333804
Au 11.263152595064053 6.141107056662163 6.1879754588513824
Au 8.527193837173906 6.1409795365794375 6.95508548530504
Au 6.140991023499479 6.1411652154417435 10.639782900863784
Au 7.673690921866633 2.4034956675150507 8.182841616182936
Au 8.49139271096239 4.712144312120826 9.717181723535367
Au 10.698968837943008 8.517463587472264 4.9467559919950945
Au 3.150188654233555 10.66022632648317 5.934888311605931
Au 4.560771977665403 8.365842705698102 5.412909231097936
Au 6.141071174878719 10.945472805590123 6.108898744168054
Au 4.608455189097522 9.878548281865417 8.18272270447428
Au 7.673723318369509 9.878664673673523 8.182622570993965
Au 7.518020614829615 10.724492742754219 3.671042328833515
Au 7.721527934012481 8.36618889909955 5.4129639232278866
Au 9.13190841599384 10.660207238834916 5.9349638178618696
Au 10.091497334077076 8.526925043676682 7.602861954420415
Au 10.696294842660013 6.141091208614564 8.890232370562615
Au 2.1906191070391756 8.526971447548291 7.602564949385307
Au 8.491356074077677 7.570118092660472 9.717060794486201
Au 2.190621022684202 3.755222241964127 7.602865760113682
Au 4.680644792909293 6.140998133154324 2.7902198595433516
Au 1.5831520597583773 8.517468926589267 4.946574173498847
Au 1.9567718212931855 6.141037359513996 3.5011913935658243
Au 4.764168393679602 10.724505207110623 3.670931127581315
Au 3.2800390173518057 3.744739594202362 2.8114170975326847
Au 6.141113702947622 8.501228439387669 2.7758554541751455
Au 3.2800603032675566 8.537419535831894 2.811251117544726
Au 1.0189783094561342 6.141108244450046 6.1878437797995
Au 10.325390064602093 6.141035672456538 3.5013383022243403
Au 7.721085361609795 3.9164961738586603 5.413134653007154
Au 9.00214205924425 8.537430035466256 2.8114452236752174
Au 4.561200530977219 3.916846044312365 5.413076307045466
Au 4.764182540606612 1.5575559961250036 3.6710040646557904
Au 7.601607709069902 6.140998861332416 2.790079609685686
Au 10.091498259911473 3.755263292388066 7.603173661764378
Au 4.608482343846191 2.4036121718547685 8.182941573339015
Au 10.698970876945019 3.764724698561107 4.947010808915299
Au 7.518005137279304 1.5575681262680021 3.6711196804136326
Au 9.131964260208054 1.6217668709098223 5.935175667759898
Au 3.150128073368707 1.6217435359084975 5.9350967666928
Au 6.141065819064262 1.336687025358886 6.109069001580374
Au 6.141113285000223 3.7810090993623824 2.7759720608422853
Au 1.5831422039066099 3.764720007330282 4.946822045718525
Au 9.00216095350598 3.7447284090995963 2.8116138034267433
