53
Energy = -143.28483594 eV
Au 1.5636375273325425 5.571949346596217 4.157049623685878
Au 1.3904364966665963 8.152538760115423 4.911821130504903
Au 3.4855742688477576 7.50690696555675 3.111326124706286
Au 1.5790154871068374 6.184818535312749 6.972490371800699
Au 3.963525948695202 4.709668784389147 3.2081435400642326
Au 2.7621125330336542 3.749150878950237 5.827603520743709
Au 2.6684615870140584 4.187342469386672 8.583873210515963
Au 2.825755100258786 8.761563357364473 7.155672237919873
Au 4.49187607945169 2.246392406047112 4.192372310501299
Au 3.4342460923820926 9.914986150003601 4.624735163307939
Au 4.041212722281247 6.411271621943495 5.5979256634782635
Au 6.046323253717949 6.392635676321396 2.518610878670922
Au 4.628094766407269 2.0333267404091715 6.913136506810476
Au 3.0155934253091266 6.9172410251317835 9.252427192106559
Au 6.522343614269401 3.7042283096645905 2.971846815421339
Au 5.193013448636531 4.729413179766735 7.434357248015579
Au 6.529729024558906 7.360760547669021 5.1340801923468
Au 4.35500860452811 9.488136978151239 9.353927027727018
Au 4.831554169886547 10.689473498523643 6.9240075781708486
Au 8.700257931461064 5.418821241738314 2.6647341202953236
Au 4.0123913329589165 4.924772068669502 10.917650125321831
Au 6.979159758119485 2.180708771482358 5.331094530805342
Au 5.540853928620946 11.588190834780857 4.409967756133793
Au 7.158736610195723 2.5895375390319963 8.042765476001149
Au 5.537160760872028 7.5202306673577 7.827537204247719
Au 5.689175935175286 9.173534734223319 3.080468875421514
Au 8.11554408315546 8.517387847449537 7.152595937010734
Au 8.03510450556149 10.46925018463537 3.9230516527079446
Au 4.780069084579289 2.6575680301699043 9.57481987557757
Au 8.21970777985432 8.129961014487906 2.6227799460247576
Au 7.362367407309699 11.687749264920866 6.435750997706365
Au 6.919406014981958 10.356687622503122 8.810473774403404
Au 7.784266355927931 5.700751848655598 7.077553979737267
Au 9.065846288657308 2.891522774948428 3.6686909719137923
Au 9.24436519855746 6.987764657924232 5.1742469183938375
Au 5.178586995230026 7.516507565626498 10.977178638378305
Au 7.932180179565593 7.622805698646104 11.352280740530144
Au 6.7397184471912785 5.602972751697833 9.6074684250337
Au 9.25617867493381 3.388676062314233 6.361543505809229
Au 10.816389199836049 7.336440225469181 2.957551741473755
Au 7.1667550998778635 3.1011313151646784 10.80489317780067
Au 11.073347109942981 8.324671107591458 7.694344802295443
Au 10.578356296577445 9.478832215805442 5.009619569271092
Au 9.801729586546372 12.103684172916248 5.170601279618872
Au 9.266296478803497 4.122500908511686 9.0399708277822
Au 9.739415741042214 10.761321092555804 7.541805392293684
Au 12.100196645346909 7.159712509322786 5.423001096622567
Au 9.283180686070923 9.250025337544837 9.73303800763855
Au 10.877738148206856 4.795489225525327 4.516640738571593
Au 6.318541058081819 5.396650504273052 12.366457286041877
Au 10.889889162120138 5.5212172965503505 7.29669043382556
Au 8.988945641054078 5.065889915363177 11.577478701364853
Au 10.262146484755371 6.692137522632138 9.771759635628532
