55
Energy = -150.47844457 eV
Au 3.904740857492327 3.599634668721832 1.7113283067179716
Au 8.150210393109274 2.3331610694814433 5.20133967294431
Au 5.486833370212471 1.9222829112015527 5.938461754532418
Au 4.943234738668302 5.604925533126611 3.706461855841987
Au 3.432299939647411 8.110679635100421 3.267151999478538
Au 5.796659968397763 7.663472488542498 1.7259191583999087
Au 3.5631479367182846 6.262475645570914 1.1449552554142168
Au 1.4366976090882178 6.449662038685342 7.954635209618751
Au 6.870686465582048 5.281864444793267 7.931155050976145
Au 6.983617358837244 7.572983339095282 4.543041988046527
Au 8.822245232577018 6.733633064381531 6.461214279033467
Au 7.377107641793026 2.2847720894935466 7.957811616493372
Au 2.1307860769412157 5.388230081600548 3.348240729484861
Au 3.811557090038524 3.5307164308886287 10.85595606042581
Au 2.3021931020547286 3.876270024121388 8.56789285133122
Au 11.363447604177436 6.764964227756932 5.278791849461386
Au 8.945063943147874 10.195453263145783 7.239346033372014
Au 10.745634992531341 5.6635955251416785 2.8096293265483094
Au 4.3756558338230835 7.2687851347454835 5.879286756867015
Au 1.963833676841199 9.03989117489902 7.354838504273144
Au 3.3617610710580115 2.9810297371413412 4.267502329564296
Au 6.881398577211 10.67887889040622 8.936269459825176
Au 6.324740643112278 4.88235179596075 1.3354483369662844
Au 10.982747509748565 5.20210847678855 7.564271344287682
Au 10.073752278430034 8.277672906449753 3.223984854857731
Au 10.89902720342 9.492666164411306 5.487300875514987
Au 5.702057484805918 9.833942971005788 3.576835723531616
Au 6.601016132152243 8.06925352017857 7.462848351502349
Au 4.391955541239828 6.402012305506448 8.488306874915041
Au 10.291455419208232 6.466425546825937 9.945028135988585
Au 10.002430077860742 2.614616596497512 7.2636511186667585
Au 1.6522162493425514 4.5430875869955845 5.93160340555614
Au 4.970391909549241 6.017726120182274 11.200678107960771
Au 3.0166340045887443 8.372045048441743 9.860540368088088
Au 4.544852070279695 4.542447583264194 6.439254901015831
Au 8.553709457617177 3.982221540034749 2.8164908736507233
Au 1.6040691687703057 7.303025611626538 5.258501562218351
Au 8.41397897539075 6.591258346107923 1.6980499440162542
Au 10.824186670299065 8.106776010508916 7.827847162490307
Au 2.7923123301823223 1.9937483539422578 6.699014409123235
Au 9.079531202825104 4.078031650519158 9.384336584478612
Au 4.721449099918873 2.2302599003506463 8.631642059232103
Au 6.482470689158555 3.672244576017744 10.270160653722222
Au 8.391680834573101 10.210383223459571 4.522768102792856
Au 6.285839990193543 10.710304993482787 6.201062104050513
Au 3.673565621075049 9.906777449790933 5.42876897466066
Au 7.620805644689289 6.24002666058149 10.58651334723188
Au 4.367616816066003 10.064932537954496 8.160044589935525
Au 7.900503983261356 9.322342928984686 1.9650910312831904
Au 5.830189933217339 8.451692663731167 10.228272369811638
Au 6.062416545280877 2.8421452524652255 3.35142954347705
Au 10.303464630048751 4.145203380731854 5.026668569478107
Au 7.2086696270441655 4.9108651329462765 5.152033950116257
Au 8.63988047971086 8.633039210970821 9.54714418638955
Au 2.2829148519625146 5.8223490902127 10.52452408930837
