51
Energy = -136.35849209 eV
Au 5.786215156227614 5.231343904051497 13.172493346337916
Au 4.5361740305620994 7.129083075293897 11.650930028842454
Au 3.4499545847040567 9.008910416543408 10.08771656785911
Au 7.3773471386206415 6.919426696750344 11.655554208707446
Au 2.29685698156563 11.057826023282296 8.732163688626917
Au 6.205032034223234 9.109826533853749 10.474085035022734
Au 5.036960047620133 11.133610114587233 8.918371099565126
Au 9.038386823699494 8.646465799220948 10.365099720050848
Au 5.022415668737199 4.542911005448815 10.6376795676195
Au 7.736976015912126 4.181021981832169 11.475015895413566
Au 7.7374225552544615 11.10681279895931 9.204703972111993
Au 3.204969162766469 6.21801559484029 9.344147595772588
Au 2.3510516242469404 8.446613967712269 7.562456252259553
Au 7.062969287656844 6.052702488790112 8.937436079574017
Au 9.741945261687974 5.910591633763639 10.475315307450764
Au 3.7394358758334865 10.805226603214717 6.474205454368841
Au 5.0415656687046955 7.682749363277462 7.766795824014074
Au 11.274756398570156 7.632552874476297 8.927974196120978
Au 9.564420377001845 3.2192633870805407 9.710979585896647
Au 7.569027816658822 8.625514956750314 7.957628506155651
Au 4.366660788671681 3.886595699296017 8.129500637755358
Au 6.619837615103571 10.915726006762224 6.536334891183572
Au 6.782863891101589 2.930941953808987 9.171907641576851
Au 3.1195931268748858 5.921784525276771 6.5551161931532125
Au 10.053494612651058 10.018752624687414 8.202411085584016
Au 6.044909630418621 5.409877035774213 6.34862222782556
Au 7.674452156252515 11.411683285918203 4.0000064321753905
Au 11.594438203895958 8.650100980676948 6.325995419618171
Au 6.645727312651337 8.096624443017884 5.3900374770453245
Au 11.06691939563567 5.0153582827505065 8.113967874811829
Au 5.011084136219852 10.56450399357616 4.153520718356382
Au 3.722054513809554 8.277512952911936 5.148916622211067
Au 8.796343825974203 1.6271920654737497 7.631012006568685
Au 9.421180843779457 6.909037003001929 6.7311653411001195
Au 8.470832775504949 4.35291825730244 7.189910395996013
Au 3.94820939177915 3.438149722673915 5.471066962035261
Au 6.291661324913756 2.3887657370357127 6.490676939166237
Au 9.07892205949575 9.67276372769195 5.600816093794397
Au 8.064848309590527 5.796436941950505 4.483019535707083
Au 8.349602460737145 8.872581270846561 3.021945039638056
Au 5.209586236204322 8.091259688283449 2.8187088999934304
Au 6.372343794608696 10.3882900548866 1.7769618498517499
Au 6.336601879326641 3.5644285993966793 3.9477608965025928
Au 10.622866890982705 4.626891070051051 5.384137960416378
Au 4.4392408271727515 5.76053123117491 4.033729821776203
Au 8.709840446391883 2.449727121363774 5.01233612242928
Au 10.408204910463198 7.396064219498061 4.139152138505253
Au 9.039371717018689 6.412531225526386 1.8600261889947847
Au 9.554723745905385 3.964436073868138 2.9237985994697198
Au 6.360253314598075 5.573203938345493 2.0869718250521045
Au 6.984858347735298 7.887145283576693 0.7196596628047801
