50
Energy = -133.40231342 eV
Au 10.346047918061236 4.024514891526117 6.8676288918147606
Au 8.306965160453062 6.588006846685245 5.520796980874222
Au 8.4008190725609 6.243648731423638 11.096794459603792
Au 2.0666156383440075 7.3908656175086165 5.360732674690508
Au 9.830779810452507 8.315051882458297 9.904056122819066
Au 9.66982734544464 4.202843680742926 9.645279439506098
Au 6.944706534269524 8.591144138315537 7.15444496380185
Au 6.836665577396346 4.214347744846306 9.826285832544839
Au 5.672193272960891 10.620689231304942 9.149624381070181
Au 11.21645566813057 6.398303388440338 5.705351394040079
Au 3.4773168027780144 5.348859602803932 9.794531908595538
Au 4.61644571317552 3.3796473541159187 8.190561690110084
Au 4.1919096474254225 8.667553077338269 6.97368558653139
Au 6.994502047040525 8.13935878316552 3.2751862631123365
Au 3.3697006083368377 5.4844341260508305 3.9382803466848286
Au 6.756484513491561 4.6733787852455215 4.008865736923078
Au 4.108097029866097 8.188199959660409 3.451557893275234
Au 8.306096523774627 6.400549592850519 8.323411733821633
Au 9.919639818355968 7.736394808792266 3.629057285696156
Au 5.344214392796105 6.287957587527859 1.9631968603645957
Au 5.473706315375408 6.667941370253415 5.493499350564287
Au 4.261886894662655 8.388088282417998 10.17836914813005
Au 2.1967632735461864 7.369913156789224 8.482186834441684
Au 8.71071574719591 2.3854283723611185 5.297115611585881
Au 10.036586116444479 8.548765332103853 7.081696539807637
Au 11.082552988228466 6.270900852864516 8.438554586092367
Au 8.413744146073102 10.437588995663758 8.983891954184209
Au 3.126287951649376 5.26942557882353 6.839437780323561
Au 9.903448724072 11.263979272542468 6.8250996434733855
Au 2.9194550282257654 10.388904075585288 8.845514170261461
Au 8.509314754985473 9.729348470234857 4.964923698395253
Au 1.1363244209237557 9.369296194898704 6.994681133600007
Au 7.0620021026989175 8.67032101073264 10.595322145009872
Au 2.8972407554875157 10.169193074178478 4.951050896431383
Au 8.427193485762782 5.9881230553146105 2.1505791519362365
Au 5.660800639718922 6.342427819789374 11.228710239808796
Au 7.149482467529623 11.535342370417053 6.7763168881607
Au 8.553887090903906 2.3142088547308237 8.047540534766581
Au 4.461506630064731 3.324084256039204 5.373862185836035
Au 9.979253532572987 4.61656675571682 4.10996916561992
Au 5.71669838846949 10.083403630998719 4.7965471601639225
Au 4.444574923085696 11.58194208939595 6.806149428512665
Au 5.496510304960854 6.470811990645901 8.320223597827697
Au 6.938605721264222 4.462617906726318 6.76274390081175
Au 8.465228358338505 2.9065801873462553 2.58021681314231
Au 4.663637333941748 3.487761974630357 2.5328903472497144
Au 6.309888112070342 1.7539704037674178 3.9711964716310546
Au 6.303554219865165 1.559389997781798 9.443622827775915
Au 6.264810271974099 1.5595387047054297 6.672912677439338
Au 6.787426497244208 4.257973707825442 0.8591218199193813
