52
Energy = -139.42221409 eV
Au 12.060411626558778 9.343403308074983 7.300524481189656
Au 8.887816500867945 2.4291859745047826 10.222890485072728
Au 10.702566613217224 9.415144885963983 9.851876653239911
Au 9.964587793517868 4.702806490497416 9.214470546916244
Au 9.340450455667021 7.119765871507215 10.638639853268215
Au 11.122631293403474 6.995621653364583 8.323001070950092
Au 9.16579320007173 2.5574709825239466 7.408486068071032
Au 6.037983250781145 2.630773609941188 10.913902489564691
Au 7.664317172407873 4.889667457846041 10.912794635196933
Au 6.4313971860237515 7.331795195680544 10.82198559314559
Au 10.988307572134623 11.729155608944192 7.999523618863273
Au 10.186174518916703 5.051912190317999 6.468299919699769
Au 8.027088185911886 9.591703349139717 10.752954352214909
Au 8.37129190782945 3.4708435862749147 4.954691880161408
Au 10.778823228655767 7.695197198837107 5.569295961475622
Au 9.074583687149993 9.14677502338853 7.577554681099505
Au 10.194851416489197 10.671635222587277 5.527931546135538
Au 7.0096133071372755 4.041570111288514 8.213429660420214
Au 6.967097337544171 1.151356776953731 8.763349595563243
Au 9.35430550986589 11.864024095695802 10.138670240595719
Au 8.083662389510549 6.604288822450073 8.14683448847256
Au 4.791274580789792 4.989797543009733 10.481778602670751
Au 7.511975828180843 7.802402588527839 5.699285022096558
Au 9.151575721363097 8.9374049566708 3.684661646750102
Au 5.66055454151966 2.648719375539272 3.8139577925327437
Au 6.407807158284864 1.9810320213584236 6.284304617210548
Au 8.366940823292776 12.08128720401055 7.30270267147248
Au 6.321205387555894 5.255475047934018 5.606483723312467
Au 4.54632045896044 2.5907806122478854 8.494443485254937
Au 9.198564029759595 6.047225887128701 4.0808172210342
Au 8.11753674702229 7.26931129180274 1.8217392460565047
Au 5.250771901903302 6.110541640933621 8.038664842747488
Au 4.723182147381736 7.674602755831546 5.9247370605267795
Au 7.101389936819561 4.7665070378525884 2.853516793521014
Au 6.3506758487143715 8.842656892658422 3.241507406330269
Au 3.8012590632557575 7.575386137939308 9.916714636377511
Au 6.395636868775015 8.872437873448446 8.075489564993447
Au 7.439286261753359 10.777814238323977 5.026294624445551
Au 5.275013495047552 9.821647594756175 10.459394643705034
Au 3.960737380297239 3.452235652061796 5.896781994361115
Au 4.231406890023368 4.948416607837821 3.442421570944364
Au 6.73892097953584 12.016581158509805 9.589090809588043
Au 7.227026635779134 5.335071225533373 0.16442822608769803
Au 5.670420776657852 11.658823082229954 6.952159656080261
Au 2.601430148596955 5.836548908766121 5.391706523614832
Au 2.84707905639711 4.680268412250462 8.138536654266296
Au 5.338968441498537 6.645126430028554 1.5893850477949365
Au 3.7370812884036133 7.756617370507743 3.4240377181925603
Au 2.3949868442378413 7.336169882907269 7.623085000568161
Au 4.607788701817916 10.187540576722931 4.883201567303001
Au 3.6646222348680837 9.7448207637061 7.572482736126669
Au 4.046551149350796 11.914092065317273 9.16274615362998
