55
Energy = -149.47437876 eV
Au 6.186905812203711 6.268471464847575 8.685443421815002
Au 7.6756881211622785 6.230205925806742 6.199591225856152
Au 3.4318289124256993 4.037372744895664 10.322591513767279
Au 1.970318534134052 4.001991858446476 7.942627428302085
Au 6.175494995446025 8.531222236539806 7.049472413937522
Au 8.997792923306282 4.065386160565027 10.281096642314358
Au 4.607749797284344 8.64555997433252 9.516572998920976
Au 9.409384622221884 3.844488730841759 5.259701099728438
Au 4.740931944981804 6.287241529934153 11.134803767615109
Au 7.594605019577547 4.014407437436861 7.82609186779165
Au 9.382276750352439 8.734607514944111 7.246771521384507
Au 7.670473073583513 6.301249218440169 11.111278458504522
Au 3.3853730697838835 1.6855653823248677 7.097401566642764
Au 10.535383397832398 6.291962307465994 6.244189693119155
Au 6.142507405673168 8.644290033652394 1.7086880416457542
Au 9.01126575568604 1.7150970059307953 7.037599777064571
Au 2.9316752578861096 6.099416265120944 3.6706837767669014
Au 7.648428536801949 6.2641280081307364 1.3502290418535132
Au 4.798170069752948 3.9963327043811714 7.845518827054059
Au 4.359202596766292 3.8617647433573468 2.9448009490468854
Au 4.650383697205499 6.253790878181421 1.3804790138892407
Au 2.9621657296269617 6.436626655570329 8.921839031211405
Au 6.1675135392922975 6.148164126004787 3.753498765622545
Au 3.329427821117586 8.49661441037898 2.235088302467091
Au 6.201451128316672 1.2180780018143864 7.058307537641377
Au 10.37600285410321 8.537564163675128 4.636343950751237
Au 6.151947335630966 4.029023474331598 0.7944403080879509
Au 9.416242279752273 6.459451870684523 8.863227615261001
Au 4.771345348573229 8.455024203335496 4.632511767420733
Au 8.963629408581616 8.518218694262858 2.179816023646691
Au 7.763929667933747 8.653975416224082 9.492512550422498
Au 1.9361139114593526 8.50187905715972 4.702503052994731
Au 7.55541213088781 10.855443268891184 7.793198559244789
Au 10.422753279680496 4.037480075171909 7.871191491794547
Au 7.976642917649414 3.8710622806221835 2.9084502335662115
Au 4.786121463186773 10.844217311757433 7.80894165738517
Au 4.679762894530257 6.2133442432203125 6.222118658084975
Au 6.1625405194907446 1.7709263053591306 2.3751468509886946
Au 6.1563302306938485 11.387436358803921 5.415586741193555
Au 2.964758919415129 8.712373571517855 7.2964296109181355
Au 7.548353877775943 8.469324093691732 4.605842186358828
Au 3.364403003740697 10.78837733332046 5.430813512317393
Au 6.183035533911321 3.901939940770781 5.380105383458573
Au 9.395945354658846 6.12611797032346 3.6110708553701025
Au 8.950503233734297 10.813719701768665 5.399576585725707
Au 7.686847681703075 1.6247384543152148 4.651860078440737
Au 7.610068576430119 1.7595587814861222 9.468937947550199
Au 4.771582735653552 10.75863206512908 3.027365359511506
Au 2.954922147302881 3.8193270408546143 5.321313080372211
Au 4.835576283532879 1.7462789254273978 9.501401145766241
Au 7.52419414255068 10.772526801220364 3.007563847063746
Au 1.8193904323760397 6.25872272289433 6.32221024048437
Au 6.220437493957593 3.8729100455438217 10.787199779320623
Au 6.198407778470433 8.538884597054125 11.77206180121959
Au 4.674626489091645 1.6157123507172155 4.684118880196312
