6
Energy = -10.70786774 eV
Au 6.8970304829998 5.233851131425439 8.157898905598508
Au 8.714403141553632 6.955554654167555 7.083099320253701
Au 5.548567303811341 5.22731156760039 5.823573191910396
Au 7.350435874158231 6.972141852501815 4.758971797532776
Au 4.9271798634783845 7.024063820311029 7.73082526926467
Au 6.749071442652911 8.758179392241372 6.684836574630834
