6
Energy = -11.71840935 eV
Au 4.76843725519412 5.766969820944877 8.013002027450753
Au 6.315811209745559 4.24868425933308 6.314942383230881
Au 5.821851917112633 6.829205729306948 5.784574893047472
Au 8.13860614201046 5.775097840673053 4.928339091542103
Au 8.034693519336802 8.285389377752523 6.117207892971875
Au 6.061029582414225 8.236246370759904 8.035329736451978
