6
Energy = -11.59021161 eV
Au 2.9708929520167637 4.789476277053605 3.265079994258758
Au 5.462561565840985 3.1207361087861547 3.1847126852749614
Au 4.887015994834684 4.8732193195423585 4.983103207981539
Au 7.22183506021046 3.9270387624328493 5.516018655779448
Au 3.1832036648286133 6.695608145800097 5.612984568288136
Au 5.836548537097941 6.155979161214116 7.000158663246344
