6
Energy = -10.44549075 eV
Au 8.909044891681562 6.173877630798047 5.778586352889644
Au 8.5060159307307 8.361779685443661 7.34231003447619
Au 8.225959459663713 5.785196526214873 8.415683679230186
Au 6.4293744354711535 6.779214231001313 6.6083618210454835
Au 4.442964390458362 5.917844750996952 5.106082025941737
Au 3.951873748783415 7.4447705379621025 7.210188019735887
