6
Energy = -11.02746077 eV
Au 5.491412300007274 4.2188094039871995 6.9089127508041095
Au 5.986516258047338 6.177956242426174 8.553288076727673
Au 7.761245151356717 6.126363353663582 6.164116195291825
Au 7.004139700534023 6.673891169731064 3.568987054725693
Au 5.353419691724295 6.915903816815904 5.7727676988131895
Au 7.079807992712792 8.431873994695662 7.66602435766348
