6
Energy = -10.9967134 eV
Au 5.076834908848812 6.189255393413487 5.184705178699324
Au 7.329383557960885 7.699313356136214 5.636680263375974
Au 9.448807961518328 6.78734657566953 6.763298747974593
Au 8.09049101993223 5.39326668626516 8.701135800549224
Au 4.876172459650723 8.444911084285772 6.545278218838006
Au 5.828849606689996 6.181600794316991 7.780675247564128
