6
Energy = -11.54486303 eV
Au 7.173233749288958 5.275367318923494 5.017213289302833
Au 6.351303995676477 3.9851180544647717 3.003289789143735
Au 6.632557958299566 7.608777012488082 8.630091462248929
Au 5.545274625028037 6.779235793552504 6.387964645144144
Au 4.091164583626117 8.17668015309141 8.118456660974513
Au 8.415986790143188 6.38856682959426 7.057551443385749
