6
Energy = -10.10000004 eV
Au 5.461526205660972 4.014090414604955 6.795291419968015
Au 7.359804583179008 4.68197761329788 8.397809646009144
Au 7.8853134773959255 7.219051447043139 4.712067746384829
Au 7.583723499278219 7.839668840761528 7.3852295850798
Au 5.558189623092556 9.181563550742432 5.850998323787453
Au 5.652624830310203 6.548814174749619 6.348063499418279
