6
Energy = -11.28268979 eV
Au 8.973762348821692 5.195170902879611 8.127424710668482
Au 9.13024769845211 6.862479802228582 6.015026550363303
Au 6.5798495267202375 5.151124556857597 7.107220671804945
Au 6.734934815821128 7.814427028937015 6.220773273755827
Au 4.403740662774921 6.595386740301191 7.311441676770434
Au 4.367638471041128 8.60589886422462 5.500787066467544
