6
Energy = -12.74966124 eV
Au 8.89901602540757 4.935377716473766 5.633268184353947
Au 6.27828295483175 4.914186757884569 5.7923277172330545
Au 7.785974608259861 7.110886843431602 6.583148327452221
Au 5.019468743113257 7.152604996588104 6.865761526340499
Au 3.672710868826353 5.054372184783527 6.038046921571246
Au 6.535712375956799 9.219465003188157 7.475674849199132
