7
Energy = -13.41657199 eV
Au 9.999336697504482 9.422749944443277 7.148779298991632
Au 9.886448809735473 8.966389495714418 10.039146074175799
Au 9.988700482113325 6.905761916429249 8.084518427293983
Au 9.151830254767471 11.231254184051215 8.897827081288932
Au 8.656518568887138 6.620724966017585 10.413096680479331
Au 7.662189446768729 8.434192593302361 8.49579796218562
Au 5.4715935054038605 9.275318286450846 7.5491866388684645
