7
Energy = -13.88107727 eV
Au 7.179053926525263 11.982649614885307 7.1951290464719815
Au 7.037702468998589 9.425929043721458 8.002500443967953
Au 7.2870359715582085 4.498553006034454 9.88235878423762
Au 7.091898875465594 6.95388201692623 8.851538749998662
Au 9.290702124050966 7.876158888353615 7.473452122725451
Au 9.332447689590312 5.42009863820568 8.496382231415355
Au 9.181091294772505 10.381413834797899 6.613133569892717
