7
Energy = -14.95589743 eV
Au 11.44241064378568 7.146203445071409 8.1406139005
Au 7.2034545526704665 5.250057624694772 8.1406139005
Au 5.096261279867057 10.088658510501611 8.1406139005
Au 8.815093914407466 7.347027453036232 8.1406139005
Au 10.347281977958128 9.59477036263925 8.1406139005
Au 7.741773031172841 9.98887825793907 8.1406139005
Au 6.124820132210682 7.6629583803191945 8.1406139005
