7
Energy = -13.48181067 eV
Au 5.335495474681735 7.4325509771013385 2.856000644273092
Au 5.6444637625139835 6.544146625946621 5.346687925554912
Au 6.123655610780317 9.094919710030299 4.754794015027406
Au 5.075981068030027 4.03541109084216 5.759974302383344
Au 4.806714275092376 4.804847168532895 3.24136556516807
Au 5.590398795901875 3.3150088001808586 8.23130156135941
Au 4.298695406312404 1.622279676047493 6.717012140951643
