7
Energy = -14.57439193 eV
Au 5.336854877385854 8.013793939486106 10.384098149822925
Au 8.759415453870592 7.720820989099647 7.217856676180965
Au 7.252664578186836 9.301410185148175 9.089638694914322
Au 6.636715683220471 6.651344341392402 8.551285655446987
Au 10.932780070183918 8.853096963709683 6.232702480590845
Au 7.937202315616888 5.274213685583884 6.743831707014273
Au 9.297820665258206 10.30486650472338 7.778310777820932
