8
Energy = -16.98239313 eV
Au 6.738608353290282 5.149291874455834 6.05043509866209
Au 8.722538391637574 7.221462134272695 5.897224027832204
Au 7.351021274536561 6.741131605781063 8.322298672395364
Au 5.5201804403888355 8.39776599347746 9.209539818034434
Au 9.003615658442609 4.855001649439072 7.402989252870212
Au 6.525546687440972 7.561176439016203 4.4911960294997275
Au 5.0521765538677865 7.329419813422472 6.863616701523051
Au 4.409548063900895 5.646190662100094 4.888159542621881
