8
Energy = -16.59954721 eV
Au 5.036490993206011 7.7299593344843185 11.050320264114003
Au 10.53066001179568 8.376072390940058 7.905834889640459
Au 12.087752436974005 9.964739306369351 6.471365692886394
Au 7.400055879139787 7.3131347142640895 9.932239012494772
Au 9.47751156838303 10.213230724373147 6.166720416304044
Au 7.823403407262655 8.815524132090482 7.637724419281308
Au 9.815233199494275 6.4642444542783 9.506134733888832
Au 5.407221179263125 8.6715276348339 8.621049448997187
