8
Energy = -17.97105837 eV
Au 11.519122046750022 6.923145255375026 8.3091008145
Au 7.044977325437301 4.942184657472866 8.3091008145
Au 9.45623204304848 11.710649829036496 8.3091008145
Au 4.949608316268827 9.721985410735316 8.3091008145
Au 8.88612796350108 6.845516883559765 8.3091008145
Au 10.287457216874092 9.230720378475123 8.3091008145
Au 7.596756807639574 9.82142511770485 8.3091008145
Au 6.209382211034357 7.424726981218923 8.3091008145
