8
Energy = -16.09794254 eV
Au 4.414756155150252 6.314801154512212 4.979105759396224
Au 6.310870773290674 8.210209622950739 4.973775171261331
Au 8.206079175950213 6.313996373834441 4.96840684463305
Au 6.31006254639983 4.41859054781705 4.973857766124137
Au 4.422774387701127 6.314836737996737 7.660358208933649
Au 8.2140613608358 6.314034081640506 7.649659302735133
Au 6.318770522317307 8.210263674984887 7.655046769024986
Au 6.317964107854051 4.4186071312795425 7.6551293551492945
