8
Energy = -16.85193558 eV
Au 8.511979674672185 4.93011298623901 6.630311507405331
Au 7.081396574061631 5.8265326024975534 9.057392982361685
Au 8.212933267625374 7.616786235863435 7.29079855654813
Au 5.764363060112423 4.9894746506524505 6.786384590494947
Au 7.292308685213882 6.538529271763881 4.855520767498128
Au 5.4461057950619525 7.60631094464581 7.815725316002182
Au 6.5214090326292435 9.043295111182042 5.718189052619609
Au 4.589122701717289 6.864388020103209 5.260704825417459
