8
Energy = -16.91563746 eV
Au 5.949166723038342 6.249155621513316 2.5766023721882823
Au 3.0535528457512373 3.7651360044822857 5.854690956582349
Au 4.329242684501599 4.3848977422820195 1.7103521012842564
Au 5.230937528257423 4.448685225843276 4.333463167105014
Au 3.5257281993236886 2.3698902042302743 3.471603643992985
Au 1.2186468746603683 5.346315269339778 6.550925312192158
Au 5.125363542552209 2.050453707724968 5.612380648723592
Au 2.6820425767016713 2.488078675182647 0.9891982615798932
