8
Energy = -16.15279869 eV
Au 3.890941583379268 5.749434672736108 4.198990267116725
Au 7.983276643125386 6.637542684955245 5.772030104809565
Au 5.99896136325259 7.374019288051894 3.9066955412509854
Au 6.510525345109009 4.6914660505978185 4.448358428652046
Au 2.1795231004904294 3.874357927044618 4.964139172044552
Au 5.30429555156745 6.602167457499153 6.512512198398188
Au 4.468781182882327 3.9154146460865986 6.292402474225588
Au 6.939400079037389 4.431302121872546 7.180576662345914
