8
Energy = -16.30199516 eV
Au 8.748369960871868 6.912679539523764 5.060078100445812
Au 5.096843215054762 8.892491609718427 7.250118975977605
Au 4.7090331790011195 6.653832957231157 5.936920960832716
Au 7.333146897732637 7.481648660775488 7.324446189973502
Au 4.616968930842605 3.999517042809288 5.500282990633001
Au 6.860376275428721 9.086000169756787 9.3359123999775
Au 6.944988283196296 5.09320288716721 5.858404077302375
Au 9.159849487241061 5.548709110693846 7.433623451411241
