8
Energy = -16.13014564 eV
Au 9.514618889799939 6.857361217102992 6.363741699494703
Au 7.449753759195038 7.42985612093915 8.186953773297164
Au 4.224039840773644 5.328042351806421 5.772303950415802
Au 5.052417977836934 7.6966734479951295 7.049218481904635
Au 5.844659453402385 5.19757301600149 7.933698544135853
Au 7.307488563429476 8.20702217378038 5.550071154427396
Au 8.519340274665833 4.844265367280714 7.7774919337538275
Au 5.079053199512954 7.339985779313306 4.263475330340165
