8
Energy = -17.53350415 eV
Au 4.875836095360675 5.398647297343652 6.5010311520252095
Au 7.5859796462640805 4.905221151670028 6.572672847013901
Au 10.037237599843555 5.818164221588687 6.504085431723263
Au 5.418517482733973 8.09936389738235 6.432321372385337
Au 8.128767421112874 7.605876280245081 6.50357091519145
Au 7.1729169617015724 10.039794669379653 6.502541117584372
Au 2.971080056353301 7.181015603570705 6.31666040155247
Au 5.82782045737695 2.9700725995662554 6.685272483270552
