8
Energy = -16.16984256 eV
Au 11.234948995604745 10.744392543775998 7.38399217256133
Au 9.746830091905458 8.728566489316302 7.807441094358212
Au 9.381782170066536 8.686973857161076 10.58744390339779
Au 9.607864926613985 6.337620606069542 9.132999152031115
Au 7.707577706085069 7.266894305430323 6.71331955261486
Au 6.995201318498802 10.016646697017693 10.460207262693077
Au 7.205234694822852 7.5450041780641675 9.348863689229422
Au 7.145214806080331 9.776320283779905 7.741924671522333
