9
Energy = -18.65152485 eV
Au 5.151040294193432 5.677684003967498 4.4335646319029
Au 7.915538038885183 5.690848601794017 4.436260520884562
Au 6.542481428449879 8.30198331254145 4.401665704880923
Au 5.0989241946622625 7.4030358464733075 6.537438201116921
Au 7.984288396072022 7.413051027161876 6.537434157578564
Au 6.535754823989067 4.678911861705333 6.537551545233695
Au 5.151063465009228 5.6779273042698035 8.641425753147173
Au 7.915514167148824 5.691082946258449 8.638739012519855
Au 6.542492836208449 8.302572741044994 8.673018117054983
