9
Energy = -20.05064982 eV
Au 8.525803041777777 6.225596181888928 8.461623676
Au 5.876345381452713 7.232868245446339 8.461623676
Au 10.63858432319671 7.79314194155535 8.461623676
Au 12.739338409701785 9.485931572168115 8.461623676
Au 10.36518125034028 10.597890725565911 8.461623676
Au 8.160598460981811 8.879174595004557 8.461623676
Au 7.879921832604053 11.568042973214084 8.461623676
Au 5.656785383403603 9.890170234361491 8.461623676
Au 6.3269049586647075 4.6541632414695115 8.461623676
