9
Energy = -19.03886156 eV
Au 7.716349873325234 3.4115824873427147 7.481236894854792
Au 8.692521906972146 5.934736881042514 6.830714840003235
Au 6.0924908619836 5.554990557610117 7.853489842643066
Au 6.7431597469960565 4.551779233528725 5.280365056849875
Au 5.532059527320768 5.517108587062263 3.174789267798218
Au 7.36399434125314 8.179407434870026 7.014696145795666
Au 5.473469167474833 7.002923615510303 5.346196287152638
Au 4.302695493886183 7.463557775977524 7.826402879510991
Au 5.17004435739038 9.551347199662924 6.272963298525894
