9
Energy = -18.35309752 eV
Au 5.847647090892654 6.781860318975114 4.422270250064387
Au 8.151280349106063 5.344402854277816 4.146715859688446
Au 3.7978187299825157 5.182086289205141 4.025788601633694
Au 8.217223644656006 7.879483216865629 5.218958457931997
Au 6.17385018854735 4.048007115601487 5.353776868641947
Au 3.9840156389986565 3.1641865712791986 6.56261556767595
Au 1.958566886340307 4.931100202093065 5.974146021123384
Au 4.401128718294968 5.855372325266402 6.771774219874875
Au 6.976815909772168 6.321848263026693 7.03230130995585
