9
Energy = -18.89481962 eV
Au 5.478984136237855 5.34077766704588 5.712432915247542
Au 5.649060791650392 7.601790218014134 4.296167881923486
Au 7.3082187193868435 4.98045716346473 7.864675584614318
Au 9.431398858245995 6.671965054361585 7.690111096299069
Au 5.297533686994049 3.292136392367878 7.3580097075907185
Au 7.827158573220154 6.83134728024438 5.568012889031009
Au 5.779856624412598 7.20619605628459 7.864274880670658
Au 7.938183877733709 8.92082179134255 7.422589187566023
Au 5.49229071004141 9.470836005436391 6.50977286914678
