9
Energy = -19.13928719 eV
Au 7.4800061997507745 8.2495202435588 5.1423803749999175
Au 6.206593028573599 9.114132613509671 7.457108711727208
Au 8.509430264725864 7.240069981743348 7.4870842922638055
Au 7.211667763451772 8.028207590474167 9.741830895454356
Au 4.8352430241586895 7.516246407228626 5.711313264108888
Au 5.870431249199682 6.391329841778787 8.04245613817058
Au 7.83093431203264 5.595402202421194 5.4692318466081655
Au 5.184089108687447 4.8485611011044325 5.967846402992037
Au 6.925192785138449 3.190661587917921 4.8362875915950765
