9
Energy = -18.87004269 eV
Au 6.053097179661687 7.4316659946326284 2.7007725923143067
Au 6.882124486591862 5.918122179696971 4.671259281277032
Au 9.050867820674718 4.930742730953034 6.039170210118452
Au 6.551537848503374 3.8432351008884584 6.378432377236335
Au 5.456333748519005 6.172221711056428 7.152226760872895
Au 7.8183065806863326 5.522993091764048 8.369639417394366
Au 5.082682847716739 7.9717080712042145 5.101765407745197
Au 4.6361859334061934 8.669399764804659 7.618585401993349
Au 6.140666408191694 7.115070958460196 9.63362769379231
