9
Energy = -18.60116964 eV
Au 7.19300172016651 5.864391142528532 3.787332909806217
Au 7.889059075432139 8.25475591210262 5.117097030808
Au 8.853615482765443 6.380407183757414 8.825594350401078
Au 8.0439089881499 5.797476989404931 6.336067526551903
Au 6.201510659131322 9.136749253405437 6.942433659222663
Au 6.970008542962379 4.157757220735306 8.196192501525465
Au 5.4332470192822235 6.6599689648255564 5.619152119165746
Au 6.24249086553421 6.755259800942797 8.33896888330286
Au 3.857147469749407 7.6847051259191765 7.520504763153836
