9
Energy = -18.47350095 eV
Au 8.947655921713672 3.611802020864042 8.988613651727428
Au 8.561228845141574 6.1146391884713625 8.666349795383463
Au 6.792750550930972 7.786435971551647 7.243992393487179
Au 9.57033656952843 8.105548421560064 7.043790896703298
Au 9.307580959291442 8.578850608286446 9.774217854532711
Au 6.655656137197488 7.818415388583959 9.993260454984872
Au 9.819386645123299 10.658703383511533 8.08931280169127
Au 7.191048867770866 10.13962610982365 8.712262174704756
Au 7.849488798053949 9.991589416035838 6.030091316912181
