9
Energy = -18.94043722 eV
Au 7.110384306475085 4.53530538703788 5.625664571259573
Au 9.51955165728952 6.0189900506991325 5.898236507854573
Au 8.815366913700856 8.454237502171036 7.20431096004161
Au 7.119933347699586 7.306538064009542 5.30327315778152
Au 7.665590618277938 6.002512630573808 7.955461607931379
Au 6.1711128956757815 8.459087092364564 7.743234352541796
Au 5.070965299561436 5.9115743138156365 6.740315966140283
Au 4.609253722206057 8.311336205661043 5.485393983131801
Au 5.435229927491963 6.406617531556649 9.421097162338938
