9
Energy = -18.92473284 eV
Au 8.111606459329318 5.59565448914781 9.91648980485939
Au 7.90652982360251 4.468840406855762 7.585894158842528
Au 6.902834100184142 7.774359979411966 9.154645410342479
Au 7.729363048543314 3.5189083930758955 5.170434617048673
Au 6.69538040714488 6.694935484414972 6.713676467658316
Au 5.627221038949143 9.858433062340124 8.253434251824212
Au 6.559000731438501 5.653639998184319 4.250788783566959
Au 5.44629642591853 8.902648657720636 5.844300560068596
Au 5.311249870523096 7.811250971647865 3.489623964631351
