9
Energy = -18.89010956 eV
Au 9.721536791970621 6.778424761294307 7.216563649640513
Au 8.111673651328669 5.630731317009213 9.282372826263053
Au 7.731781539020615 7.959872505054937 6.014246937824276
Au 7.590682280962555 5.164660025629701 6.641024132083245
Au 6.05247998118626 4.001517126215862 4.858095505732214
Au 5.949421309973499 6.799332288880764 8.351022235776137
Au 5.345083050290153 6.44682550109069 5.551389548719601
Au 5.580727669215069 9.129988436909526 5.0409141990347335
Au 4.013441800817269 8.149468664853527 7.205826680672477
