9
Energy = -18.43581974 eV
Au 4.217427845461424 4.967283205946855 4.768040553501059
Au 5.058861179373408 4.916129704513478 7.38387524866921
Au 6.882676936920524 4.937247741899444 5.238242104039686
Au 7.683434059085115 4.97895316848274 7.978838741533531
Au 4.199343566087763 7.6185747941332975 4.773308477505058
Au 5.040046472708334 7.668200665213104 7.389646588937239
Au 6.864701713153765 7.681628282699305 5.244005192007035
Au 7.664599178351826 7.638279821900094 7.984380352880913
Au 9.117522940787932 6.322316507141516 5.968276554775515
