9
Energy = -18.98673469 eV
Au 5.243557956196866 5.000661872357289 5.884242923609419
Au 7.065104478248799 3.075952756150677 6.416800355191294
Au 5.861612313101521 8.237990069444555 9.633425341552885
Au 4.067369399027107 6.447343034178727 3.943247370192156
Au 4.770546220208912 6.2713968996764775 8.186621109367726
Au 6.437603330074393 7.273871172952355 4.595541758693489
Au 8.08045882262574 5.408601944297318 5.936258858174142
Au 6.959383279871987 7.568134665154097 7.336674132693399
Au 8.883258236555019 7.944508445362949 5.490545678554752
