10
Energy = -51.4406386 eV
B 7.280727056390296 7.487919351632051 7.713939507317085
B 8.107615475221413 7.463644458985053 9.727193886100656
B 9.232455195810639 7.371300830293149 7.880732650150568
B 8.132444970519137 6.416064670033108 8.551791956774359
B 9.86486308367593 8.764306604828192 7.391598443518089
B 6.900384538918394 8.937926853222077 7.156018881231151
B 8.431010597933291 9.106296123618929 6.832436564421689
B 7.354124255219552 9.176297760155538 8.676786704817783
B 9.29831775723238 9.083852653879667 8.855742091654928
B 8.212514777752 9.006848402026248 10.028217022686999
