10
Energy = -44.6901544 eV
B 5.944854412809277 8.209010917783713 6.1754037440947185
B 4.4173790643179895 8.44833396463309 6.237644989394588
B 7.459207807979445 7.935265969951904 6.413145966469026
B 2.921441127365544 8.650994731814517 6.569665636680107
B 10.167112960957647 7.348912481927245 7.779489956673031
B 8.877862600178247 7.642760034265453 6.9543649445741815
B 1.4789265883428095 8.822545504438406 7.09780731760634
B 11.264760380423377 7.073825017739001 8.832825023185293
B 12.155048171687914 6.82421620272395 10.071341448600968
B 12.869869990131276 6.600598278916366 11.424774076914941
