10
Energy = -54.90886779 eV
B 3.4209026008319876 3.413875944786014 3.4902263060969174
B 4.183841785854975 4.636540904828873 4.30357851175079
B 3.0587429736416523 3.6370715192828134 5.024617216090072
B 4.768860174953917 3.993784625584106 2.8796435604925357
B 5.374435425967352 5.057297142463731 5.323494395847041
B 6.270213291277902 6.111152912492572 6.212061485861495
B 4.8919276868885 5.587650113870877 6.817406396467127
B 5.778312303602486 5.019944175728376 3.6214599902105453
B 6.620087521038326 5.930210238219156 4.667810170946316
B 3.8366703904847332 4.62966793970739 6.041375126861124
