10
Energy = -47.35487777 eV
B 3.7267118513276416 3.6286063727933144 6.877496990121514
B 3.642361943798982 4.681178822174778 2.473768200388594
B 5.294857796166317 4.881443896680188 2.529454849946092
B 3.19325563570477 4.560480623900825 8.01406983960592
B 4.3753037713384195 4.504474362171944 3.907812337561842
B 4.03876783913683 4.259477960662417 5.46274819929457
B 6.111259524963617 4.706149500287599 3.8820689801772947
B 4.364243298896991 5.01535750821569 1.166562655782787
B 3.5077189173802568 5.263788035446904 6.687645653122099
B 7.4284359640198705 4.618362421792327 4.693668255756632
