10
Energy = -48.8281616 eV
B 9.393682171344174 7.64204777103046 6.045159340248507
B 7.856950887626863 7.296403779216283 5.964289927095239
B 6.362429227444145 7.094279753897767 6.409781421119798
B 10.796541229054014 8.046256445811702 6.461136163231729
B 5.252259166195431 7.143030149122747 7.487855919774032
B 10.087659887150123 8.268075118971288 7.787330773335196
B 5.005303044963613 7.491776438215771 8.957550688644801
B 9.045519320524104 8.379942489224078 8.969114517478086
B 6.170966783911827 7.9888599318096025 9.817477100868397
B 7.686059204223304 8.306699045137904 9.75767507064194
