10
Energy = -51.83404596 eV
B 4.812467564706159 5.919609307506109 5.328579801772171
B 6.403714024896973 5.3728864137709715 5.1229504048040635
B 2.660186029755148 7.722415766219785 5.574596737587993
B 6.675812383393093 3.6407625683335025 5.1868896417054495
B 4.156595053759303 7.404958318891043 5.427334303026987
B 3.0479786401277127 6.1046848239351545 5.485587790744945
B 7.889251585276661 4.910938708507175 4.936543898777348
B 5.136905144153341 4.209424839184821 5.306149484796977
B 8.199269219258204 3.424203785776031 5.044032306678555
B 3.630938118006851 4.65034150626359 5.417591580324806
