10
Energy = -54.19909244 eV
B 3.754107018331731 4.989546932063625 4.050243728529043
B 4.582244329664215 6.321899827452686 3.8973354744289885
B 5.903336652924188 6.821356262038196 4.629478346682208
B 5.4108520266558315 3.89742524569852 4.682916073427074
B 6.167255178351387 5.1968819627968035 4.3008106566571245
B 3.7042855385175737 3.782049044337086 5.096667964731065
B 4.668881018242569 3.696791104596079 6.311277955344983
B 6.270656988158581 6.14757233198438 6.0128138683488785
B 4.716166427364877 5.416899594762676 5.4406005416028576
B 5.836306420035424 4.743669292516332 6.591946988494547
