10
Energy = -50.92479409 eV
B 6.449002203940961 4.009356103357175 5.236137797941297
B 3.1353706262822305 4.7894014071226225 2.563568471667727
B 5.0161664119203575 3.4632252986943555 4.328077607070295
B 5.383541001317159 5.089885888073839 4.686745413327265
B 0.8932634883516933 5.058068125005954 3.8057183657556446
B 4.070990088409183 4.89598660682231 3.8816197875018132
B 2.4021183775123505 4.968401314235298 4.11398120980589
B 5.973993870057559 2.2912384886662744 4.718808913753331
B 1.5880850509322413 4.845327155634972 2.4637665206254544
B 7.24376298664001 2.703494042606933 5.466335733485149
