10
Energy = -52.98799924 eV
B 6.249419905284263 4.851419255918592 6.644528416754381
B 5.478476367527176 5.533353644063807 7.9573613644580385
B 4.343767206155216 6.6741932716191 3.8604278376926957
B 5.412132363332637 5.67545246214855 4.855650691389257
B 4.162705613579394 6.781149196624678 5.387603239001202
B 6.415881684211118 4.814572176969247 3.692069114801673
B 6.575177442866566 4.537858710483407 8.309178930218618
B 6.718320559434738 4.4799481405617 5.1662893751279455
B 5.360650459170216 5.783033970943659 3.0883558443008328
B 4.866895667878565 6.104968993496449 6.625095127999956
