10
Energy = -51.60043905 eV
B 4.798044477265012 4.872133416382074 6.163990325726213
B 4.82602257455347 6.579165241089567 5.438122035809023
B 3.5541853140288615 5.845320998427087 6.332129090446815
B 7.321513719049308 4.423452967594029 4.9367655094135054
B 6.013446686087971 3.8077840591800474 5.729769985369926
B 4.75463711250852 3.196345354894048 6.4601337620926405
B 5.97186601625318 5.3470353954715115 5.073833478136987
B 7.379806074422193 5.880806727337289 4.344397998004193
B 3.300807317869425 7.2450013575691985 5.768342750297448
B 6.25849999822245 6.91645116560366 4.673670325262494
