10
Energy = -52.8221242 eV
B 5.891208427075453 5.699010052101904 3.9876670227869275
B 4.549362348616512 5.336871221655547 3.2458012781990906
B 3.5559976515270617 4.72001796736404 4.246288538225047
B 4.325620480755566 6.113885369471116 4.820479916547483
B 6.90004053961205 5.2895149216561865 5.180903585358673
B 5.799435205574123 4.603438621000585 6.4521032945801835
B 4.516880527774292 4.4500271493624215 5.493517866576985
B 4.97379879432633 6.19520343166796 6.291099973149243
B 6.046793012704813 5.9629825667189875 7.4482272912647645
B 7.298369760913848 5.486555447881299 6.691417982191642
