10
Energy = -44.5508239 eV
B 6.412034934252607 8.637501062677604 2.107264609869573
B 6.037443254815838 7.886028932208813 3.4111288702778193
B 5.790637932608949 7.199237790749115 4.774067999951882
B 5.785190956170472 6.658586858507122 6.225512184906185
B 6.127498798263393 6.374958982828392 7.71722652707088
B 11.55994723971489 9.60944078527627 11.05505572244
B 6.8781341658108355 6.470708134857453 9.05982862450289
B 10.380022854466269 8.607139025317476 10.976655358359118
B 9.164048269903173 7.696015618272661 10.692436434887487
B 7.956819171144949 6.952160386456467 10.072601244885389
