11
Energy = -56.43749449 eV
B 3.8007380753375366 3.2755613172078473 2.9304746040310907
B 4.1303143928893205 2.9634754338147857 4.411141373796578
B 4.611026963109586 4.467675778469181 3.738315172414107
B 4.0138443455489154 4.545741675503325 2.078367490699891
B 4.988182880438511 3.7776218767500676 5.509222609387952
B 4.676645662702154 5.200771861684482 6.540100644604075
B 5.652414596201077 7.113672575128716 5.317735465096079
B 6.210112396657292 4.4405659328443985 6.2929448352307125
B 5.306114066823697 5.551856618192431 4.783078261373747
B 4.441285425549337 6.73426401344655 6.230407861557995
B 6.3198506654714555 6.010808635468011 6.270580252468825
