11
Energy = -60.92382476
B 5.987852148222578 6.8539175578611635 5.982849261607147
B 7.743051645053294 5.079333364944241 5.982849261607147
B 6.932472185333062 3.758725641039178 5.982849261607147
B 4.3564102783915 6.093843468287662 5.982849261607147
B 5.74674329977866 8.54414361705429 5.982849261607147
B 4.2418330538452285 4.51787274916937 5.982849261607147
B 7.849799707886783 6.638888595415256 5.982849261607147
B 7.225970069459992 8.057394183111372 5.982849261607147
B 4.457184078639761 7.670789265989571 5.982849261607147
B 5.869250925177515 5.1190992945380565 5.982849261607147
B 5.4007744858898885 3.4773341402685864 5.982849261607147
