11
Energy = -53.47268688 eV
B 4.364142669140163 3.3476987297887364 2.8698144933791148
B 4.287519136842165 5.017891990338689 2.814276937639822
B 3.1980962112017877 4.186037138322464 3.858158275308235
B 5.680437817515997 4.261835702982821 3.348311011419034
B 5.211815169329789 5.717831141060971 4.01913919953705
B 5.963571359432052 4.5645504503244565 4.972109171501009
B 3.546951880436187 5.879058572392472 4.045035608933957
B 4.928784918878896 3.245232972303658 4.516345855977515
B 3.512473957732358 3.5487565436811104 5.4022702254900015
B 4.339835032269823 5.05123238803549 5.352019994513645
B 2.696960719752969 2.9104632433018938 6.53310809883281
