11
Energy = -54.76526808 eV
B 5.5120416168226765 4.4351653447317325 4.2384467304715745
B 5.443788214784644 6.22688782599741 1.73552163253231
B 3.9442631812614195 4.7414565872416885 6.777687275209602
B 5.360762604993552 5.102086575062459 6.043540169532985
B 6.930683957319845 4.321537365608957 5.070855584234401
B 2.5455839282068555 4.2544725893210185 7.306769056931084
B 4.090336184353248 4.258193117546043 5.092500149420023
B 5.6060562850227065 5.816871560289891 3.230515401062001
B 6.9447853102317305 5.574204273639796 6.005254479197908
B 6.243875263211545 6.094914237311547 4.695562934005101
B 2.6928017794708974 4.040930919676408 5.796995706540538
