11
Energy = -57.54613831 eV
B 2.214273487431927 6.471790949846291 3.8110877960897533
B 3.7882868801280467 4.265069656792933 5.283302581593323
B 5.5580452824623485 4.220441451014301 5.378035912794935
B 7.130570118840049 3.425968850276033 5.77525368176676
B 5.86468917958843 2.642138433080754 6.182427403385866
B 4.369678046168013 3.0060761724106984 5.934476531025288
B 3.6630504967233115 6.986394812118331 3.6617018845131257
B 5.156025243686219 6.855626698171241 3.9222028086691183
B 7.188389701884123 4.855274319220952 5.213467791932272
B 4.281083946491339 5.612376722740972 4.583685281355902
B 6.107350596078623 5.868212870587585 4.672031677749544
