11
Energy = -58.36806625 eV
B 7.06302020129344 6.172522774405433 5.467351994675286
B 6.286215867731909 6.960958508149918 6.89976478070162
B 7.397655915314774 7.63695701143036 7.938193845627393
B 8.937203620524853 8.016141682359166 7.272941251699271
B 4.681494812825571 6.694858627223008 6.762712603777555
B 4.754854689324594 4.572206017751309 5.080205425855989
B 3.9930502195419173 5.392491002798438 6.14888489011216
B 8.598993471447638 8.266055189716297 8.737429994492812
B 6.142376868012361 5.151998226568494 4.614639189171813
B 5.704842175850005 5.415389151564971 6.241200646511139
B 7.93762035891808 7.217750008818001 6.334003578160105
