11
Energy = -57.12721806 eV
B 6.8972170823976695 7.340848000446665 7.083228622470086
B 6.944739708114133 5.96676142062742 6.079431004975194
B 5.879847113426738 7.644823784678183 8.24163070349786
B 6.53798096534564 6.36624536584279 8.822671132833316
B 7.148302155067745 5.550697744764683 7.628818998769895
B 5.109111638501498 5.6427145516306645 5.851251286770759
B 5.456414728666541 6.260799266687174 7.2733922396276895
B 5.935100020756729 5.152388983148571 3.143421843685819
B 6.443237075151006 5.523261193072681 4.594551699835455
B 4.487480314515656 4.741933994271869 2.8600068615783334
B 4.7203657900277145 5.1069791958574555 4.370841096335598
