11
Energy = -58.05703497 eV
B 2.5707340929068425 3.9871579657739438 7.023154614921753
B 5.039091097049668 4.979188715720884 3.3903770266986926
B 3.7128642359062676 2.647412776575748 4.363681539492862
B 6.395765372191361 4.820019394813231 1.1329371919231288
B 4.603550685798121 3.326721423103784 3.2889648000382743
B 2.8429990995071837 5.429418298209053 7.385444751454544
B 3.5065527970947126 4.951029057752731 6.009828025014256
B 5.911635574426683 5.672119860203104 2.2930762295638516
B 3.122765941120826 3.27288531771238 5.680015520737826
B 4.104615320337053 4.2728013677858945 4.617458829071469
B 5.554801245235598 3.95378578303901 2.0844432670479436
