11
Energy = -55.72581069 eV
B 7.823790653149952 3.4628622175260797 6.783983054013757
B 6.790975460576189 5.091570054458019 4.214635208790628
B 2.6654254672650173 7.079649823480955 4.781418263269675
B 3.9054840662600423 6.4278064944692614 4.093452462312664
B 6.369802080607273 3.9629693421911316 6.7562223026676
B 5.652267402845686 4.673003620174518 5.499619203207277
B 5.337341695799427 5.659918594355653 4.042368194595422
B 4.0648354235021795 4.860052448835312 4.910772803863107
B 2.327701469785078 5.5826523761878875 4.616882961018407
B 7.398876096710746 4.298533038982088 5.421448731842492
B 2.7838912393099404 4.111408378940076 4.217993822970923
