12
Energy = -61.79324757 eV
B 5.678152148165132 6.315091302899678 5.852414680289274
B 5.953771050812147 3.889152139896579 4.270603413201167
B 3.63051305353744 5.974489347271195 4.821629451117517
B 5.737176335051962 4.98753233319167 7.028166306027657
B 6.89041696865931 6.053233809701942 7.053660425107907
B 5.008689919453974 4.7384294787622645 5.293465079707782
B 6.992322931765177 7.368301915567991 6.195262691697888
B 4.2100674503284585 4.601521548719959 6.8818427893473455
B 6.864931091976394 3.040066147064399 3.3594506861403257
B 6.077106885086961 7.713757515198007 4.968938769297103
B 4.786542193079107 6.978866248322638 4.472934819626268
B 3.14857375471241 4.818990687253034 5.760635809197356
