12
Energy = -65.25832819 eV
B 7.87161748798952 5.655967692491483 7.628719341079001
B 7.731178665422855 4.370475193361605 6.806418747928618
B 7.13071151687049 5.8641533104819095 5.708646207029557
B 7.334880833454694 7.048556311702066 7.107227057505162
B 6.662544590680934 7.557688717565045 5.777830112836691
B 6.671742274832977 4.1597398689205995 5.676286864005392
B 6.184518406464927 5.245859693381028 7.163657345484305
B 5.3892098264152875 6.470497338146558 6.43349842395692
B 5.419496113029948 5.03138758269614 5.397172580608816
B 3.6028255730641567 7.547479892219082 5.232041632859764
B 5.126020495574131 7.822028692914898 5.267216226018196
B 4.278212496793857 6.17847823710824 5.047753386963661
