12
Energy = -67.67656314 eV
B 5.994945223362907 8.022034077239459 5.957193814933252
B 6.8395858494628285 6.482607569741584 6.377514443883718
B 4.23943594068029 4.9813804141078 5.957215368856961
B 3.6027514467258155 6.471043116728075 5.822534186595441
B 4.3865466185939015 7.82860561229074 5.822528212877381
B 5.150304597262988 6.482607569741584 6.377514443883718
B 5.994945223362907 5.019614240135093 6.37750881271809
B 5.2111518664353245 3.6852104686219107 5.822527814138096
B 7.750454506045524 4.9813804141078 5.957215368856961
B 6.778738580290489 3.6852104686219107 5.822527814138096
B 8.387138999999998 6.471043116728075 5.822534186595441
B 7.603343828131912 7.82860561229074 5.822528212877381
