12
Energy = -63.74756361 eV
B 2.392047567756482 6.3156060181079035 3.5259691963954927
B 7.659370389713071 5.489673503555754 6.176904997813568
B 6.599263849569174 6.375981884328208 5.515451639276727
B 5.227019917769085 6.107629846743527 4.8951196039115095
B 6.489267127010131 2.9410289578038467 6.01308114271694
B 2.721020546633361 4.596525290789675 3.9316071794077185
B 1.4411764553258855 5.151371755561392 3.257683217862301
B 7.616914447195328 3.940729285610242 6.403518397526287
B 6.192258748409963 4.65645147032306 5.60081290669098
B 5.160428304747028 3.157818549760024 5.323397937113929
B 3.7892309103574258 6.201294134813993 4.189129614202351
B 3.978518805935569 3.8989090948148837 4.632565236972163
