12
Energy = -67.675212 eV
B 6.181660445266646 6.492589890436135 7.337801959279256
B 4.762663056948584 6.769715830861566 8.121260919777042
B 6.238164866395066 5.201329810446356 6.2528484502389645
B 5.7884619585617765 7.9482378533831195 7.994979787376936
B 7.1639425029598405 5.345357189072786 4.707520849559946
B 4.7500664903249845 5.3934892168712345 7.258270125937893
B 7.042167735421037 8.036010048478774 6.965839175088644
B 5.9482984076451215 4.289310431424511 4.914578893490675
B 7.984086684040185 7.91143907651875 5.647595850226488
B 8.041477318806919 6.710835501481979 4.642943295897786
B 7.340559253862857 6.470703143175555 6.111520968086667
B 4.868066260681174 4.313463663844305 6.050272831919187
