12
Energy = -64.19333088 eV
B 3.8648475378400606 5.966288168093421 4.6202055592238285
B 7.001018238093946 1.7003345045204141 2.598143591845916
B 3.102125841702195 4.727231011266464 5.610834052408397
B 2.589413389962307 6.277753264071754 5.804083179973322
B 4.337235674415233 4.359641025723031 4.477679354378873
B 4.698946808011583 2.684370792360037 4.558987463537311
B 2.3149444353010566 7.801213612653097 5.806263444089948
B 3.4155022980951744 7.455447057648918 4.8022802495815835
B 6.620758303502116 3.178331561969631 2.495920401590829
B 5.8700802345840035 2.0399407060286996 3.600926228135834
B 3.5798822913899166 3.2438393349672845 5.4959923326464555
B 5.518743370616308 3.7632804540874236 3.441188606040356
