12
Energy = -65.2812284 eV
B 5.441898792872283 6.505102479361215 6.391057153896672
B 4.724931413694171 5.714605465115122 3.707741052855252
B 6.197820722784764 3.6117356395172395 4.521590960323868
B 5.738630366245687 3.7811762610420367 6.178228730837845
B 4.54884248928745 3.656470739080259 5.126144719661879
B 7.232183010933834 4.133721723057624 5.620215911250494
B 4.969310734166302 4.081693117535805 3.558649308347851
B 6.567979871946632 5.329481280503219 6.339078587222097
B 3.559189163339924 4.61560855220293 4.20648390068393
B 3.4618878247963485 6.104144954052603 4.864562271799401
B 4.98964808478235 6.899838581019572 4.735429185906223
B 4.024229410697522 7.017299879704979 6.048799992911829
