12
Energy = -66.55904863 eV
B 3.290674533477126 6.003074598213376 4.889120977770575
B 4.731068471460546 6.5588562873695855 5.3031990581521935
B 4.600412274329317 5.0974318418783024 4.082751175289917
B 2.953150031319192 4.512519426186773 4.6097674716847905
B 6.163408543822817 5.591315233514957 4.504135915619004
B 7.073789009184447 4.430403882886331 5.51449848979009
B 4.125802995220748 3.499491820088652 4.721728019914991
B 6.238640909017313 6.932530410836586 5.68394209698332
B 4.199309509274041 4.841634039815724 5.899107301927542
B 7.412311119880913 5.920642439148018 5.795766028782375
B 5.628280808656775 3.8710234106480197 5.120600632902247
B 5.76276391936315 5.333996823263137 6.324914197849828
