12
Energy = -66.24402059 eV
B 7.21132069136423 6.516682308295929 5.41526753186855
B 6.434947414894016 5.05868116881209 5.085211176332951
B 5.186637601992921 6.677500227147487 8.01475438267385
B 5.981116113837635 5.330512448366011 7.702628227888779
B 5.121402368201846 3.983208561934575 5.089999926028016
B 5.922206043742055 6.473485564585994 4.314884073999341
B 5.9559139688501155 7.642286195317358 5.580675520342076
B 6.477099145066799 6.742333283769198 6.91492150143247
B 5.172128486732771 7.831177786490745 6.959163008978886
B 7.226933448677438 5.277272164224103 6.555591510539623
B 5.958015895687102 4.1627315399188385 6.4369995431876035
B 5.105623251834676 5.1313120044363405 4.028819170483204
