12
Energy = -65.04736648 eV
B 3.627159047035236 5.018520024140292 4.245011184724078
B 3.9814579504469187 6.091686295054145 5.595441279877925
B 5.019571537985069 5.266677163968012 6.523807279023392
B 5.572023090043467 6.619103393809942 5.735267769449849
B 4.841874819725653 4.915553221444393 3.1603087681195214
B 3.698639233626434 4.36652572212728 5.776231956894987
B 4.901941773340511 6.227691208788033 4.2675481285151236
B 5.134332079894042 4.168805444722319 4.718047170806481
B 4.98413206946971 3.5525581217461295 6.353814513188021
B 6.789524549385238 5.525947958069022 5.231027229449467
B 6.304756798217915 5.215017607471735 3.6635112852316505
B 6.419385649406896 4.162916405019377 6.1196987436411
