12
Energy = -65.11323548 eV
B 6.245554983480141 4.389332607552532 7.179258690535924
B 8.153979550997171 6.279392236841174 5.629138894247902
B 4.715904064756317 4.595936656129482 7.391869518804225
B 5.669981621692905 6.016793921929266 6.780583084889626
B 7.1646083381416155 7.850143884229978 5.339483808993334
B 3.89278190861672 5.851114157951813 7.110751366125124
B 7.366266588629143 5.3480121644771526 6.654728635240042
B 8.611425517926273 7.9006346959022045 6.798732579723136
B 5.818684737651274 7.743669978173203 6.187322542063445
B 4.394166282872856 7.227612465557833 6.582311359125063
B 7.222836527229278 7.093002836527274 7.117019998176448
B 8.739499965721 7.700044482442909 5.224489609790298
