13
Energy = -71.52123571 eV
B 6.089929558782612 4.916163511893433 7.489897921421291
B 6.767334535453803 5.1167438788556545 6.018331464452147
B 5.667535644079626 6.553100384335468 4.0177758506637975
B 5.63090352540642 4.828144523914642 4.689889684964199
B 5.067556536846938 6.5484456604809065 5.475099480396988
B 4.0070436543269 4.852408907676899 5.504274063682228
B 6.673909905895113 5.466652546262645 3.1335210083272527
B 7.300615487567735 5.492743264419917 4.583325670281294
B 4.078934440410769 5.406326077006461 4.0258961694229285
B 4.0187174234769305 4.528249787667709 7.101532139302017
B 4.819313663526962 6.074655070511953 7.004900522567362
B 4.7942860449417 5.088271017797695 8.316334129126213
B 5.153828908517474 5.348729450134424 2.85486314601504
