13
Energy = -67.51916479 eV
B 8.34920937155829 8.655775489332775 6.563535492346345
B 7.413629893810829 5.842926067772172 8.256614984520136
B 7.4142680038283775 5.848313148582326 6.527089387451234
B 8.88612528913871 6.898398449126003 6.551467632795338
B 5.910405153404374 6.944794759170866 8.256604465385072
B 8.299925829177143 8.680214771064058 8.279016932135166
B 6.492753080302769 8.674245251897752 8.266307777532258
B 7.417668659678138 7.447824651406009 5.696028525183999
B 8.896226302611597 6.961743747086152 8.275966821595079
B 5.937976982146648 6.8851950857040976 6.5319289325296594
B 6.453273582225323 8.64208591765106 6.550712603814307
B 7.40574511917042 7.403656699393657 7.402563457327221
B 7.392456969344298 7.384490198209997 9.111827510353704
