13
Energy = -69.57510158 eV
B 4.1635511364958315 4.276035179556566 6.53419212900847
B 3.5455952339604364 3.481391110614098 7.735460986379203
B 4.777232796810666 4.050305343597874 8.417539086782352
B 4.922685131906559 4.3539597111878106 3.5052601319265193
B 4.384650260634818 4.784222621427671 4.940076521194457
B 4.333408153725143 6.14278923048153 3.5034173702083886
B 4.667095207344467 5.420662932230439 2.106594760364562
B 6.530318258125456 4.882652638632155 3.070227866366098
B 5.477655414359303 5.087825926387442 7.525534823034698
B 5.691465290462611 4.27821629717717 1.8775778851293934
B 4.746638320521533 6.642836881269605 4.9285744788321795
B 5.413954792714826 5.803015700944256 6.086268390450777
B 6.047808991557265 5.4741504916104144 4.470117018965716
