13
Energy = -70.81043957 eV
B 5.7160792445221835 4.406284156424557 4.275898141881618
B 4.540129592057807 7.143764017958654 4.33514104660681
B 5.086982395282818 5.788451194628657 3.766103930954705
B 6.033433373348806 6.923745953688828 4.85824991797832
B 6.74603390257508 4.2516271666630665 5.629334158909907
B 3.7713427188257143 5.858722630896165 5.072656556496357
B 7.02888574090961 5.910417545540073 5.627306724401324
B 6.789829721429627 5.189910977173442 7.1049326012451735
B 4.613938032722868 7.054753253147506 5.973834809041917
B 5.350350525149578 3.295623004795191 5.444914486282971
B 5.672250112153693 6.3002855665339155 6.902030306696127
B 4.133796089246204 4.3173006534087754 5.346705939747634
B 5.33819232776245 4.537655465197348 6.614164100829997
