13
Energy = -72.90400495 eV
B 5.990262631033058 5.990262631033058 6.9760187395669995
B 5.990262631033058 6.857247502409871 5.451647917705048
B 5.990262631033058 4.406719787873601 3.9221158326413037
B 5.990262631033058 3.454696262066116 5.151310879873654
B 5.990262631033058 5.990262631033058 3.832874880976363
B 5.990262631033058 3.711342156446276 6.672629971915891
B 5.990262631033058 5.1232777596562435 5.451647917705048
B 5.990262631033058 4.57157407024286 8.018302475877224
B 5.990262631033058 8.269183105619842 6.672629971915891
B 5.990262631033058 7.5738054741925165 3.9221158326413037
B 5.990262631033058 7.408951191823255 8.018302475877224
B 5.990262631033058 8.525829 5.151310879873654
B 5.990262631033058 5.990262631033058 8.632506426859788
