13
Energy = -69.80711079 eV
B 8.85675492915857 8.439530159311511 7.2117183140752745
B 8.823331057600758 7.4937055575717615 8.90679468943569
B 8.689194103668667 8.683056308514967 10.404425679339104
B 8.866059824301228 10.03180223002687 7.199858295480122
B 8.788682644031107 9.266520497728441 8.759623478421071
B 8.67958387399194 10.26026532555092 10.173887594784723
B 8.673490588586366 11.856518793539228 10.003741978148096
B 8.817958533062232 10.95993371403618 8.62917164778666
B 8.868959540410197 11.638258627229813 7.129086340977581
B 8.874154504637362 6.8887964330241775 7.190580773872355
B 8.87952438807245 5.785189297444881 8.269721280593602
B 8.82503725960973 5.903737097385532 9.799429406489077
B 8.724623733296923 7.1600397340226145 10.689314295983582
