13
Energy = -71.50621685 eV
B 5.5480938856538735 3.8466534337830196 6.205893431700944
B 4.07284273072827 3.56566017652777 5.173230084132689
B 6.674998723395789 4.498158069441214 5.318857509681474
B 4.159049797645012 4.6943763539837775 6.455313739887529
B 5.50666385300197 3.4531853551131824 4.46478424807135
B 3.2041992256135905 4.941891153591412 5.01583302966334
B 5.55402303018824 5.725751768226882 6.190179218409242
B 6.050015954582897 4.7050963000452475 3.6225617580498253
B 3.8714825388408793 6.200567820586863 5.841687495503804
B 4.240129042954903 4.6013944961011495 3.693406909334091
B 6.410793181549252 5.993815199194338 4.6845858911279175
B 5.1301340368150665 6.051558511622787 3.500105622166856
B 5.030905964460838 6.869429329833753 4.928725574504179
