13
Energy = -72.91453834 eV
B 6.247285118970686 3.8485662666817633 5.226777095765826
B 5.3140608013586705 4.374041919776728 3.9763604143317233
B 7.174319204377885 4.365986819799532 7.871959205034997
B 7.068553083138505 3.4468420570431375 6.566120136897878
B 4.315068646894897 5.0032158327129785 2.863014912522491
B 6.400193568932805 5.758795753471641 8.032656491278134
B 3.5771543782751 6.417516027410241 3.0041056118917333
B 5.5093560122518825 6.455695672922608 6.867429703281724
B 5.409719799050603 5.412430025452028 5.420776893166807
B 6.421201806776896 4.986293106840754 6.555453219707937
B 3.6764317560956914 7.335821027775274 4.312105476082615
B 4.655997360209416 5.991453261824401 4.165047959871287
B 4.589923736057762 6.9898804509483705 5.6094432228255515
