13
Energy = -70.95288051 eV
B 7.859035262644537 9.376629772419104 9.277412156959581
B 6.955277786961224 6.81186126871297 7.7765032227544
B 6.749007545025484 8.285918242989538 8.578195207979121
B 6.749007545025484 8.285918242989538 6.974811237529678
B 7.859035262644537 9.376629772419104 6.275594288549216
B 8.518430109392632 8.540739037897165 7.7765032227544
B 8.82580008127089 6.924522804146471 7.7765032227544
B 8.053048730642368 7.8233485253885044 5.915662482126809
B 8.053048730642368 7.8233485253885044 9.637343963381998
B 7.975721040407277 6.24147930559247 6.379986580227449
B 8.03139516109673 5.469724568854446 7.7765032227544
B 7.4900131995747 9.892942123345644 7.7765032227544
B 7.975721040407277 6.24147930559247 9.173019865281347
