13
Energy = -72.03593408 eV
B 4.305919144284508 5.312594167941462 3.6969204922180294
B 2.76302756235021 5.188716853968695 4.161742876834455
B 6.751064064185349 6.266779068123207 5.312150536682129
B 5.924989286451346 5.210138037617086 4.0732554994617605
B 5.196701567825047 6.376002468023039 5.3444897639378555
B 7.550994864455392 4.973637445846492 4.974174885003948
B 6.7509107549168315 3.680722491308442 4.636242617448004
B 5.9249579925510725 4.737571906430479 5.875331608036931
B 5.19568291987572 3.571935646168071 4.603942318101581
B 4.306020316836806 4.635922053237455 6.251029908961638
B 3.6147295102952435 6.080162586638193 5.265444708268491
B 2.762927269213277 4.760383374122115 5.786079447306937
B 3.614743543381968 3.8683600100562807 4.682378760077786
