14
Energy = -77.09840809 eV
B 1.9814353378656708 2.948775132529223 0.571663792788238
B 3.082219410000959 1.8566415548450452 1.2891999032576464
B 3.9780757589106353 2.4231902823724996 2.5717223402590057
B 1.5744298444175302 3.6982119216497074 2.049446030783615
B 2.690041337113423 1.2793883049393722 2.8020208656611283
B 1.2966764681836713 1.9206994653192848 1.692822859560241
B 3.266446971978887 3.680111294224748 1.3433468014836136
B 2.7939796180635255 3.87259503578684 3.1703221223291815
B 0.9563184314728131 1.0947096588132579 3.055779232995548
B 4.378871844420124 4.1333730417766334 2.443262214852794
B 4.309061836930044 3.4839936441017283 3.882243950207581
B 1.5052238876891233 2.732260139333938 3.4013197512466693
B 3.1398794715875336 2.3832936482505263 4.24425075369937
B 1.8803535411105659 1.3257706358018602 4.3156131406198694
