14
Energy = -77.49199118 eV
B 10.005387305530142 9.680517499941844 8.049413891754934
B 8.57902975953407 7.483977473630314 9.227484977384917
B 9.96805950801929 8.57902975953407 9.698639250373478
B 7.152672213537991 7.477542019126137 8.049413891754934
B 8.57902975953407 9.67408204543783 9.227484977384917
B 7.190000011048843 8.57902975953407 9.698639250373478
B 8.57902975953407 8.57902975953407 7.355514619046807
B 7.152672213537991 9.680517499941844 8.049413891754934
B 8.57902975953407 10.251565582848743 7.639378067412876
B 8.57902975953407 6.90649393621939 7.639378067412876
B 10.005387305530142 7.477542019126137 8.049413891754934
B 11.083921 8.57902975953407 8.46423265046063
B 6.074138519068138 8.57902975953407 8.46423265046063
B 8.57902975953407 8.57902975953407 10.493776956216525
