14
Energy = -73.27852092 eV
B 7.884820783441906 8.31941621934414 4.993869652440572
B 6.768879127831106 7.360280901738703 4.070475381754582
B 7.0690712188353455 7.222460579908071 5.774643377154049
B 7.7152678469472775 8.486360424456636 3.4959935277236664
B 5.978775967558372 4.496457498004941 7.185517476869771
B 6.1553896193027136 6.041572967583955 6.522895609118614
B 5.851707384452675 6.22609984486771 4.835543343991597
B 3.357076325038685 6.405933064496142 6.944528839943148
B 6.394756636569859 4.635632627346984 5.468795311146729
B 6.370492426197945 3.156947721181701 6.513845645794372
B 4.557975988632487 6.465961547202959 5.914603117921295
B 4.831850733388884 5.797145211147836 7.555019144316821
B 6.861075138601534 3.129739800579761 5.05524761110018
B 3.4450425658433583 5.832105191903672 8.376299370528049
