14
Energy = -75.3823265 eV
B 3.38108091675354 5.184703528163805 4.372257032671765
B 5.480845385011561 4.4891844016943665 6.417708465929146
B 4.372786731389801 3.938577782693076 5.341938292019089
B 5.729426396247563 6.817046271214215 5.14823966182187
B 8.020663291485137 6.013379179933214 6.7626514499614645
B 3.5868949989516183 3.6016743176665535 3.9891528622190426
B 4.824372575974585 4.528246388548066 3.569909861567635
B 4.623082842906398 6.267564211627046 4.117095229118859
B 4.1648206010604065 5.698677103465424 5.808156509878492
B 6.087167700210067 5.019840055656102 4.4735650014062225
B 6.71066967790308 6.949181425946019 6.501605255973493
B 5.203960360527574 6.269510863543562 6.893771360121077
B 7.2874523735992245 5.696938149092461 5.383471694908865
B 6.622560881778926 5.357970427179142 7.263825590659347
