14
Energy = -76.44204704 eV
B 4.97878126486081 8.938808278891624 5.5387512755830715
B 3.9918104157566674 8.002931484640495 4.774131251449352
B 5.410015067381969 7.23931278088464 5.514366704189767
B 6.283276615543821 8.55058607976878 6.281298480796648
B 4.226662197435327 6.52668872726083 4.4380071578822085
B 6.993830626493077 7.200595031815146 6.447894233906058
B 6.6563937996918945 4.4724147407991035 4.904412431103638
B 5.834516346720144 4.553855818477241 6.783782014401093
B 5.309783103721326 5.495498394412823 4.905463166893559
B 6.856927081298424 5.675361712104171 6.090834752382058
B 4.918531557342052 3.9304851864099 5.363218547466647
B 6.253741782389275 2.922409384444684 4.7472559816324615
B 5.1166266720799936 3.1553306404147263 6.908652361720412
B 5.125299242942471 2.275889530094773 5.611359558810527
