14
Energy = -77.28524596 eV
B 6.943582850304749 4.342625196923164 3.7993291388166908
B 6.177209670156993 5.649225325385349 2.980454146020714
B 5.549604831899018 4.091988567655249 2.8899188572145533
B 5.779786579692626 3.643871873330143 4.711577397199167
B 6.081414570926905 5.505875333702441 4.655808024431561
B 4.617797418184359 5.633256604877398 3.4597906160336787
B 4.164987819612695 3.5352015119178946 3.306763547553657
B 4.380418038284992 3.246032372066801 5.450823951382084
B 4.840431902377978 5.359542286963356 5.576794821107652
B 3.4499224838037015 4.806705254780074 5.99051178425956
B 2.9312566847420265 3.3989974839894503 4.2419753571176555
B 3.1973108329185407 5.2731095685397 4.177473294597781
B 2.8193330285751195 3.252704071447584 5.91098706555285
B 2.055941881928665 4.555102680690744 5.085777337150463
