14
Energy = -71.78446717 eV
B 6.659503142865463 6.659503142865463 8.638482000000003
B 6.659503142865463 8.638482000000003 6.659503142865463
B 4.680524285730927 6.659503142865463 6.659503142865463
B 6.659503142865463 6.659503142865463 4.680524285730927
B 8.638482000000003 6.659503142865463 6.659503142865463
B 6.659503142865463 4.680524285730927 6.659503142865463
B 5.68505391854408 5.68505391854408 7.633952367186844
B 7.633952367186844 7.633952367186844 5.68505391854408
B 7.633952367186844 5.68505391854408 5.68505391854408
B 7.633952367186844 7.633952367186844 7.633952367186844
B 5.68505391854408 7.633952367186844 7.633952367186844
B 5.68505391854408 7.633952367186844 5.68505391854408
B 5.68505391854408 5.68505391854408 5.68505391854408
B 7.633952367186844 5.68505391854408 7.633952367186844
