14
Energy = -75.37240324 eV
B 5.189226232296824 3.3749017015563996 4.060437226316556
B 6.616373798052927 5.662295000308588 5.722261826475805
B 6.072357284386112 5.527834705486665 2.6409273840379965
B 3.8011845536386577 5.584085929047692 6.525233871599075
B 3.5565600813274565 4.992928744147947 4.539206406204311
B 3.23297495362811 4.2339560011669874 6.034862175455741
B 5.941892543467025 7.409986767053117 7.812946912586322
B 3.9788497968063994 3.265055060783755 5.069113593266363
B 5.037319644398467 4.9271494419941035 5.464206420862197
B 6.903884681413669 6.627971304676518 6.919779279650275
B 5.272072272230921 6.2415030760023855 6.751782575741465
B 5.973680044491548 4.0033394687769706 2.826291428940188
B 4.672627728616863 5.384093884156576 3.4917905515692698
B 6.304101473265484 4.90690244148448 4.303661724110279
