14
Energy = -72.75784253 eV
B 8.259989111703847 9.61339815067294 8.259989111703847
B 6.906580072734752 8.259989111703847 8.259989111703847
B 7.385318641970807 9.134659581436889 9.718731081321728
B 7.385318641970807 7.385318641970807 9.718731081321728
B 7.385318641970807 9.134659581436889 6.801247142085965
B 8.259989111703847 6.906580072734752 8.259989111703847
B 9.61339815067294 8.259989111703847 8.259989111703847
B 9.134659581436889 7.385318641970807 9.718731081321728
B 9.134659581436889 7.385318641970807 6.801247142085965
B 7.385318641970807 7.385318641970807 6.801247142085965
B 9.134659581436889 9.134659581436889 6.801247142085965
B 9.134659581436889 9.134659581436889 9.718731081321728
B 8.259989111703847 8.259989111703847 10.831733999999999
B 8.259989111703847 8.259989111703847 5.6882442234076915
