14
Energy = -76.85054707 eV
B 7.1926420272402085 7.852042043946658 9.297083724267805
B 8.082279120598095 9.598953925056854 7.374362173999617
B 8.850053273334336 8.057492483889636 10.133916899402516
B 9.805668331075651 9.607562913720699 7.476761991610577
B 10.304430553966094 8.076085868853307 7.891464631714898
B 8.852433662177425 8.165412450544006 6.888707819152154
B 10.12047517536955 7.422620693229198 9.38133146787855
B 8.75503784361618 9.885575826091566 10.117020515430896
B 10.004924183108427 9.127333592087108 9.265226667402745
B 8.758018539794417 7.2639822796682045 8.444212160947293
B 8.999408584232347 10.489542825484135 8.617071550734101
B 7.397638334879335 8.001201524793398 7.734823076022386
B 7.497464434849676 9.562542277001336 8.902400906254076
B 7.423353920130113 8.933477268209174 10.519443393655983
