14
Energy = -76.61975853 eV
B 8.425040379437412 6.325182739521276 5.568886491381205
B 8.733396710726133 5.744267274228701 6.9953522101424
B 7.3162089831334285 6.850720993385289 6.92254327818839
B 7.59862164980281 5.187924127938005 7.94262024447768
B 7.251231116424831 5.143320790973122 6.233402173770302
B 6.932251444529321 6.337829733023987 4.975587976775635
B 5.83692785680913 6.9293601527045094 7.513522028213256
B 4.396115297317048 6.845294584884491 3.1458251394811003
B 5.7102006043935525 5.804407821294413 6.00815263763501
B 6.042951679627935 5.042135072985845 7.5900736373688
B 5.308556904613782 6.455920861360832 4.427088543156792
B 3.979448706696273 6.209260021847309 5.8796831422848905
B 4.588696218855236 5.908277044243873 7.347980597044272
B 3.601555123658382 6.734634666757888 4.440999721045932
