14
Energy = -76.12711939 eV
B 7.5490971157472195 4.264448220195759 5.105996472615685
B 6.196985155995262 4.624251681080477 6.168916896158947
B 5.875926290271667 3.998157141373473 4.4588069649345226
B 6.911916603049231 5.679937258298832 4.949318481729582
B 6.717078222057728 3.0021887047669837 5.577161862549641
B 5.935193329437854 6.987771513266343 5.096752815133807
B 4.455459478699633 4.540728571661045 6.106516485957656
B 5.209389088865053 3.179268376660849 6.017368979902528
B 5.4880505493701515 7.7450283712685115 6.519509864152901
B 4.350174795231962 6.70154053258726 4.11844817950139
B 5.0220006786750195 5.285137985437455 4.092703507457741
B 4.079181886386253 6.117663130795537 5.910891060679309
B 4.051155963257478 7.471000775285608 6.999532367866593
B 4.321742365507249 7.711820603568922 5.282901373753706
