14
Energy = -74.57687387 eV
B 6.426954248295802 8.547524280063099 8.339173769783997
B 7.986469190856032 8.072033167073506 8.450375599506128
B 9.311152461803344 7.9805256075860695 7.420092773595641
B 5.529033085387933 6.859659939605208 7.420092773595641
B 4.724445547191282 8.237821040792609 7.420092773595641
B 6.853716356335247 6.768152380117777 6.389809947685161
B 8.41323129889549 6.2926612671281905 6.501011777407281
B 10.11574 6.602364506398673 7.420092773595641
B 6.426954248295802 8.547524280063099 6.501011777407281
B 7.986469190856032 8.072033167073506 6.389809947685161
B 6.853716356335247 6.768152380117777 8.450375599506128
B 8.41323129889549 6.2926612671281905 8.339173769783997
B 5.497920684701078 9.573041352161887 7.420092773595641
B 9.342264862490198 5.267144195029395 7.420092773595641
