14
Energy = -77.71380744 eV
B 5.230072130033617 6.060120882507819 7.268578026534978
B 4.630866940987732 7.512269354168801 7.794667110656922
B 5.017020034859798 6.441657962622964 8.864506037646391
B 6.03904651362265 7.556275717482756 4.944796588849196
B 7.455014581134455 6.355448951497229 5.014190483935776
B 5.699238865763039 5.0454194520255635 8.540918409454367
B 7.275965951442001 5.058855443953828 5.904363626941414
B 7.127911248195543 7.553011786975713 3.8385430351322554
B 5.016589003276903 7.358238997201806 6.225373004552514
B 6.750334420901745 6.1304271005429 3.371747708800854
B 5.664907558194489 5.889266510511058 5.636188171458427
B 6.091309618697065 4.462237014214095 7.103511764659267
B 6.430392603284783 4.83757620620457 4.2959946057631875
B 5.895214922739653 4.063438087903029 5.549388126587232
