15
Energy = -83.5063731 eV
B 5.226205566440943 4.291053745202399 4.16918500015895
B 2.873503282952173 4.3566506485319305 4.2855372860803485
B 5.352001786947207 2.510101829868851 3.7632840872442106
B 6.941240385024011 4.65282323686851 4.2529597156725165
B 4.141893635547538 5.672023942592073 4.17320059838481
B 3.882302460531317 3.12468253628809 3.88370183003138
B 6.719459167599522 3.3075537338978727 3.4898208761279546
B 4.886411126331823 7.150460260044358 4.2242124213622185
B 2.459328735620601 5.892186713691014 4.969359088870987
B 3.384954996334073 7.141555250070208 4.5378242543239224
B 6.2432714892136545 3.30069288198562 5.2080116039173046
B 5.925687794439925 5.93686502900212 4.268367359066743
B 3.176971456212029 3.351735609892376 5.658054640046017
B 2.1925777222616265 4.580601485487669 5.801605843571733
B 4.739924078856827 2.8767467808901954 5.460609079454335
