15
Energy = -83.30334008 eV
B 6.214790762039245 2.5245778567015806 5.617030987957586
B 6.124927522213062 3.242217379779832 7.018487208899013
B 6.0993616032137385 4.324188688345058 5.5842972734957534
B 5.2824675066236075 4.561344645956343 7.220129907866495
B 5.4292269326353715 3.138319965948647 4.40010621499991
B 4.644983913192096 3.368004452838068 6.015390123587295
B 5.4296774311206395 4.855120033815087 4.1328568286509375
B 3.8326369252769785 3.8758287530555946 4.651260662717913
B 4.824068813611079 5.89014608871965 2.991511775131232
B 4.500207478588342 5.2790537971455285 6.049294562352218
B 3.8026844727195215 5.7541410976049185 4.644888456062337
B 3.887404358357695 6.207086722608837 1.7002927699076436
B 2.798636113294704 4.637059872953065 3.6186143752836997
B 3.167568283418163 6.267760644847998 3.268984615188793
B 2.790250903763456 5.179172128715286 2.0820347789558724
