15
Energy = -83.77717892 eV
B 7.788423207316482 7.589642488148317 9.229333489912197
B 6.785651230881068 8.47494800597631 7.9392012344996
B 7.6894569917492595 10.098657136442878 8.02297879857509
B 5.955758132673174 7.109901106131896 7.049701036591933
B 7.374543477602846 9.600409507083095 6.569625067169374
B 6.301437878529352 6.833757541145992 8.590251045466067
B 7.107259006418633 8.129568244290722 6.139955105549791
B 8.576230179202636 8.601183317550566 7.568267987572666
B 6.819173733405988 6.466020143665947 5.82931708795714
B 9.309597867364795 7.09785374192054 7.132203077261127
B 8.954997523005964 6.196362179685669 8.436453061857797
B 8.379654001206973 6.6485882526547675 5.876710455288868
B 7.954407808085764 9.13604266824284 9.232860324606547
B 7.511019234529328 6.171069343001462 7.370713147520642
B 7.545154144273839 5.898760453732689 9.065193209844463
