15
Energy = -81.3213136 eV
B 5.726672782837509 5.196961561173957 3.369823829845255
B 4.039556353275162 5.494740078493612 3.8580878200472895
B 4.777352965541931 3.8991516367592403 4.13946581973636
B 6.4601128415509335 4.160860281381532 4.589378285718479
B 5.278880810832142 6.7158259257504955 4.135540949888056
B 6.5248266848553556 5.834808435683278 4.8865415461174395
B 3.7590543470650988 4.637150836098859 5.371724830886303
B 4.392009391721537 6.211376310360308 5.498701845141063
B 5.773571107184753 7.201960687830231 5.567302487147844
B 5.326978573647567 4.19602158960247 5.858128118337498
B 6.958412471962966 4.644128413853952 6.0211503550190875
B 6.858534034000867 6.298684736365399 6.621056995915072
B 4.25780107598379 5.124392850677979 6.801824434192855
B 5.170715152142726 6.598115073646234 7.105913580427319
B 5.912023350914753 5.002323525839562 7.3918610450971585
