15
Energy = -76.92584907 eV
B 4.8966329841915215 6.112691334850756 6.399303006197642
B 5.095131609764568 7.6945232609647 6.676715734111113
B 5.780790811220394 4.938150208769713 6.710718949839916
B 4.433297777782324 9.133422423490902 6.143727604323048
B 6.406123828274155 6.367176165231729 7.078719657976354
B 5.448454680104075 9.236197661908488 7.262022135026476
B 6.6734755143894215 8.241703792419056 7.4947825667092305
B 7.7594364353063146 6.992722006926945 7.7484237019997
B 8.201522473822768 8.55306335423644 8.106698517223984
B 9.17978632833037 7.181307549129084 8.464206519676452
B 9.60988892538008 8.828879602667364 8.806138689211263
B 10.567582283438453 7.4803138253398 9.159609842431129
B 11.135941040434783 8.876044843100058 9.556407988467454
B 13.191820120552753 10.90966189854801 10.751924473202404
B 12.12016402696145 9.954190912370679 10.140649453557826
