15
Energy = -82.61415731 eV
B 7.16237113880949 7.598906396652714 7.074400180532822
B 8.821570753593345 7.7529819196390575 7.1794855893611755
B 5.573318687786113 7.659561241252897 6.891266655545531
B 10.125924070158941 7.972319348308556 6.204750873298135
B 3.9661187120243495 7.7383816656140745 6.696208102434609
B 10.383727600968934 6.970590089971339 7.560390357939175
B 2.3809979694239543 7.809771052981028 6.782045216902837
B 7.8469750085842405 7.668189130777794 8.600786065039266
B 9.403344877540512 7.5604029795203616 8.884060244674764
B 6.2273654702285395 7.664553019150798 8.43608882473073
B 11.00460592159654 7.4826430614114425 9.057607047349311
B 4.623110722757587 7.793342146687541 8.339461134297132
B 12.053198135056741 7.209557121404366 7.911624136140171
B 3.0448194812695566 7.886730296825105 8.150867891311623
B 11.6036124777412 7.453131557343148 6.452018707983156
