15
Energy = -82.89143208 eV
B 5.0241334992236455 5.821396814041211 6.969605005177129
B 4.189557654162454 6.2388159260021245 5.6108478787400555
B 4.5257347921456965 4.627600673689746 5.968238530120342
B 5.710050463183562 7.116699335391533 6.24271560397314
B 4.57128523125462 3.6689418230566844 4.5653615915965755
B 3.6298564601352044 4.922804846424925 4.256263189674762
B 5.138113706791011 7.335334979156705 4.34015826339225
B 7.148333420377469 3.425023233132131 6.403122878718868
B 6.09587068124375 4.523714160926904 6.907645467878348
B 5.767164959559124 3.337319474221921 5.565742620610524
B 6.831498548979693 6.111979814910425 4.9243856660453
B 5.27372626669433 5.381416134896226 4.297921281463511
B 7.406940135432879 4.7323297476539645 5.6200039909786215
B 3.8717675713075597 6.469160123491308 3.9414091904620974
B 6.549217804392555 7.726458156951728 5.062008435294465
