15
Energy = -83.69707462 eV
B 3.8633649710530924 5.116479009084912 3.6782338342044145
B 4.522874559361346 6.475328941321665 3.2271130564282515
B 4.180593261324896 6.342093251690219 4.87381158917422
B 5.1666067253125485 2.603758938029691 4.790214525611468
B 5.8404105856494395 5.43653035480212 3.704306087339731
B 5.696763922472106 3.850580920747799 4.050062239082547
B 6.8780265198670785 6.267178275602944 4.999540432910656
B 5.678607230898776 7.075179105779617 4.1996880281101605
B 3.922205283956723 3.7763078180092795 4.595023458641246
B 6.239711749702428 5.2565563105481665 6.165630599496728
B 4.3658309566146185 5.598367377311311 6.393465150721193
B 5.472545266146723 3.8348552401253406 5.974592482564693
B 5.482313731573419 6.672087086089485 5.909079121306167
B 4.113102580976036 2.7399153667612817 6.00451566123436
B 3.739644030944127 4.117383379949526 6.597325109027981
