15
Energy = -74.00858593 eV
B 7.504251477830316 9.64621887546697 4.4510885157609215
B 8.647042560285819 8.65491841153262 4.164745967857027
B 9.604807783848877 7.491512614921554 4.528819723794899
B 6.39143217771611 10.26830203956149 5.332919285707271
B 10.249673913690362 6.379760297900852 5.409885213546533
B 10.476297997363787 5.50764062391843 6.664516232491055
B 5.497781143322858 10.462663342245543 6.595825186841971
B 4.983014436271896 10.206703610313763 8.032553007952293
B 10.207686908734381 5.040140595534347 8.108837239940689
B 4.985831418184798 9.500181222443308 9.402100586386126
B 9.514364013894157 5.0194858884882505 9.500246851536126
B 8.51991317329914 5.429154750314928 10.626080020475937
B 5.459793640577474 8.490998640506398 10.488031343934262
B 6.287959813847345 7.350374165134352 11.152396278886938
B 7.368051713055573 6.249847093639949 11.239856716810984
