15
Energy = -74.83412462 eV
B 6.764322761235915 8.089959151229094 4.737229431974064
B 7.243470780877061 6.495496082195648 4.810406068258103
B 8.32414211185562 7.6873225232965146 4.682614395800437
B 9.694806460926177 8.11183939468093 5.321161919564866
B 5.778292245984279 6.93982991395879 5.305436763499087
B 10.738495495923802 8.466118833809967 6.447847980938337
B 4.902224304183391 6.831943955670442 6.6064710411374366
B 4.553668375758924 6.922885769200642 8.13114828671696
B 11.245114581956825 8.704347269618664 7.883154147970581
B 4.928548995800693 7.227951759819752 9.59262564909192
B 11.004742822884078 8.773439439122107 9.40511970831618
B 5.87605857499125 7.64848383722381 10.745793622821942
B 10.084085591796217 8.675453593262608 10.651420747891153
B 7.222098606558372 8.076591497880422 11.389598841748981
B 8.728249380554866 8.436658070317687 11.378292485557179
