15
Energy = -81.52516296 eV
B 5.140176036164504 8.186151157035301 5.846212852838864
B 5.622600064323559 5.425378312716056 4.2271584188812215
B 4.372455283329374 2.908714786136223 4.962930828444455
B 5.363842096400616 4.2451634503037505 5.336085778011776
B 5.498417136095795 6.874814123593567 8.305068832295174
B 6.037449688268431 5.516403292093687 7.748021176021324
B 5.088918984697569 2.881311357850416 6.337931174401659
B 7.447219271285371 7.369675038948906 3.9515467717863277
B 5.010416392173024 8.054756554413151 7.407870226827225
B 7.440148694355497 6.175431472828787 4.954616481181816
B 5.836521944571501 6.813057234909849 6.617862330222821
B 5.895411989214793 4.053341008727417 6.976669765577145
B 6.556129247636712 5.346606143325321 6.0589510355014395
B 5.874431420027162 7.3768921859085586 4.724774890800444
B 6.482575586957898 6.358168869079134 3.318388203300121
