15
Energy = -80.33467665 eV
B 3.4199413039166564 0.8347694388112334 0.5991287345827031
B 4.421951735290016 1.3583520159215283 7.293774332639746
B 3.576690956989256 4.942958700855391 4.59680643487794
B 3.2530691509247447 1.5143771503811685 2.030910509888781
B 4.487639785673541 2.1342959485646085 0.9328834319140964
B 4.806198302773765 5.109771148386294 3.4940528921305556
B 4.084764660503761 3.6055655771111814 3.706493504564774
B 4.558483003114899 2.59153920271905 2.4968262011810793
B 2.9561930539817296 2.3153419406470115 3.4146891036292986
B 3.3738421519663815 5.723474098593919 6.056308021054241
B 5.47339697285419 3.8913023335819346 2.8025009557028815
B 2.8580289919817825 6.522947285515973 7.293774332639746
B 2.549364274411356 3.446313183334356 4.43174503086555
B 2.189582434183708 4.488581462292694 5.620061872822829
B 1.8868145637586102 5.41637185560821 6.873049346552951
