15
Energy = -82.49470112 eV
B 6.8904431788191225 4.45148969912431 4.269001803865699
B 4.822468845861141 5.522624002081633 4.22076890591179
B 5.369053228249415 7.127945680877326 4.018442312064265
B 3.7214181093156955 4.75403139224914 5.016193644233057
B 6.5074497789000985 5.97934559749646 4.055054995409773
B 4.965752643584252 8.110098706354117 5.188417923954755
B 5.277879197858101 4.033491218090629 5.167620082075946
B 6.728972424796584 3.127895789686363 5.049146757907174
B 6.299351957279871 6.923189913774508 5.471062943105475
B 4.188401904790101 4.770495339637704 6.490362159655531
B 6.510835455827977 3.6225600685970463 6.463219429469047
B 5.27037314600629 7.633847980844565 6.658832849370148
B 6.375661841342368 6.436461203057873 7.060802796981493
B 4.751773339410938 6.1475454952603075 7.166829890715417
B 5.832326741124545 4.871139706034525 7.216405298446918
