15
Energy = -74.13683497 eV
B 7.101087886030504 5.97093215677373 5.699779606396251
B 5.6969213504977025 6.610467815283003 5.814301728218359
B 8.613643029734302 5.578686120618803 5.840720311882225
B 4.599559983878746 7.566683103011654 6.341452199030997
B 10.14431393072898 5.289197971692402 6.069641718781312
B 4.056263504956526 8.693710986453246 7.245689884500786
B 11.62847397627991 5.078767457069536 6.354059778791766
B 4.222141612117729 9.749681609558134 8.366248704446436
B 11.213340840899685 6.135356162863859 7.373764765406593
B 5.106003333248711 10.449556693395667 9.433546640054542
B 10.714538737805256 7.230858219056425 8.388982214231163
B 6.469264239691455 10.595548890117643 10.153180248796193
B 10.108577133638782 8.328106621129473 9.333014779594178
B 7.9433436284745484 10.190005917653565 10.365260786830106
B 9.216898959353326 9.366812422659043 10.054728780375518
