15
Energy = -80.84941283 eV
B 5.543002621889462 4.732218310446499 2.1877833592246487
B 4.065906181718786 4.731056824322524 2.704523370316575
B 5.241501747551795 3.847625555583711 3.6287865512427833
B 3.8642762117279026 4.850513270489453 4.28475659950656
B 5.298518396675519 5.771594350552268 3.5598913951145255
B 6.693385793818839 4.753468738130355 3.282401577637874
B 4.709127980439637 5.893748458115427 5.194191763438949
B 6.163189884632359 4.644148862698882 4.827974333223282
B 6.777142226700784 6.757333866916862 7.066795322943037
B 5.113657997256715 6.788186745310831 6.5164156221510705
B 6.158660276395198 5.304360766823342 6.340626072562584
B 7.008597566449438 6.838513492391997 8.630163082596248
B 5.336356840272225 7.147753932139709 8.047578047011596
B 5.776504964081719 5.283610038333165 7.946954056951567
B 5.753395049483721 6.159090526839524 9.284382585172777
