15
Energy = -81.95739209 eV
B 4.2606395030676705 5.99328446837309 2.236340373136101
B 5.140083630007216 4.924761404924353 3.039997747308297
B 5.446611996711367 4.442940795755619 4.567266230196901
B 5.6735852817892605 6.583151394244235 3.1584906158448973
B 6.618533911533912 5.64428397329202 3.9835358063642574
B 4.05897358768607 6.7581219082610575 3.576530233240053
B 6.8025362711524835 5.103400558412734 5.511031462921814
B 5.1509867743944655 4.524856888635126 6.1290620076471365
B 5.125119590069184 6.747624007594661 4.841488939092615
B 7.063729071172754 5.4500235917903135 7.0434138066780525
B 5.5797637262885065 6.45688218157503 6.391345758123387
B 6.8569369674763445 5.141416195327224 8.615600393828332
B 4.930060122746128 4.710012708586446 7.709453784078395
B 5.784812245839139 6.2931490231859115 7.9530569250303955
B 5.418775917270782 5.137239497247607 9.15453451371528
