15
Energy = -83.2093883 eV
B 4.966470099835853 2.4999867804318474 2.3491400388748715
B 3.0273032153406545 4.355370485703774 2.605319419067294
B 3.6389087087694656 3.109615748170696 1.8479164119868048
B 4.796823040751322 4.165259074910722 2.530684079302628
B 4.283443465634675 5.577288688542967 3.1359674694917787
B 3.897304936334478 6.493977240889618 4.384216934191691
B 2.7831443094051735 5.255085348492668 3.917575550890831
B 5.598229892664148 3.016730015579808 3.687007300563498
B 3.540991507588547 5.0995708112216045 5.30773981551412
B 4.791336675219063 4.704271809282372 6.321281010730396
B 5.768758310027143 3.318103044909778 5.252322054618124
B 6.144601846807663 3.64299468420295 6.724913105049374
B 4.484067182780767 6.515934048712503 5.871570971947082
B 5.20109757235035 6.184399594197592 7.226879469807044
B 5.882065915140271 4.865959303400829 7.6420130466141
