15
Energy = -71.81128539 eV
B 3.531650808176773 8.543957494379939 4.56709508245451
B 3.755128119898987 2.573479035605111 4.981969075928782
B 7.866546194826522 6.28637467685472 6.893728772299688
B 4.683968627913629 6.337907347030962 3.2175721679340397
B 8.305310198130924 7.256457440437478 8.01539817579825
B 6.035844453327719 3.8639947366620278 6.723521250880226
B 3.4657066847094904 7.148672835471998 3.875099227640458
B 6.837591555668416 5.092422024492957 7.336819283959948
B 5.987016047477471 2.3089885241871952 6.290175659369053
B 7.330990446455852 6.124364474993003 8.458928597601295
B 5.090146675569955 7.7940898422650635 3.864012519014619
B 4.7001219191679775 3.438787390934892 5.860442243386716
B 5.2656062351526876 5.080353695149609 2.5143173822645073
B 4.935729973907082 9.160986892376341 4.588589516614222
B 4.882898825103252 1.6253868492812569 5.431023242936139
