15
Energy = -82.58149703 eV
B 5.692679766283699 7.15506506126885 4.932356292405132
B 6.03945416078773 5.838858033845591 4.072213939674485
B 6.358479083557512 7.387579178288642 6.4682568980605915
B 4.869532128897755 4.327307824153195 4.3427241395982765
B 7.3135472751667745 4.626716634723535 4.875705413384365
B 4.416542456011316 7.152962086040666 6.042435777394432
B 6.607005093441589 5.782166679411217 5.844578437787003
B 6.35408570103581 4.397444767611843 3.4574502846423076
B 4.12327137251704 7.13284991654019 7.611064112122296
B 6.009042404392729 7.3441618382989144 8.026609159220065
B 4.817930326068389 5.566377810698708 5.454271447328763
B 5.635476265300311 2.9639662751010096 3.9317101556054173
B 7.1388482725056 3.151189881915642 4.248548596222637
B 4.918763191398792 6.557621660918525 8.84171697045913
B 5.374981997619942 5.931452892680377 7.063189089993676
