16
Energy = -91.43364969 eV
B 9.850011714742196 6.76772543148081 11.302559328822623
B 9.989418976290796 8.344677223590038 11.49876976151231
B 9.872906684698702 5.992871281234517 9.918530252388098
B 9.850011714742196 6.76772543148081 8.58239855117738
B 9.989418976290796 8.344677223590038 8.386188118487686
B 9.966427627611903 9.178366090622056 9.918530252388098
B 10.292997295082444 7.582951113265153 9.918530252388098
B 9.918530252388098 9.918530252388098 11.49775459512921
B 9.918530252388098 10.706591789377942 9.918530252388098
B 9.918530252388098 9.918530252388098 8.387203284870791
B 9.895538903709205 11.540280656409962 11.49876976151231
B 9.895538903709205 11.540280656409962 8.386188118487686
B 9.591960584917558 12.302006766734847 9.918530252388098
B 10.012051195301302 13.892086598765482 9.918530252388098
B 10.034946165257804 13.117232448519195 11.302559328822623
B 10.034946165257804 13.117232448519195 8.58239855117738
