16
Energy = -78.9071231 eV
B 8.191348253483875 9.856266416053897 8.226623019262277
B 8.191348253483875 6.526430090913849 8.226623019262277
B 8.191348253483875 8.191348253483875 8.950862702768768
B 7.075777488789799 7.182040975168016 9.666623182207742
B 7.075777488789799 9.200655531799733 9.666623182207742
B 9.306919018177947 7.182040975168016 9.666623182207742
B 9.306919018177947 9.200655531799733 9.666623182207742
B 7.182040975168016 9.306919018177947 6.7160733247599955
B 9.200655531799733 7.075777488789799 6.7160733247599955
B 8.191348253483875 8.191348253483875 7.431833804198982
B 7.182040975168016 7.075777488789799 6.7160733247599955
B 6.526430090913849 8.191348253483875 8.156073487705475
B 9.856266416053897 8.191348253483875 8.156073487705475
B 9.200655531799733 9.306919018177947 6.7160733247599955
B 8.191348253483875 8.191348253483875 10.601710999999998
B 8.191348253483875 8.191348253483875 5.780985506967748
