16
Energy = -90.78446839 eV
B 3.0841677633594515 2.7438893508010382 5.454970825055031
B 4.13698468794516 3.481424503733804 2.223678696228967
B 3.3035629930994075 4.999651675314313 2.8661163662344133
B 2.6887789807720277 4.090174785828317 1.4679030198658358
B 3.593293372580626 3.317762974651676 3.851205698333855
B 4.732142694581769 3.4192900954240355 5.1039667939294855
B 2.2591866854595284 3.174049456466251 2.739217833936161
B 5.096860205565549 4.535596206236204 6.295294135324361
B 3.9693018866140286 3.4986047459422354 6.555187708998479
B 6.134811829465933 5.4173586984476225 3.430285965235804
B 3.9884743849630797 4.871374676896685 1.1624344554094856
B 5.21556398188665 5.271199386564305 2.1373244362432002
B 4.472411265974794 5.640209950541889 3.7657049469502955
B 2.136816187117225 2.540569417975045 4.197427075467573
B 5.181694653643154 3.8381562863458205 3.4883518605544457
B 5.741926761501351 5.125407753002874 4.941573452932789
