16
Energy = -88.57356255 eV
B 7.907879469131319 3.330095624940055 3.3952528988719544
B 6.6652266365025685 3.7198335239080906 4.340288646568816
B 8.59522555982479 4.289491881473949 2.3186563830281908
B 5.8280298849209915 5.2243617308468995 3.8215470966737137
B 4.698298831606724 5.751102484724663 4.973239006048679
B 7.934002749207858 5.635716690328189 1.902816975122003
B 5.450686177752328 4.277294264472387 5.165217184868501
B 7.491392037648438 4.963776012890007 3.413879031384827
B 6.492238710902747 5.920114702665699 2.458288302852198
B 3.9975926270703437 4.588645087758201 5.973341577331847
B 3.4955107409749897 6.303569944125293 5.823740485776569
B 3.119738908052692 3.714178417443538 7.096136876981044
B 2.271084960102523 6.683505613295002 6.796102659263359
B 3.219982306815603 5.377925156842951 7.294530083015206
B 2.2407211731426364 4.3400561066888095 8.237771432625081
B 1.755661916637019 5.803540862159759 8.026614291477381
