16
Energy = -88.10062756 eV
B 8.280110978834298 10.51043796745732 8.280110978834298
B 8.280110978834298 7.437764491643272 9.547129850347785
B 8.280110978834298 9.122457466025319 9.547129850347785
B 6.880501066920186 8.280110978834298 9.534033061624811
B 6.919502387052255 9.636719125911227 8.280110978834298
B 9.67972089074841 8.280110978834298 9.534033061624811
B 8.280110978834298 9.122457466025319 7.0130921073208095
B 8.280110978834298 7.437764491643272 7.0130921073208095
B 6.880501066920186 8.280110978834298 7.026188896043783
B 9.67972089074841 8.280110978834298 7.026188896043783
B 9.640719570616337 9.636719125911227 8.280110978834298
B 9.640719570616337 6.923502831757371 8.280110978834298
B 6.919502387052255 6.923502831757371 8.280110978834298
B 5.835905957668593 8.280110978834298 8.280110978834298
B 8.280110978834298 6.049783990211277 8.280110978834298
B 10.724316 8.280110978834298 8.280110978834298
