16
Energy = -86.96783239 eV
B 2.481219293389504 7.173200621470207 4.7673071466416195
B 2.817788100804655 5.894369709884631 6.1910718008789605
B 5.293230303586986 5.997682050168243 4.230698226107605
B 6.651584060089567 5.1453527653012285 4.02805430561213
B 8.176275099517444 4.688754706060643 4.500557363418303
B 1.4775338004591743 6.77184554366651 5.972257248560775
B 3.9049767100438917 6.751246006529208 4.247637631660242
B 9.060476294548522 4.546154553566329 5.871000239329488
B 5.610638464725202 4.572653000940374 5.36348653220713
B 8.122341071105398 3.2424317808239085 5.4885668798531455
B 1.2931681829412704 5.699385269821364 4.859469266581353
B 6.8043251915570595 3.6346367665931245 4.627569867887748
B 4.083572701050564 5.2369777122431795 5.466033917296061
B 2.763420561620039 5.415371896097532 4.351008092643586
B 8.263420537010438 3.8497563663305634 7.011623227748401
B 6.7685044851622225 3.8235945854337468 6.394035022906353
