16
Energy = -86.2419703 eV
B 6.119030814890514 2.43963984079598 5.956787867111305
B 6.140779329769613 1.304083255502794 4.841820030958958
B 6.085644623500674 2.538242829952287 3.9068721725563007
B 5.468704349041713 3.802739648588915 6.439149282975146
B 3.810357164737342 3.134157418499111 5.624165946827562
B 4.636482305716398 2.030087347724034 4.897476383501498
B 5.5608319765836765 5.239861253806535 5.55783185105122
B 5.287876386145028 3.7373826821436307 4.596636483849012
B 3.981821190355614 4.633135994437264 6.084720047946033
B 5.706407446975016 6.760478458898065 5.043796201390639
B 5.344486129510759 7.661672741797199 3.3427092127471894
B 4.025510680842 6.2578823992627575 5.723827990482654
B 4.123633146820193 7.278179917415643 4.260462884985517
B 4.021611925093894 7.814291820964682 5.9182702716739515
B 6.4587744717122195 8.113151754225882 4.343890511869348
B 5.137208505137708 8.578968795118044 5.103206057810507
