16
Energy = -89.62703299 eV
B 5.625684103056509 4.048242395699836 5.861064243010229
B 5.552457440535867 5.2396812240534825 4.860261011975306
B 5.596449958354254 3.510204868919433 4.24809725083682
B 4.622560159885933 2.7396810546171837 5.8926480268230215
B 5.236428110467032 3.024800472979033 2.796757426149712
B 3.951406862059186 4.237304413471367 5.386997692571085
B 4.020940108808519 4.380024315824574 2.9146789142933645
B 4.701459521938893 5.953555906317315 3.6195820794345477
B 3.3244769202340088 6.067649662136091 2.8996343198845578
B 3.097729199576448 2.6059415078555848 5.454337866056839
B 3.9723308535447814 2.7058573547585856 3.960436928594653
B 3.1745140758910098 5.301967217783591 4.397746305397691
B 2.1918809499848706 4.813067869212519 3.091562902812324
B 3.8497653129631155 2.725228949849006 2.152108932139784
B 2.470701244028235 3.7671182591422014 4.560809654358946
B 2.5000543838775946 3.5324764155843456 2.192747060973376
