16
Energy = -84.43423695 eV
B 5.2761483779322305 7.402188361556746 2.7059065368144046
B 4.82838290677483 6.174948406250459 3.57984829577164
B 6.33272617149235 7.254984890097102 1.6155502448294832
B 4.4219043852225095 4.9060307144981214 4.545948280144244
B 5.017794992276691 7.234981473555319 7.781569410679655
B 6.12269865611597 5.917203266905157 2.4323659324394575
B 4.93813754436329 7.593647722128817 9.286444387910262
B 4.864937771817137 6.0640352728135305 8.972472922503204
B 5.970701262679764 3.9117395318475525 4.92268373856253
B 4.956841546348688 5.640648370608547 7.432394180746453
B 4.07098481390383 3.4600944285453834 5.183136652479762
B 5.806641807252451 4.603462548148947 3.348281366345549
B 5.315771146012136 2.846960844258748 6.139803495567077
B 5.014711189163711 4.509530834069563 6.2317980355338465
B 4.92333388577963 3.2306937626982912 3.5862027996854087
B 5.201657980363471 2.190593673867391 4.741033222786829
