16
Energy = -90.12599786 eV
B 5.725710787865669 5.507438492746609 5.035999575112071
B 6.730830227628363 6.795149474284531 6.388447999736205
B 5.203936039617706 6.863411463013595 6.052698241211988
B 4.058719361336728 6.192623858847202 5.1777802566231115
B 2.8031344212760096 5.364726513479779 4.561605431065055
B 4.149204366738331 4.311422917491335 4.9734154510316575
B 1.7972857288232746 4.796584721893917 3.4676668049656234
B 7.657612788295802 5.5791371484441346 6.057460691768571
B 4.762544222642777 3.1717816899664033 3.4186268929158135
B 2.1896151215044624 3.654241918847546 2.409835469927568
B 6.107874545315243 5.235522133226781 6.8195694309719554
B 6.958335504790869 4.26356848410758 5.521467580386833
B 3.2922342831277898 4.053771142844916 3.5660041445139754
B 3.540922542897944 2.8313335744417936 2.474037702164278
B 5.211357978900356 4.083319101637144 6.207731886271924
B 5.888976429018194 3.8233763052690777 4.403993914881452
