16
Energy = -89.20136233 eV
B 3.6588269410251137 9.289480101786777 7.240270255824026
B 4.429119583315573 9.04487661559862 5.883340922790453
B 4.733979820897359 7.5293764877713185 5.191005798558837
B 4.015399830035989 7.619974868430743 6.994877014428482
B 3.2125520260192597 6.832577141547342 8.534388909411632
B 3.2027076377956423 5.233278876290917 8.60244126361042
B 3.748017274793658 4.236867991750172 7.563031485799838
B 4.571006474390515 4.387084039140863 6.265246162259117
B 5.303796247374215 4.510802284645013 4.846459698595821
B 5.142148097384281 6.189778901939607 4.30705938896056
B 5.960618689861689 4.9594726154062405 3.518177772799775
B 6.23008757034963 6.392876919230081 3.031828733862881
B 5.218068036821523 8.995477200558682 4.524702933726487
B 5.722606185009616 7.767947830323576 3.700946977888378
B 4.038231016469707 5.858035529749283 7.25982290680217
B 3.181926529036261 8.376505756490467 8.341190556991972
