16
Energy = -89.28508853 eV
B 7.323326887615834 5.932390036614876 5.741576577165714
B 5.609783637156341 4.555281176667749 3.4139802329841893
B 5.919364838824551 6.7131494652047765 5.2930337833512935
B 6.6907945551622205 5.469718811592425 4.37267324914426
B 5.160198263084119 6.192967897356855 3.882120044000107
B 5.398192701657667 3.037277751903688 4.0462978928537545
B 4.084530499383505 5.393623472126102 3.0371031164447277
B 5.9914058904753285 5.361615638369127 6.364358881183221
B 4.13553538029308 3.781326909012545 3.0148000418126024
B 4.880022021722044 2.9462366108547524 5.525233176401767
B 3.651595003543521 2.8923722324311525 4.254926772567154
B 4.462521189387557 6.070632496169921 5.853669594940192
B 4.58846916982572 4.373429809890669 6.313448081556864
B 3.09110082254503 4.587034762917286 4.164146144951448
B 3.219348120405572 3.618488096109471 5.614330064949042
B 3.1262321699694975 5.224452653539958 5.745525445444036
