16
Energy = -87.56482164 eV
B 6.586891548491675 2.934532034825971 3.5962392449742016
B 6.668920350062433 2.5277710656313905 5.809797061900188
B 5.160819055350757 3.7010038823557445 3.481955735615748
B 5.2605252307753725 3.1644362343225936 6.299539337550685
B 7.68942497234747 2.7759510093714472 4.6688018856150135
B 4.150933808443294 4.903491007230532 3.732409682628233
B 5.373963209810511 5.073437246956166 5.194885415099958
B 6.6803727435838836 4.0601181550692225 4.943695005132926
B 4.208338644149147 3.6227499133748764 4.982708008341621
B 4.2619829331938295 8.060427533725385 4.2943471204326835
B 4.337326759400091 6.095274784621174 6.311833324241775
B 3.4445785213764366 5.056466126953402 5.255639140164334
B 4.223140741515917 6.432619725741247 4.557859106847476
B 4.191407850410717 9.157654941155565 5.311996693657398
B 4.293596701366953 7.690697645599919 5.9510504748192155
B 4.342534779642135 4.445247656239014 6.593614347522796
