16
Energy = -90.01638887 eV
B 5.708148564994808 6.604408851101795 4.224265364115254
B 6.844176493845167 5.552376427540921 3.792864551798227
B 4.28946205936924 7.16577892602757 4.723706370871469
B 5.80802431784768 5.453301530937731 6.41140892096351
B 6.489311323181761 4.579581143579654 5.280639029437805
B 3.9648728500534416 5.537214735513157 4.122755071399834
B 3.9028354591040153 3.881346805606491 3.9835702563134157
B 6.897090068492064 3.98723360838852 3.7146458553386306
B 2.9593613569562547 6.4709547805237655 5.176829873860243
B 3.112009092164734 3.2583248277524235 5.480763535071675
B 5.316579771771095 4.681024820667882 3.6245256196534754
B 4.353810020621497 2.4704397957687068 5.0144281756727676
B 4.347649361109724 5.957953926705455 6.069480511079538
B 5.714553124992584 3.031139874502004 4.322340247085309
B 2.825252301598641 4.855935807005462 5.397612277804745
B 4.6774046177868005 4.199317625362257 5.52036250839751
