16
Energy = -90.07962847 eV
B 3.590136980557085 6.192290032520092 5.725864370491068
B 4.139195625204817 3.6034070422958338 2.9887721032607626
B 5.796708101077549 3.028882522340054 2.8342712767805023
B 4.192121543840685 6.364921357274111 4.250463444911264
B 6.269686300048795 3.5483335999473775 4.337185714669972
B 5.897038864557667 5.421835616077503 4.5294543378101775
B 4.857371678287168 3.463989947798365 5.402189851676723
B 3.9581047273562286 5.234416360948501 3.097267017979227
B 6.224883162931325 4.359064240137807 5.723393453384151
B 4.790287498810481 4.832190576983412 6.46095216191215
B 3.3902688109260612 3.2401288550409033 4.553320379737645
B 3.208745164227253 4.228834819092286 5.831359493425947
B 5.395803139597904 6.117478172311914 3.1697334617023447
B 3.3343681742554283 5.354458957723457 6.981105021534961
B 4.753179418963181 2.516000508042006 4.030385727534165
B 5.669959771219316 4.609171726692894 2.7180104641547165
