16
Energy = -89.30371442 eV
B 4.064006247164103 1.4810246206411548 1.3901504262516693
B 5.277502089400808 0.41590928633836255 1.1494541112301329
B 6.633108984068994 0.371240252335096 1.9785239665154264
B 5.555156882586932 1.5566121414410192 2.318749549051571
B 6.946285460834117 1.373384556697207 3.1899168560949183
B 4.790400168497973 4.943476218281134 5.177461724247698
B 4.8048380464134155 3.7308258226508384 4.060261089573757
B 3.2436598618838217 3.72137482726492 3.0040102665310675
B 4.450648263387416 2.615156200828962 2.803203714333167
B 3.0778376412292037 2.630571110648554 1.8706245507896289
B 3.482620667256072 4.82714888285136 4.166318041165635
B 3.50102452955494 6.063097517877665 5.215020649562486
B 3.593553251269245 7.2482530490479755 6.2595875856629055
B 4.913086948459839 6.123175979057229 6.2616689202189235
B 4.7827110794648044 7.408761352929386 7.218326329231556
B 5.944287484029041 2.544252372294309 3.6368904385722827
