16
Energy = -88.89551383 eV
B 9.329375122883876 6.375345999355757 7.195505703746382
B 7.844714482822116 10.333830955930548 7.425688648314067
B 8.039076074519562 6.532411422858631 9.645543785859026
B 7.985044975647459 7.158454777812991 8.039185321971644
B 8.39805691700057 5.473554826506495 8.373838511817896
B 8.721342714066143 8.136173354041711 9.278512932055671
B 7.48910801479983 9.184412490819579 8.679474590407352
B 6.962602890123187 7.738225333802618 9.384706076841118
B 9.124037833842316 9.426822610671861 7.741192613248385
B 9.635449387393155 7.913092038586848 7.703582244803595
B 6.3297664456851415 9.888470486756093 7.52238989143967
B 7.428219040386147 8.737672328998105 6.667529647761579
B 5.9159899471821245 8.359927489402908 7.8200887957652085
B 7.630064045780364 5.830662722757108 6.9688980793288415
B 8.219811840286644 7.325308450686005 6.2655902814092554
B 6.583592336406773 7.147534667845019 6.936133138990742
