16
Energy = -72.02721966 eV
B 11.976467946440312 10.967494245920337 13.6719728709637
B 11.716565733221358 4.063035817202251 12.586430147624581
B 12.654832100314371 4.264570925853178 13.7547717620631
B 12.948933181812938 11.550040791990662 0.12407935527486494
B 10.753801386261419 3.8588124650866673 11.388720468185511
B 11.886642302808916 7.160375965487059 11.399431013062
B 11.908693698685042 5.852322296655064 10.57503342013443
B 12.052297142979565 5.380116771424271 12.012396381552167
B 13.616041222151653 4.473616741422258 0.33878862559307277
B 13.549123580503247 10.202549827361052 14.332072379257495
B 12.703532496860149 5.12565883426644 13.402719391049704
B 11.707955935750421 8.596063860613723 12.08951094305172
B 13.545030025196308 4.851584502818048 0.08617970666435605
B 14.442798463417617 4.4736167414222585 1.290161749924467
B 12.748676522168905 9.41090924654611 13.223675418419152
B 11.287235791066179 9.985007598913567 12.606541537427619
