17
Energy = -94.72135146 eV
B 7.982844247052204 5.931693542827238 3.303163200624725
B 7.991759266114163 4.548614232607744 2.624859513284462
B 7.109377448414899 6.443265869718 4.508443004655075
B 6.904238978100403 4.712983430608442 3.8909647030691286
B 5.558510625189903 5.853669511910468 6.833616536165194
B 6.20308004804597 5.267146112661238 5.364762650863109
B 3.8717043042481687 4.669329532759872 4.469461237074888
B 4.985157763137872 4.319832461851065 6.126082522345542
B 3.124437496632814 6.035674579732443 5.252443674890542
B 4.474493357943838 6.7709719235177745 5.853336219295296
B 5.537020737114997 3.90950659922612 4.564546601716504
B 3.982757933969695 5.417031727832463 6.94417441387284
B 2.1720631178627907 4.845958058136847 4.791583495688058
B 6.125503960483125 6.937218167951774 5.727185819206626
B 2.674293001326815 3.3511189867107327 4.785696430933738
B 3.230662868260776 4.228520346070014 6.177643728562139
B 4.215399204009077 3.045402942301662 5.0590296789033
