17
Energy = -97.51968253 eV
B 6.57053354948885 6.997721947809267 5.741010789367541
B 5.061900603289148 7.421661199453929 6.178220527570535
B 3.5322008798233084 7.7516028502766305 6.5519373482242305
B 3.815283109217551 6.274816380937459 5.955272256019835
B 4.036503623080382 4.7456788983828355 5.326390268750283
B 2.6645940332658973 3.840591532224156 5.162235648213118
B 4.059209009580401 3.1958254898699043 4.696629151200934
B 5.618501798497433 4.17930205587138 4.819146718116252
B 5.481322257248722 2.6122507774141113 4.230270717760522
B 6.907619333348668 3.1469505081397715 4.166998698013697
B 7.025250320165398 5.429877647050388 5.023120819730622
B 8.130779109802349 4.1292014875300005 4.289304416824583
B 8.708689553770649 5.491465386452671 4.694708458677408
B 8.083530383292786 6.736160459987229 5.332072801850126
B 5.407532036069477 5.783779360641832 5.499822951985149
B 2.319164717968393 6.787314448367889 6.364872387926889
B 2.3807379167292813 5.279837993801209 5.7737228355774075
