17
Energy = -95.95940255 eV
B 6.404391101661392 5.069558863572353 5.7053507477690015
B 2.969449442337639 4.187515692661762 4.950459822300296
B 6.210173733486878 7.670760104978708 4.871566127667157
B 4.215116249459708 3.075357754061224 5.411693645143383
B 5.904031683037725 3.4920685978191113 5.530502501758795
B 4.239076481003835 1.8165799949865107 4.068707550493553
B 3.1963102660573166 5.779212510749296 5.319850327823583
B 6.787165606453284 6.579795321272027 5.870294139666992
B 6.38815504486695 6.150575073858992 4.1756978456554465
B 3.0897362449076042 2.874796090889895 4.031913932359812
B 4.9772964302283675 3.4067147299209277 3.7358736906974994
B 5.553077360129118 2.0818852898928717 4.888875653674187
B 3.4522755856481724 7.291369335385506 5.475017723753538
B 4.644290756464208 4.714357639400853 5.124824745571949
B 5.804438107726277 4.782761998428205 3.60387064849289
B 4.715787493793662 8.113186289038136 5.106590152482728
B 4.925277294022562 6.389553079742531 5.604960140599265
