17
Energy = -92.8237509 eV
B 7.809154813733892 3.8134250162806755 7.2234676016050905
B 7.473988972344418 4.573302131799929 5.897556890688541
B 6.853362341074644 3.060616939925465 8.17261440724234
B 6.142260466577562 3.754068829307713 6.779850131742759
B 7.193509203185299 5.377386103490945 4.5042594263750315
B 5.8373580814998824 4.634453348887159 5.3121021624053295
B 7.038306026098621 5.953386876631171 3.0641858365003003
B 4.581426460082426 3.937952396546577 6.219631668977159
B 7.063223036239855 6.359289490263484 1.575606246365333
B 5.582227154594435 5.708726566247968 3.919820063290893
B 4.3142972651466165 4.841150580949405 4.83009646495812
B 3.0277015412680433 4.281459504493347 5.93316709131994
B 3.9898957924193166 6.071026396697853 3.5930716934033526
B 2.7622669966459035 5.190106293122653 4.433554029956211
B 1.5951108805438512 4.94782975577304 5.6211811618550644
B 2.468073731874667 6.5541515351065325 3.517485355145918
B 1.3242351136411745 5.998072325577616 4.4569294379843
