17
Energy = -90.33374451 eV
B 8.14688801736351 4.173109096896142 3.8376412592863076
B 6.969618172043293 3.9001113950680018 2.748177353011728
B 7.292336307802299 2.979452305746882 4.378428668366486
B 6.74156110045585 4.957427833631016 4.268074781177708
B 5.499683772737007 4.457030227265052 2.726428452892658
B 5.793174403017653 3.3371619658033436 4.035451802922759
B 5.701781697271252 8.562301222340668 5.729207176863942
B 6.207376892680871 7.307628581606225 6.471356021266283
B 5.855804599015424 6.004300375789675 5.2754236037312605
B 4.993124873611625 4.841246723588009 4.210620603868074
B 5.227227411203951 6.103463126216967 6.888910441067151
B 4.144351259354312 5.8521109241406775 5.350391340395252
B 4.691642179856571 7.415088183599069 5.419306117505184
B 4.034732740074468 5.168143714604365 7.463749677532536
B 2.8209671962761984 5.061834664823789 6.008376811393032
B 2.7880886915333747 4.262973072052831 7.604149683572788
B 1.6442697105516242 4.273169077454183 6.611389410249086
