17
Energy = -90.72783024 eV
B 2.8927686400885433 2.5042322476790364 6.4550543456541165
B 4.286283438390962 1.784928182848195 6.635454776452659
B 5.407730188141891 2.3733206104254796 5.752792186050494
B 3.616924091180659 2.187664106592914 5.066177654376564
B 4.129491398824088 3.5318289492076484 6.560866987865802
B 6.319779746029349 3.20386089322507 4.671408377652286
B 6.32257725191867 4.8267844852255 4.423516969837981
B 4.640229684373032 4.687310747324445 3.822560526430772
B 4.523606574048305 3.0198555609235473 3.9481199500378064
B 5.061235857184203 4.368809655896745 5.488360046350437
B 5.884678635797149 3.606071084676357 3.0717722746351224
B 5.9279634649030175 5.144278411945552 2.6720084410575144
B 5.517362185739027 6.2801870748957285 3.6658183343119606
B 3.7382753915260665 9.728868566244719 5.542579066342837
B 4.8851112711215645 8.6556657668811 5.664645996708345
B 5.068488612758421 7.6144253294196735 4.501480194360157
B 3.8937063339475513 8.793978601525684 4.333164177825573
