17
Energy = -91.70473231 eV
B 9.091505903859426 5.04674074567225 6.489081825516875
B 7.543850264630451 4.7723995498582985 6.2942767950315535
B 8.100069733307492 6.414622645287682 6.489440268662036
B 4.796655902913774 4.2628673936389445 7.1503363039362595
B 9.705924858030777 6.422640756938763 6.667691139564145
B 5.139449002377828 6.0961778673515195 7.22851800908677
B 3.756026809012813 5.356277321389394 7.469076334302206
B 6.06348374988897 4.135846887773564 6.113667797635213
B 6.477652261104621 6.401496696300399 6.31226561431882
B 5.144127885199281 4.434495325327241 4.722464503308328
B 3.819709277407697 5.4413081528168 5.827116189793871
B 5.141062878141653 5.602224954424841 3.4511923528592727
B 5.467549266083705 6.416556169904216 4.957918884699513
B 3.9208588364903467 6.60650022890471 4.443444480789131
B 3.6247506413560333 4.738193440522719 4.203298143316272
B 3.854460871799778 5.913692160866167 2.561957435671663
B 2.681001096271667 5.941188512301497 3.5827442398628775
