17
Energy = -95.83033278 eV
B 4.689016299569214 6.66878245082281 8.231118180117978
B 4.917624305644153 7.535572613237594 6.877912704666167
B 4.01351105194148 6.0858231809544545 6.835246211088028
B 5.767501067577102 7.559330149606086 5.433876595381032
B 4.247238345170547 5.179717394608972 8.181267615845941
B 4.1438118610371255 7.013127748172105 5.470296764685928
B 6.529304818778925 5.5311983486337 3.652264273276779
B 4.053315154115864 4.304231014823014 6.871811317974489
B 5.201800655444363 6.309878930493434 4.407654083178344
B 3.942461891212336 5.355872230913644 5.227504034391954
B 6.75491312574248 6.921561943294396 4.32576694805913
B 4.180618136990854 3.703899276561086 5.360714040280282
B 5.211077656563436 4.624187712456612 4.3212658674668765
B 5.189308092098851 2.9219517178858974 4.307175705556381
B 6.378549595044661 3.8619962004271304 3.358135627355924
B 7.1476062891455046 2.7621606429036847 2.3223123927405367
B 6.131695389543692 2.159654877194336 3.3080586404855152
