17
Energy = -94.61516277 eV
B 4.70025745813349 3.8369321682943185 3.0402892889925957
B 5.091670813193434 4.556118271430126 4.463836387259142
B 6.352924105608623 4.49372246034035 5.646582621100106
B 4.603473037071979 3.8565648382772073 7.7583961279809674
B 3.037388058889268 4.1695301485798835 2.428107124967902
B 2.4707819586793787 4.8712340491366115 3.975428095299389
B 3.3218434343229144 4.016184405530821 6.9057130535459486
B 6.079625483190528 4.3456156709255 7.409500140337842
B 7.345806780106906 5.151184981545122 6.844515948476253
B 7.616093292136797 5.585959958167145 5.367246260741366
B 6.447138367678349 5.485078449315388 4.322306653093308
B 4.353746395692338 3.389172616642442 1.5817647125946885
B 3.0674760241294527 3.727259640432291 0.7612003512390529
B 1.6335000044369592 5.169735292957846 2.6900608505837718
B 3.214472362162691 4.538294665266975 5.383134653999386
B 4.7511989760654165 4.158785462277078 6.105384779161859
B 1.846322925653338 4.581520145734952 1.2496010704931035
