17
Energy = -94.54976657 eV
B 4.694348722222383 3.5153421557136992 7.349945726069506
B 5.264429039881398 1.7452123502664039 6.695807274644925
B 6.0603507226505835 2.7195451929856453 7.600126778916106
B 3.8021412628425986 4.272841660103882 6.243911188725771
B 4.42384902861062 2.685192863509985 5.730110328348373
B 3.881662535242703 5.602880251813237 5.276798205767616
B 6.174884861249493 3.389173770137738 6.085980070869817
B 5.035637656805972 6.963634986002857 5.157250302383883
B 3.824801685947851 6.447998289481648 3.8750535023988006
B 6.646181672902886 4.594590656746627 5.0843747231949665
B 5.015790599738683 4.040623502216564 4.990240807544028
B 5.319960513100412 5.398575139341231 4.064925002369126
B 6.673362908281272 7.736909428863992 4.784998446057645
B 6.778906043403949 6.173131622107645 4.705743079660621
B 4.2253485470463765 7.949204362008487 3.585952348166146
B 5.523557971655775 8.569922973354869 4.1429026029314775
B 5.612064980065389 6.881059558786786 3.4379370459310405
