17
Energy = -95.01869787 eV
B 4.494501175089459 7.24996238605702 3.0629322200279447
B 4.750350704165449 4.435280188726541 3.708836600301089
B 3.846750569956739 5.659956360933883 3.158365941629036
B 5.577603639646771 6.113451266070779 3.1327320411001645
B 3.095291731740296 7.0192994998628855 3.847322986847231
B 5.458945112649821 3.8460486679698995 5.006346911587838
B 6.388715992460847 5.124317044536943 4.151273802523518
B 4.623283779588613 6.6099330897796165 4.677147039654013
B 4.019437901873852 4.7798100018864345 5.485094536563853
B 2.944040246020981 5.740151195864158 4.72179118255886
B 5.533653902419903 5.9571798659749575 5.94971289865734
B 5.066969515434627 4.2576803094667435 6.66085816513394
B 5.8471567640124 4.082596756792011 8.076546655927874
B 6.454802610980577 5.494715440376002 7.169343017057717
B 6.974433549932682 4.686493069952167 5.591354041425689
B 7.745430444711882 4.391525302339166 6.994959463172462
B 7.252546942486038 4.605845363254818 8.449560188869633
