17
Energy = -92.51471739 eV
B 8.549393990362308 6.57056192544593 7.199135403106965
B 7.3601701366502965 7.64336665448401 7.518544547595426
B 7.429084573139497 6.659964243668648 5.977121252864147
B 7.448277031120489 5.833386727604095 8.028516961351244
B 5.6085747066098515 6.879377641732028 5.657117083176952
B 6.392782270308619 5.370855166275307 5.684470460481242
B 4.886774211580505 5.743880657254404 4.622496667613624
B 6.112803094505397 7.9842880284384234 6.659916498992458
B 5.745337639504608 4.066605486365532 4.921794275091355
B 4.418716096711779 3.3257548656551568 5.466107338854687
B 3.4696678084345467 4.676756250881386 4.595715807023666
B 6.112887579060945 6.312214400478352 7.292787716164672
B 5.049003092559832 4.371025089763158 3.452689370116684
B 2.899572990256744 3.1573813973059717 5.167832805273167
B 4.047676921810348 5.766035227176686 3.235601830785941
B 3.3975451210588496 4.4507234523394015 2.7341576384261157
B 2.640710214771717 3.413965911050791 3.6607616984563562
