17
Energy = -90.49982841 eV
B 9.792219644935688 4.8921254725391154 5.7795188849368975
B 8.603029312667822 4.230242589167425 6.5931489134891015
B 7.535377648353285 5.879754759627348 6.557780441977484
B 8.58140967106068 5.750872913645609 5.317436409886879
B 7.409349071196221 4.557871721432921 5.227891559052433
B 7.0486403342401625 4.066143006268862 6.836585334067597
B 5.444581386301344 4.220000875478901 7.355348351474919
B 6.054844171269161 6.39927273279016 7.335480955146391
B 4.11748172746298 8.202343614144844 5.175901945465804
B 5.851975023874224 4.374946771356489 5.6499223435186705
B 5.1849577550086945 5.438084320353176 8.297624297077595
B 4.66897808901178 5.376022394482226 6.4853779542355765
B 5.034336850254449 6.973633314623928 6.022526086952408
B 5.030493372420945 7.153320402209072 4.341844865431524
B 3.6872061381137566 7.827857053874502 3.714934009167514
B 4.820185265646818 5.590827756843444 4.839146211396128
B 3.8323793459622864 6.2562376019203905 3.6322999639178866
