17
Energy = -97.50473469 eV
B 11.907003769422936 7.353886217403743 9.188840794761251
B 10.305714599637572 7.219341351039906 9.27444708618919
B 8.70973955391145 7.190219794679197 9.351960216311992
B 7.133840137991366 7.010548584844745 9.314655215716352
B 12.71106295690001 8.691384360958267 9.206730810975284
B 11.08458400986117 8.739420328898987 9.329058061946276
B 9.358798449286398 8.748098386501095 9.372994061264128
B 7.666176121133158 8.636186662621263 9.283085142593274
B 6.041859581056118 8.083350831608165 9.2416138910467
B 12.082821125957278 10.154300597430417 9.27444708618919
B 10.289609406251525 10.178069631660248 9.42781466953996
B 8.565520968210347 10.271926614229258 9.312202908722504
B 6.085356934267624 9.58625210095544 9.208438741437735
B 6.9154490700281 10.92402001904446 9.234357541129771
B 11.257968524177748 11.51087148012626 9.276285984159331
B 9.667787618655904 11.728211577919213 9.28598915433522
B 8.098551562245156 11.882824071085675 9.271852800663684
