17
Energy = -92.81191136 eV
B 6.275415075432981 5.814713147502003 7.609149770719101
B 9.142392493692812 6.184586142580311 7.59372424161422
B 9.621091764989249 7.88369778276597 7.590007541303581
B 7.250184390155249 9.592173462911546 7.601606609103057
B 8.38661063495461 8.669811134059044 8.42629840726653
B 6.706548430422652 8.830190705918012 9.028872202440942
B 7.5828601247965235 7.577181355033766 5.63782265035539
B 9.071659534149196 7.123379193800373 9.022826911366025
B 7.641223282179249 6.158860733166964 8.49036339047902
B 6.207150639168157 7.1949638811964345 8.516917799613132
B 8.377617900460013 8.668571225686112 6.766049788112631
B 6.1973086218336535 7.193822631250242 6.700472362228129
B 5.768257087279711 8.635078177389362 7.610182347827003
B 9.056393894734136 7.121433103669515 6.1643570114916795
B 7.631789075248663 6.157580939894249 6.713125645810521
B 7.6039157438454765 7.5798140338702025 9.564351072192343
B 6.691312914576341 8.828362086978006 6.181376929396743
