18
Energy = -99.00458988 eV
B 3.3612063039384106 4.950946386433408 3.5316962857295473
B 3.872378918825931 3.400112473502788 2.87653204142916
B 4.1610317418328355 3.664237228873324 4.618586753839792
B 2.66192266125639 6.21836061916873 4.436731292824643
B 4.816485290875532 4.776565700573373 2.8084456417864416
B 2.0604241804604375 7.712990472257182 4.766472898392207
B 5.654373582197546 3.6186252204055247 3.6257006769471882
B 3.558415878135932 4.9834454388125415 5.399832000705659
B 1.8734246294932106 7.277614512117959 6.262477069736489
B 3.60775483183403 7.628804703553277 5.166783332274714
B 4.631756173861868 6.451943173468807 5.321898733395702
B 5.166795065083355 5.134419153324076 4.421737494692312
B 4.352351682336103 2.167275551477337 3.7601597536043503
B 3.1137511108411657 6.253005493186116 6.288278018094615
B 6.5313210064361575 2.1879153839813537 3.6940136317011705
B 5.246187523965915 0.8671623630649851 4.040940475844848
B 7.743739023455425 1.2070822680214583 3.756786406586936
B 6.637282186881574 0.21763366113399765 4.067602868870611
