18
Energy = -101.05061474 eV
B 7.351108539554182 5.602084500006202 7.182502539192717
B 6.071811627033068 4.3615505966896775 7.219938609441713
B 7.047070201139082 5.77481245794045 5.635034450074028
B 6.747717616831688 5.887805504497698 4.062169264157616
B 6.383400592013753 5.69799200127435 8.387410461946972
B 4.345876451746485 4.786918043604549 6.783176106702733
B 6.071469331037186 7.28704006965285 3.5491200288606506
B 5.635609701781013 6.17853266439498 6.771413819792617
B 5.765618080261082 4.549934644183515 4.016736568237211
B 5.066028813755371 8.469575699487418 3.5942798720989946
B 4.874678582098656 5.349524849421361 8.148838229514253
B 5.591174567483566 3.411043181422431 6.001982324141789
B 5.082239655008503 3.057846538710766 4.56748252137406
B 5.344384921294595 6.4843332374612155 5.143241068776059
B 4.280587946990729 7.194838046369209 3.896886468117072
B 4.065150342358486 4.258698502461946 5.294453677348399
B 4.123717437870085 5.554377646953395 4.064571292246194
B 4.191849068244558 4.019797874388536 3.654510177494053
