18
Energy = -97.69472959 eV
B 5.610170954391093 4.894006410500176 8.222754350141576
B 5.835898778505657 4.305311697582116 6.765744188067187
B 4.412439436810121 5.95727673292281 8.341389371844251
B 6.081245316440867 3.927566811780331 5.18028988440723
B 4.208490475726003 4.723939879474472 7.193852181899612
B 4.2393800782724 7.312815384864121 7.496762838349192
B 6.499224254553229 3.678449642297245 3.675115953234914
B 5.578318616309697 6.161394161404991 7.046759235752567
B 4.582713348043546 3.78513143420993 4.15267691850637
B 5.144437902499775 8.903725711908105 5.420057497054745
B 4.398448028716703 4.1579483619826 5.731924382947555
B 5.301597197049741 2.5037642965913687 3.188251493249468
B 4.147353841813821 8.576317068236804 6.524745207657599
B 5.4408952370960115 7.51495874696297 6.176415682655816
B 6.171350167409002 3.7840487393466242 2.1271888189911663
B 4.288912197889447 3.935020954265562 2.5863269272945884
B 4.924511588864352 3.8249835479312346 1.1076927712950075
B 4.923131729063904 2.366592324589824 1.6607573420480017
