18
Energy = -100.89901739 eV
B 2.4933932278259765 3.10400795045361 4.9892492444455465
B 2.6091642182440973 3.3758292806684884 3.4693228029800967
B 4.054660799443234 3.6149080746255353 5.084749705482662
B 5.1184391411590715 4.678377573308016 4.310603369375502
B 2.6806013212488353 4.779467696775831 4.895425263521406
B 3.714719360034526 4.502282921691951 3.334197947656339
B 4.0864033122743875 5.269708947625254 5.816046688573024
B 6.616447377696975 5.40158960704107 4.755207300262228
B 3.68144065280869 5.959950029618173 4.219428809853561
B 5.222757654583163 5.977318879936488 6.780374570983107
B 8.148870626659365 5.612378649719801 5.130856896892845
B 5.017180246254109 6.528803909192382 4.872704236761645
B 6.994485056964211 5.525187604149915 6.471579362705068
B 6.269728987141727 7.179152350268842 5.651191205569774
B 8.829367760664473 5.957940373144093 6.530041110876427
B 6.401323195602362 6.710395736932967 7.565584868869289
B 7.965620391189941 6.378655591128966 7.760787692061365
B 7.6956602333172635 7.266200634793171 6.29984298800662
