18
Energy = -102.12947299 eV
B 4.883772597677952 6.962370544705607 8.434939761829582
B 4.057378542424117 5.6598176290096776 8.230008865814892
B 4.50212575572889 6.487196702898882 6.85739740890819
B 4.842327632014022 5.930859844173586 3.4484505926257674
B 4.260954617479389 5.623505616040985 5.276608423904563
B 4.52530012029372 7.217564955684945 4.220384749729985
B 5.830028641911045 7.514438193506225 7.292610888816432
B 3.9549803571209408 4.823329012408229 6.846066942341547
B 5.242988834934786 7.441188427987871 5.64574945564059
B 6.870673369994463 7.2591340291507915 5.995530362784528
B 4.6799044946215975 4.016072582557401 5.675762406164892
B 7.878313841662682 6.203848361631333 5.354315931722962
B 6.294245140029462 6.4996719696214695 4.578665064559795
B 5.352276047012863 4.64800138674583 4.279114241219209
B 6.154729098455359 3.3801783642430965 5.17699202697104
B 8.53130210631588 4.718834652375892 5.346948120288304
B 7.738709276097575 3.38860546372655 5.196075881750805
B 6.992176517826775 4.8307099211882845 4.727302802459771
