18
Energy = -101.15051043 eV
B 3.043994368437323 7.245955990567775 6.070035227818623
B 3.295328805641854 8.340981994735834 4.9739550313146434
B 4.553755136503529 8.205731155744257 4.029533295343917
B 4.703170623004593 5.566122947117137 4.97878205811412
B 4.158666592626869 6.176287140578004 6.5850205828959645
B 3.737205480353835 6.702480158263623 4.436972375103482
B 4.795208258454515 7.615503294553315 5.680383160948508
B 5.495591383642265 6.908825204759398 4.115951689476715
B 5.795202287873106 6.887317108637565 6.817645463751899
B 6.4507493364452735 5.5756090401434335 4.433163172006261
B 7.2347600588686785 5.34135803756768 5.999818264514194
B 7.092486717556842 6.278845197448759 7.46876529835196
B 6.55712793738508 3.940010825522799 6.947719528162042
B 7.032037400397839 4.117570682573677 4.568664440739087
B 5.370961853073575 5.044259601010084 6.541273268579603
B 7.861787892291379 4.952979956020702 7.781718211416055
B 7.606438273057777 3.2396861719970973 5.72054250957585
B 8.277950265725156 3.6488895979673353 7.064761611633993
