18
Energy = -101.14404395 eV
B 9.323032398876675 7.099238332594078 7.9624795341044186
B 7.1409991665290615 8.597250194468781 9.611802358488333
B 7.949838534719941 7.095156436246067 9.310923761671244
B 7.739363006219972 7.0488805083250545 7.5349725931556835
B 7.440821222626135 9.804165888921574 7.761669583460537
B 8.139969376239023 9.963722802121834 9.682886296790565
B 6.641987364749368 10.190080776849157 9.219378370609006
B 5.997329615262292 9.061076197636448 8.280892172474903
B 9.533563319367909 7.108994075644985 9.73851565476361
B 10.638818556774732 8.282902320018346 10.201510328065417
B 10.711178933800422 7.469139831220681 8.6706146586267
B 9.055377151796941 9.951053185323048 7.51788467295503
B 9.756910677588456 9.85624025905738 9.433786408700456
B 6.553858893171216 7.410584169314201 8.597283991518458
B 6.603828232430067 8.180006260275578 7.042111025083174
B 10.090240956774876 8.609138181924967 7.622274785410976
B 11.22482943537474 9.139523277374021 8.93702129710215
B 10.547882676686136 10.222676743762944 7.963822026007306
