18
Energy = -100.05003432 eV
B 4.592538041311607 5.529212239510704 8.439848092010239
B 4.614430666732624 4.198173313611948 7.630494811470918
B 6.140563181376598 5.080317950717141 7.87477987778929
B 5.428403677113638 6.597702915223912 7.672806825770572
B 6.102607300520848 8.854032874469448 5.503976968125771
B 4.95031127331436 3.2867090658240197 6.344604779775306
B 5.773319272735646 7.553108635978257 6.354152264247043
B 6.9349594858747485 9.676865633605539 4.352669836351036
B 6.7644417903199185 6.051224821831164 6.627121406657082
B 5.870377063861587 8.801162129844416 3.6866480318868162
B 7.393410312558722 6.914969782184364 5.455420870134278
B 7.604728804836138 8.278720190514118 4.66581828394633
B 5.516446428869581 7.401252652519393 4.367163774566651
B 6.335145270738198 3.5124620528156507 7.398217026329136
B 5.761781938829641 5.999195751136499 5.085276571282427
B 6.452402694855629 2.429836839967335 6.25440913597567
B 5.287189605639294 4.417847489617694 5.0599175551251765
B 5.82848444865195 2.9298533023748936 4.928314303171052
