18
Energy = -99.20430631 eV
B 5.681071098798913 6.444888055922286 6.4060609968585025
B 6.070019073644594 5.412314125695358 5.233706950941231
B 5.439623404940151 5.2583652874826265 3.7100005937029716
B 4.036439174317296 6.980242427457946 5.515743957119902
B 4.3457995153568065 6.905423255852879 7.032037883061052
B 5.222422586040656 4.057103117432404 2.6401029856097322
B 4.141015150985808 5.321667916805396 6.443805360388042
B 3.9380419932809656 6.26179090415476 4.07962519687482
B 5.172483873033539 4.046701994655097 5.553179579857398
B 3.6025999248205323 3.824626816912508 6.154060915858752
B 5.090226981813543 2.5649464293803064 2.0954161595292318
B 3.84620365124528 5.127505870752989 3.009925933632781
B 3.4165045239780656 4.554264451269857 4.60883189732385
B 4.287442543644984 2.082283428405292 3.61959909726398
B 4.020996780833235 2.8135506783515183 5.025196311133982
B 3.0427575606504047 2.228773299907999 2.3365917282190614
B 3.1441814827425603 3.5928953874872556 3.1641452449208334
B 4.240709908758267 1.2611957809593046 2.1105084365893094
