18
Energy = -101.6039394 eV
B 4.342463577516472 4.50770837274897 6.702309009010041
B 3.4005630105335207 3.1128333242531965 6.434483968783981
B 5.309359696754147 5.860251860033953 6.640727730614843
B 4.035064484369099 5.853182480304691 5.549917073480513
B 3.0534945487637426 4.331963773684235 5.30202388750538
B 3.4949963809464895 2.285503067555405 5.07422904573461
B 4.791230735545695 3.2882889224252594 5.443481775027764
B 5.6788599216945315 6.435183289355248 5.123017259463142
B 5.870853081246018 4.64050679533432 5.6284940278834625
B 3.9512329651326943 4.424555612369252 3.7347991864598815
B 4.492325882990457 2.788437635478515 3.7682532859806135
B 6.054489242005149 5.104976918913764 3.960492861238549
B 2.9363443038040202 5.605579439314239 4.309478377121672
B 5.929918564655159 6.743420331493418 3.466442766614659
B 5.990301644675029 3.547839793372219 4.390686055476853
B 4.353608698624267 6.180094131657048 3.7733044320725617
B 5.3267399799796085 3.993444083630265 2.7866447668998444
B 5.806372786308726 5.591424046754053 2.3706168916805854
