18
Energy = -102.7004851 eV
B 6.885637752810601 5.17469938942665 4.933630939117937
B 8.155991512381776 5.034219392607382 5.9784052314976215
B 7.32000490958869 3.71835895994929 5.794264396347989
B 7.66564407193816 6.552436012913205 5.700526736744499
B 4.287798422188758 4.053964665585099 4.322291419584012
B 4.617358093020967 2.639064740545193 5.3466551185688775
B 3.137696893119657 3.2946573634242093 5.345138102642277
B 6.199057455346569 6.753175345802512 4.743678073563328
B 4.513996359696067 6.659661763597714 4.756097313712142
B 6.143616731312484 2.6298257696197918 5.612464294635053
B 5.371700422474934 5.305652774387536 4.241111315243343
B 4.184067947351923 5.175775170143665 5.8474627375843
B 5.514558260321553 4.229184039106692 5.867453738539732
B 2.6392319968395013 4.742201160362848 5.111012737712442
B 6.794678932167857 7.8709522861784365 5.827634062217984
B 2.8827608606152113 6.3255406111878365 5.382717872688561
B 5.248755195584446 8.007641407939438 5.5995661497133415
B 3.628687220296275 7.673808839932049 5.70113397941803
