18
Energy = -102.07809773 eV
B 6.262434838256113 3.8199729438720316 4.964274416180588
B 5.725946301797263 3.306696133428758 3.528740887221529
B 3.4741716798914597 7.560733509960686 5.4552924389125454
B 3.2311645478404407 4.548623949349042 2.4943048672106505
B 3.514061191070477 7.430858944452508 3.845297996127324
B 3.247207773231628 6.091949331164078 2.9781398436363884
B 2.870295661139993 4.503610427874412 4.176610403664775
B 4.8444532064646415 6.185867421868836 5.6494541722820175
B 5.949009262559094 5.47015599689346 4.58505831983563
B 3.397936652375939 4.404806622715096 5.698631734466869
B 4.20868271663807 5.145456480692437 7.023866810067048
B 4.867372370269393 5.022208000826591 3.1825735807170035
B 5.36145460055824 4.381907217591416 6.185350294995187
B 4.433422516978503 3.4788266131448866 2.64594268167257
B 4.470033766796576 3.7199709421840694 4.582183879018048
B 5.000576706178859 6.563194886130657 3.8695496948945207
B 3.5843377365606393 6.59996310181418 6.697967277911973
B 3.0406980394819114 6.017067515666327 4.917750203299713
