18
Energy = -100.9458619 eV
B 7.068997209541977 8.549652175075083 9.522196872358537
B 8.549652175075083 9.44049474017533 9.477517923926227
B 8.549652175075083 10.95867271472233 8.549652175075083
B 8.549652175075083 6.140631635427844 8.549652175075083
B 7.103799464488056 6.824787933105536 8.549652175075083
B 8.549652175075083 7.658809609974836 7.621786426223948
B 10.030307140608196 8.549652175075083 7.577107477791631
B 9.995504885662116 10.274516417044635 8.549652175075083
B 7.068997209541977 8.549652175075083 7.577107477791631
B 8.549652175075083 9.44049474017533 7.621786426223948
B 8.549652175075083 7.658809609974836 9.477517923926227
B 10.030307140608196 8.549652175075083 9.522196872358537
B 5.764292350150169 7.7776524586633675 8.549652175075083
B 11.335012000000003 9.321651891486797 8.549652175075083
B 11.335012000000003 7.7776524586633675 8.549652175075083
B 5.764292350150169 9.321651891486797 8.549652175075083
B 9.995504885662116 6.824787933105536 8.549652175075083
B 7.103799464488056 10.274516417044635 8.549652175075083
