18
Energy = -98.74778232 eV
B 8.143545329085422 5.552354380342272 7.04051345948526
B 7.925100975380595 5.1900137562526405 5.555250178386692
B 6.60769071499587 4.401138950983016 4.9208294688486065
B 6.849223197689132 5.633616765344086 7.93265041401193
B 6.8084183901144275 6.490389211902815 6.4210344227638965
B 6.565918326579241 4.560889840378095 6.579708492821091
B 5.397298895083494 5.7102775675849164 7.254564073318988
B 5.4912132947814625 6.011705964042879 5.543889330115895
B 3.8880017178799684 6.036768201555053 6.650356801032843
B 2.4611977042534887 6.773914847646316 7.249579948728543
B 2.5193210163996844 6.332921646153802 5.789704895646747
B 6.1374184058963905 3.8817366029671905 3.4388180127699606
B 3.6906753536411436 5.685581046083977 4.925908714443088
B 5.18498587222794 5.357461492334864 4.068237875565226
B 5.262265309620155 3.185221244424165 2.259031678519777
B 3.78766181390843 3.71058047138815 2.3885595268127617
B 3.6139459941475653 4.90566228579707 3.465989631377967
B 5.032311919386237 4.807554743780719 2.547233064485873
