18
Energy = -99.04792454 eV
B 6.674909425264745 9.429402872858562 4.629323596871307
B 6.342575086779097 8.755751669425555 6.1780882884075385
B 7.643547858898644 8.376670767159062 5.1629559104650955
B 5.236326352608154 8.767129577073376 4.7817091328839165
B 4.149142064423284 7.611838284233511 5.096729576959678
B 4.973778910198492 8.082529580078253 6.591506580502099
B 5.145590266953801 6.281199751690441 5.823252615447601
B 6.9068741878157205 7.0721856489359345 5.763045157904665
B 3.775000875634791 5.499823235497447 6.9334717290197
B 3.682721009030122 7.037747777162629 6.51773130230586
B 8.966974533138954 3.4801341430226995 5.14325908876376
B 6.543284572139446 5.487512619698078 5.570781499589357
B 8.22719199319299 2.78160048315622 6.261904874938266
B 7.681581510617818 4.303100324668556 5.479927216730469
B 5.235515457151819 4.659398846846172 6.34872286386741
B 3.998271498483877 3.9601555937267934 7.198996205575781
B 6.744761485515952 2.7258118470917108 6.68430440247439
B 5.214941764359021 3.075581446523458 6.969097960601821
