18
Energy = -99.26727908 eV
B 4.239425851945274 7.519764380700243 8.35416689696432
B 6.309196533970809 3.8442186188078367 6.942319151138652
B 4.937776501271047 6.464162586800665 7.448507785707364
B 3.732201085676887 8.78141669710885 7.678995109580696
B 5.121715849565296 6.653749465031961 5.756104425289945
B 5.9842805968330435 5.387855032191741 6.610625931186674
B 6.283738679135737 4.244942794012464 5.318524536277295
B 6.354248997050887 5.92324979181407 4.8983017040598105
B 5.793335625128456 2.7924404518930976 5.951119789778071
B 4.405459804796554 7.890278110660064 6.623608261387086
B 6.21892236004393 4.923610631747695 3.671163195875189
B 5.792108600118468 3.90162128934841 2.4764162457051566
B 4.73557924427471 5.501488888688881 4.510997711330127
B 5.20922390150142 3.0516396634870344 4.451094015290323
B 3.8471375490706134 4.35825225101986 3.7266288017633853
B 4.667923731860718 3.394968822801354 1.476377416957346
B 4.466448388640027 2.8660563515662534 3.060675901648049
B 3.4253484053127825 3.909110524810957 2.233120381200267
