19
Energy = -102.83107868 eV
B 5.074435390433669 4.517695633151121 1.739164897853939
B 5.197709030071226 6.05188765781754 2.061851848958239
B 3.887453906773598 5.243380220690807 3.0703730808890306
B 4.460712939722627 3.5479548715185363 2.8121220065142905
B 5.68062047861236 4.81850071209697 3.342878871030097
B 4.226061139384491 6.952885412313729 2.890572866509446
B 3.4892575787164395 3.79290464917154 4.008314226377609
B 3.245899816878615 6.552460910777399 4.045564803205746
B 3.2672296595922763 5.16178585746113 4.834849899857165
B 6.188647274118988 4.87631288825401 4.931330355445407
B 6.187097430635501 5.965524373834591 6.299321981210697
B 4.65509986620739 5.096575020145016 5.903941417241406
B 7.385118433321174 4.5882589776793585 6.037038439926727
B 5.870438142041729 3.796357945090323 6.2789672177063975
B 4.78667678502036 5.94916461210014 7.440139260696142
B 6.349601260381954 6.493432993188378 7.916275981420156
B 5.128435098429122 4.237181026725686 7.654986135196973
B 6.81580710181851 4.7553410970860135 7.567373851847381
B 5.734444448685142 5.233140921743185 8.795678638958266
