19
Energy = -108.61505489 eV
B 4.4072274303480405 6.446697402249795 2.78352849305196
B 7.061408809043757 5.742762964987647 3.4855288905937165
B 4.106428261092366 7.134305392141796 4.168842188836502
B 5.6826987327906595 5.5534100785645935 2.5168541474539134
B 6.410381273999931 4.2290884088653575 3.1774403190683183
B 6.389306259676214 3.2806407899102052 4.506945452723971
B 5.439173334154022 2.9419036579952262 5.783634332683991
B 5.781757116350862 6.771686709084307 3.7353734353733725
B 7.473160944994352 4.516807630032665 4.430053552897316
B 5.368550036185434 6.820045597203958 5.357140848310887
B 3.7375866832803726 7.170797497945573 5.758167115404987
B 6.6210225854597 4.3340840331876365 5.8534571739550785
B 4.084471829477237 3.0864480284323075 6.611225340921842
B 4.915896312772299 6.882470411823567 6.9123612283632525
B 6.093408321111303 5.678558535367617 6.661011764864385
B 5.318407968179872 4.18484178824972 6.9641638868171825
B 3.4407458234012185 6.040394839684037 6.933323853778171
B 3.610539504412206 4.4113452366794625 7.330028660084752
B 4.815123458044658 5.531005682368754 7.788213999589899
