19
Energy = -103.46809098 eV
B 5.741399452138837 4.210894061732192 2.255631183714877
B 5.972796601103499 2.8670702704256454 5.015670627963062
B 6.177914934932952 3.8205792562349448 3.7804345625456026
B 5.307298201818011 3.2745995650972555 6.359975198709978
B 6.225641619633476 4.672194703337647 5.421211962838449
B 5.1207793055509745 4.40044813966864 0.8517014536116843
B 4.3516126518132925 4.136425782447797 3.3895085238269966
B 5.751543666663511 4.391976189789616 7.369666749490767
B 4.008306105291276 4.279961229722292 1.863128252094205
B 4.715337207565745 5.798166630821874 5.300705883954608
B 4.54661257961947 4.174553037981727 5.050091176132174
B 6.50504864173821 6.079947929542842 6.29805989041076
B 6.033899958541923 5.779159737293818 8.053621836435632
B 6.429246792141496 7.883159182064468 6.221235722001959
B 5.4454510068177715 7.182694702707006 5.176525005355747
B 4.8192490014218885 6.750284936617829 6.91531672475856
B 6.654747377494311 7.206288910195405 7.875666423961706
B 6.486790797808509 8.802217951041369 7.6077659123564825
B 5.037490648571735 8.270761036926077 7.463894792211388
