19
Energy = -107.46432771 eV
B 7.811479111628297 6.172979987724793 6.392920117757234
B 8.631816972878331 5.609873023409836 5.178276566921873
B 7.5905827418145355 4.424975200548923 5.815293831742357
B 8.29722329399854 4.444246673429732 4.1926344543317775
B 5.803863847627015 4.785663625556061 4.4099162139202885
B 6.239145170765883 3.5902527477915296 5.916999957939099
B 6.7374144447095 5.947725119764009 5.073580725063167
B 7.088434800887302 3.421697627629838 4.282482577499678
B 6.495190376920023 7.079181275402514 6.467363286592472
B 4.146617303354214 5.35522199874566 6.406715918498004
B 5.505277548050275 3.068121241744292 4.269346976206242
B 5.456718816526195 8.236693017411593 6.718485682949201
B 3.977921371680102 8.690217191383038 6.6665138001222415
B 3.397631102091747 4.842027568730108 4.977690420117708
B 2.9677386894431117 6.280981792040186 5.678256403690854
B 4.6903835393079065 3.957735035581284 5.710959388789969
B 4.239994929331785 6.964258607087051 6.663797281466385
B 4.1338225340486625 3.7980919601886205 4.047888679422017
B 2.907159035766231 7.8347320636082065 5.961128484715496
