19
Energy = -109.95792054 eV
B 9.177228510833748 11.125623167582816 9.183405389963665
B 9.189641870712569 12.285362665937308 7.854451434396076
B 9.232154668025904 10.858531201863157 11.172374691954106
B 9.232154668025904 10.858531201863157 7.254732608045894
B 9.071567770501586 12.90203080718428 9.183405389963665
B 9.189641870712569 12.285362665937308 10.572655865603927
B 9.261573688042125 9.40087108010447 6.6206708971490045
B 9.341144136736643 9.550607787536244 8.388601164021106
B 9.341144136736643 9.550607787536244 10.038506135978894
B 9.261573688042125 9.40087108010447 11.806436402850995
B 9.248756774348548 7.982149259570489 5.997659616157976
B 9.072961046755914 8.091219619895625 7.620674755267937
B 9.262884521738181 8.101458405591762 9.183405389963665
B 9.072961046755914 8.091219619895625 10.806432544732065
B 9.248756774348548 7.982149259570489 12.429447683842026
B 9.232154668025904 6.651342505307688 6.820660790101441
B 9.21318674583389 6.560182304587284 8.423201087468076
B 9.21318674583389 6.560182304587284 10.003906212531925
B 9.232154668025904 6.651342505307688 11.60644650989856
