19
Energy = -104.26261312 eV
B 7.009854823435628 5.892706060048582 6.8716954722070795
B 6.598914512203865 4.389817065571283 8.254048622076262
B 6.568504449922829 5.923844267688265 8.38433720248445
B 6.478222772289577 5.290913913827161 5.4808532884258305
B 6.288592912663583 4.055834702818632 6.750301112266461
B 5.258063253918785 5.431068043621982 7.306418469673617
B 4.678257935862279 6.123688831453888 5.970097131298702
B 4.865723678470095 4.355567287744487 5.896785927429475
B 4.296728627321208 5.6547065864580315 1.601048752971687
B 4.82225795947858 4.6409855003383464 2.726595459855684
B 3.7849790040358506 7.107336185681908 1.9217290600716297
B 4.0812265615959475 1.8289072091945537 3.9482630930658904
B 4.319960648271109 7.034058299847619 4.672737697118286
B 4.148179963172736 2.9550861876578307 5.3691363732126876
B 4.5401141063835 3.187204696524683 3.386152207382388
B 5.231210580532199 5.423510949969171 4.407992790569897
B 3.520666254630152 1.5395808823646828 5.32018367679223
B 4.55882282890473 6.256941970261563 3.1440542221825276
B 3.8109304834201287 7.765190779570186 3.3492987334065463
