19
Energy = -107.72914848 eV
B 4.530670682091542 3.6380487365348118 1.239815662287232
B 4.182769731089085 1.2182549598888481 4.824312563499626
B 5.300486740080828 2.9491369900771516 2.445507558348534
B 3.4207696921099315 2.9365305200226457 2.4101712305237672
B 5.2495247829080505 2.4817371558978647 3.992308275155679
B 4.956907454954287 4.941735663040578 2.424295785727387
B 3.9460955346215347 5.113488564861217 1.0560259014552167
B 3.385540986768703 1.8010797719156346 3.55866614326728
B 3.4463511921257246 4.78749680790293 3.3214923793077613
B 2.5754227334499253 3.379773602560602 3.7758802781271683
B 5.2865305987660465 4.350767776009978 3.9098259883726985
B 3.630039591509313 6.156566140818014 2.2120328810142103
B 5.000633364454156 2.1935720141958424 5.715799305087031
B 3.142005480181607 2.593137925191032 5.26316002485716
B 3.7840573218188043 4.344201217325462 4.98890172835211
B 2.2948963923421593 5.217759777523448 4.601389104264209
B 2.115425270488281 3.7889243225001836 5.387277711054367
B 5.347153531371913 3.708771517994149 5.3589255037511485
B 2.6293820321539396 6.329152542401 3.4533040928659506
