19
Energy = -106.64061814 eV
B 6.907523092837096 5.58378945149353 3.9258057706883447
B 5.487862867296282 4.945012062002791 3.080707282456258
B 5.649188610170377 6.537044971844336 3.6975021121365184
B 6.598713735533655 3.7564894641390154 3.0564430701082115
B 6.996685549241883 2.6161738945337123 4.045392118875412
B 4.320856550272904 6.902299091449537 4.638390072970045
B 7.29438389902151 4.263888575085948 4.717837239453044
B 4.117387449088591 5.796646284712855 3.4390954172400283
B 4.192912947197008 4.304169061630978 4.270282384082022
B 6.887842778295216 2.8652957151110336 5.604054498259336
B 5.5396756807292435 3.4370446405414317 4.641879775925723
B 3.068599161809441 5.487224519853417 4.6374378857604315
B 2.5412963174658536 5.8466242682371945 6.138834375065388
B 3.971718504064326 7.164721228473775 6.207747556018022
B 6.250643250191979 4.196657450478079 6.185848632260325
B 5.319260878390669 5.13264918960958 7.130367527556254
B 2.9922102888141824 6.692919696508213 7.42314036235333
B 4.618833479096158 6.522084697483253 7.640518318082594
B 3.6393016305831534 5.195703786619652 7.3084536384432255
