19
Energy = -106.52077281 eV
B 5.4105510015326 4.3601471129751745 2.3028735911878337
B 3.917386920558506 4.932395495839918 5.06478000919615
B 7.018696514208402 4.527357639124595 2.533737467013854
B 6.080220370482355 3.720736896546663 3.660758694427948
B 8.106185508024815 6.131377667956258 4.463727328778456
B 5.13123213767161 6.117192024189899 5.227265960166321
B 3.855634276464636 5.935298801980728 6.381052159671925
B 4.505229934455707 4.348313218510073 3.6535409708083595
B 6.813382069522779 6.107384316782953 5.432532816419219
B 5.701820569005371 4.380930042867878 5.138543502754628
B 8.246182969239019 5.411345388459919 3.1068632662130873
B 4.88758102140234 4.471426829096775 6.537934575442763
B 7.257654220477473 4.740631893087557 4.286012818437336
B 5.784239622123021 6.99437832440601 6.449172819086688
B 5.369276681181109 7.889224195829342 7.737489213641317
B 4.6054156941849005 5.149082659973521 7.9893699336370405
B 3.9240875486768587 6.798318888295547 7.7619349230801555
B 4.530983528533219 6.142601593720444 9.231070905069961
B 4.584218182306299 7.680727292753745 9.051074427016301
