19
Energy = -106.62063234 eV
B 5.542335229322528 5.13870312527158 7.1509513719437034
B 4.993275477449427 3.8757515850312405 6.391998339016879
B 6.68875132503176 4.536787578525702 5.959693739629137
B 6.796635907486635 6.0981691503250905 7.017970143997575
B 4.8533658991457855 5.152776120068118 5.279421790264624
B 8.034327456840016 5.84797559621477 6.140627055401486
B 3.946527020476004 3.6095614893429673 5.191519236478041
B 6.700530242862417 4.483945416409416 4.109276971287901
B 5.23558832837825 4.263658778772463 3.458957328528642
B 6.62131057673501 6.229880660352226 5.127217137184078
B 7.9757141998011525 4.962411903672982 4.845534263762424
B 5.39394407812845 6.26513347528737 4.079756871143573
B 2.4848302389100616 5.271892488647957 3.17229590056025
B 2.517810974533255 3.2325093768371045 4.505216489157154
B 4.020591921558947 5.624818688854593 3.695995644706281
B 1.0020931146414946 4.71636913767415 3.0931316187102547
B 0.9969809250010725 3.477350597997814 4.035818252465435
B 3.769920852524669 3.6964711689688787 3.2224511711700976
B 2.2149834274480256 3.5725510659151065 2.84895969386829
