19
Energy = -107.29890031 eV
B 7.2941698691233885 5.1646049031885415 6.355084801746101
B 2.935524172291708 5.205431693187447 3.9481572830391247
B 3.399930593343482 3.775757336646664 3.4946027209034023
B 4.586318610534812 7.251524651351344 5.046055966579261
B 7.19958082852648 4.070933993802388 4.990473591802087
B 6.3043288422579 4.867367878277674 3.6745034357980035
B 2.8261684741733717 6.583306226357625 4.843008768351775
B 4.4482803438671255 4.782508627411621 6.5599264913789215
B 4.712658604806639 4.9548598153666665 3.542709443807445
B 4.75322467950753 3.2544309611217486 6.025774537876592
B 3.709430194735568 4.228480382399209 5.157879105136352
B 6.085064630162166 4.07397244769635 6.439105241020301
B 4.63773754137145 3.0129034923928892 4.2036503535105725
B 5.620617067910954 6.2979940266750525 4.222569282051328
B 6.050497980229028 2.911875831284869 5.0393073169712865
B 3.295879368395621 7.585995166921781 5.90702652872915
B 4.241325283189458 6.435716637890985 6.592692098107439
B 5.854147999909926 5.947210288478053 6.356833859524154
B 7.047730690831406 5.701716520259818 4.83532805880088
