19
Energy = -104.60082705 eV
B 1.0456009603442686 3.8785728426424315 6.535438330767484
B 1.7667922445225754 4.263711664584743 5.215609848841068
B 2.6872556541229073 3.243894404916561 6.449707844582181
B 2.0074461932705643 4.5169951778165665 7.574884086744167
B 3.2917175787231012 4.623144711332012 5.326473251570843
B 4.242840469554926 3.294709913538137 6.314690893252389
B 3.53916042076684 4.750608408545596 7.258275963207156
B 4.683291624161417 5.049327891360459 6.133816492312618
B 5.8077771916087695 3.638948254716206 5.902663257401046
B 7.292763845511122 3.917882087009627 5.455790956983252
B 6.4323369590107085 6.739646567222735 4.73319216108079
B 6.708816515713919 5.923723247817349 2.805527538060657
B 5.862107188631961 7.544320275093585 3.4727051897513315
B 6.275223725398124 5.336216990899399 5.617860574928599
B 6.635434667104653 7.398080168554285 2.1198947083049124
B 8.309099030119947 5.088125944504946 5.341129668319881
B 7.0705367128215055 4.990741615053316 4.041925715676272
B 7.61660866077579 7.386867571751854 3.5386212750404833
B 8.33863115741716 6.476393475812543 4.568646769604089
