19
Energy = -109.60983916 eV
B 5.427460065946207 6.185501470435299 3.358384003342714
B 6.260603138130599 4.932678507859271 3.9536091597702763
B 4.956059251090306 7.500053506840354 4.173319507635687
B 7.32271807649249 3.9080314882415697 4.619451821115449
B 4.811270702560917 8.85807408034941 5.04294689054966
B 5.5228913001125015 6.091872270077426 5.010278652400763
B 6.531858731609902 4.9216848876418196 5.659962633438594
B 5.214574724974638 7.490975235968457 5.88426519600781
B 7.870859660731425 3.9394998630832805 6.145243309408095
B 5.268994048497541 9.072782552935903 6.583310378218905
B 5.887228057105143 6.133542417718125 6.684023902623735
B 7.146718832918545 5.096959152285421 7.209196348232767
B 5.848748684901571 7.67685753255405 7.424058104281067
B 8.521325931646315 4.259786955231029 7.595217716434184
B 6.015798367538412 9.212982413602624 8.016039860565845
B 6.775140641589108 6.460420029543793 8.1129939945585
B 7.8323537659547515 6.893113305459316 9.31412462486165
B 6.8270819815165975 8.051602713625703 8.799459803246117
B 8.126204305129326 5.481471884993316 8.582004361754345
