19
Energy = -106.23220187 eV
B 6.312072844727508 6.908961942977242 2.596178351650795
B 5.750259471456081 7.779970417352472 3.9726425907282397
B 6.886004899802181 8.008764673235445 5.055832853260566
B 7.500613016928748 7.52801951115173 3.484506033155842
B 5.910539899352847 5.52440121120078 3.4472062716155376
B 4.452730378722609 5.70366300883899 4.300364726975099
B 8.387120432977476 7.4672197479064595 4.811455075567406
B 7.595995095669389 6.621394915886155 5.843425238503259
B 5.8702471079056995 4.686449463170265 4.814004240057523
B 4.785603694565802 6.746337922067559 3.1353427988459566
B 5.356828829524838 3.638856177445645 5.979222039761893
B 4.078601743307799 4.9449991734135335 5.731817163916398
B 6.414950875998337 5.621171353882014 6.302224733400142
B 5.442305327686141 3.071880751195502 7.457186567854811
B 5.29745670394319 5.0211545238431565 7.421020461565085
B 3.9435636129794234 3.844379156516377 6.979434105468064
B 3.5088395934759338 5.559520659641244 7.150598969902921
B 3.8448399033683813 5.001740111012017 8.564725620173851
B 4.752988006119008 3.755877852840122 8.685159491689545
