19
Energy = -108.4700895 eV
B 5.020771837835128 8.237775028337506 7.402342315851884
B 6.734210943840871 6.640288843571159 5.772167897286388
B 2.5715889490603843 7.127226321615122 8.283258213025224
B 3.697987474987665 7.086949839661925 7.075169929064809
B 7.20752343106683 5.1865892728057545 5.0883800981438805
B 2.769524597288016 5.7603933360555875 7.516135070210343
B 4.1626619358599894 4.691907901570795 4.9050744297334665
B 3.6629943052569804 8.251819307591635 8.290703633604645
B 5.208487372192916 6.774798649150389 6.454174832300838
B 4.4180746857918844 3.794886603580842 3.6269540307339128
B 6.382067870410475 7.946935679913355 6.609001525998952
B 3.9138603798879688 5.485004219547624 6.371220095398015
B 7.331585872831952 2.8856089742608977 2.686950277706254
B 5.807246106063868 3.353718654829054 3.004990154003023
B 5.546063030230773 5.272986429218101 5.81679098517022
B 8.626708828880837 3.3992767939764916 3.372086852027718
B 5.750027590425974 4.427731342069046 4.384353470659683
B 8.516723072466407 4.28538807801227 4.661546427650566
B 7.213357490018661 4.306817023813594 3.5834352035786803
