19
Energy = -106.36099874 eV
B 8.371224089898917 5.373074701180915 5.5664595540501836
B 6.942999453792604 5.866367638101726 6.0768965074810595
B 5.472605229422846 4.717638122683458 6.242683554360932
B 6.230172389739334 3.441325247068869 5.38188702610429
B 8.833613918605002 4.3679322492501775 4.492936863003004
B 7.22398578609027 4.973899279993639 4.321574601737575
B 4.04313932231283 5.453245563303108 5.86741215401122
B 4.721355944561962 3.79780103405927 4.7992673251275155
B 7.736304441721034 3.3588863424040882 4.870705576990351
B 5.482527400890921 6.480767022733538 5.843085693479156
B 3.3171448532507863 3.3875190528313994 3.969609874195859
B 5.577500883163488 5.4323530050734785 4.3120308729349786
B 3.944203794123483 5.075061303705497 4.0190052802815135
B 2.8065897386791656 6.25007454749424 4.848586493464892
B 4.360484060416755 6.776267997115949 4.709178996617052
B 2.288647872013564 4.7876906338845195 3.88292636750279
B 1.742762905657842 3.1946686950291094 3.8995249138554455
B 0.773441722082088 4.325772904387447 4.3723972802302
B 1.2842256544777944 5.729201400534325 4.883347563586203
