20
Energy = -113.64628254 eV
B 5.9603259492267355 5.139120786506385 2.192985976650849
B 4.375884556948565 5.680403787832055 2.342512494944746
B 6.2125991389436654 3.664566398194318 2.8029046686844112
B 5.665477613737241 6.500222138436237 3.047377082054631
B 4.647537747388919 4.086802413845937 2.3913705250234694
B 6.295888389065644 3.85297230326749 4.407562343204315
B 4.157092912971028 6.492975355757609 3.696242377491818
B 5.70117368205869 6.617440089525071 4.722603340529461
B 4.919522943321825 3.17645369699371 3.73563182471809
B 3.809142159952264 6.29658606316018 5.248904174231119
B 4.819941500687336 3.4582855632419895 5.344446531800481
B 3.8267462675366692 4.732765925921673 6.0287328023812465
B 6.533437873747093 5.082469609873957 5.458661819931785
B 4.983851299352692 3.722711012496745 6.9156454606376085
B 3.663242694279892 6.234911579264554 6.853137296593117
B 5.140913122563943 6.979881751391896 6.228080105821104
B 6.5567763526990674 4.876619075274681 7.0925201414074275
B 4.003259080711408 4.9189534987777845 7.7661487089790455
B 5.254915226891234 6.030023043890858 7.563864817844889
B 5.559073015948574 4.542637434378903 8.247469035102588
