20
Energy = -113.89938808 eV
B 4.335971311632545 5.188829435990717 3.490417139270101
B 7.338476799238175 4.135343999352027 3.7054422509389857
B 5.893217667683911 4.840347841089769 3.376711470758863
B 5.956786596999446 6.668515162448343 4.20595305132028
B 3.3101026934717517 5.371720000905227 4.6918576970600006
B 4.811614376063641 4.307384632734097 4.78828346064114
B 7.316628747423547 5.801976735267013 3.8436386763794363
B 6.521512653441141 3.625381674970259 5.035584042571023
B 7.376016332540291 6.424131180103042 5.367743968667878
B 4.520236000632204 6.914700813732519 4.927808987207599
B 7.806452040934076 4.851584562241385 5.141856766722133
B 6.007099493408993 6.699709022125638 6.0865106197081795
B 3.95817074786719 4.11337313738246 6.4122849077881625
B 3.265419114397003 6.607719253137757 5.972843356249211
B 6.800032872234865 5.029796087509426 6.440964251735981
B 2.639086840701923 5.068570574565475 6.163903126863899
B 5.293042831643036 3.341724170941649 6.021086427799202
B 4.634377360100143 6.972292738041809 6.803965738202976
B 5.365545315459122 5.2742212540922 7.1640304973713365
B 3.7521960246681623 5.66466354391005 7.2610993832847734
