20
Energy = -115.35270116 eV
B 7.233096035409293 6.219884910807463 4.02246566190525
B 5.97061186682241 7.049043522364573 4.6121991706438
B 7.628195971784451 7.689771738855707 4.7570085167910365
B 8.32280491666543 6.180349926910814 5.285518464508539
B 6.591910996560065 5.511551144547352 5.353094680181182
B 6.330804355372014 8.666149276641061 5.439595286316758
B 5.156365675424457 6.321896655499306 5.986159094204868
B 7.827593517873118 8.954256865073761 5.7963047491185185
B 8.711606742000304 7.714229252719202 6.157606563935653
B 6.077640521766866 5.062334950089306 6.890916433479158
B 4.080091795104212 7.347408542789819 6.856300026231378
B 4.8543830809920685 7.900127375511345 5.52485199122731
B 9.235852183821166 6.19708845724266 6.69849654406839
B 7.6323813151127755 5.649338906817864 6.791608906612091
B 8.792440712590553 5.313869994004915 7.9464858504306415
B 4.6547397557541395 5.833686370550187 7.509837246371158
B 3.6573526038572988 6.846925214534844 8.335974971931998
B 7.25523248591085 4.8941611892895835 8.258474535152054
B 5.6678043291386695 4.965603554439567 8.657182415345394
B 4.324785576537835 5.688016589808918 9.125613330043587
