20
Energy = -113.77155953 eV
B 5.057082385124604 5.214313207470654 1.8154993683606606
B 3.4392320651647026 4.795241770090408 2.116037954572387
B 4.73640663597712 3.543924183590875 2.1991851956353146
B 3.21223498384594 3.0425003381609375 2.1864993929429892
B 4.066156720573824 6.385262670035998 2.4039405362066257
B 5.322154455980219 5.978416101839927 3.3804463404783722
B 6.000760751466089 4.40003177729223 2.892892801588966
B 2.2427853393373156 2.4040717897189943 3.3688474296322375
B 2.4496879282228337 4.114669665515352 3.2519697370567218
B 5.481104127248778 3.313568365024898 3.9348152623029504
B 3.413230529345984 5.905288242235209 3.7586809172606963
B 1.8321471288701565 3.4874949738543117 4.636106997386061
B 4.77739303151997 2.4484290393337216 5.144196387053543
B 2.5718981609250764 1.9287601421453289 4.871425383830824
B 5.885239057443811 4.948660636759531 4.483780611903101
B 2.674062119664732 4.921191757369991 4.793674661532434
B 3.5142514069112027 1.8873209454366062 6.128333969980411
B 5.23856649376553 4.065622340523441 5.706151263180597
B 4.445151718701033 3.1038248762849334 6.685059082124237
B 3.1195633139311547 3.5905155313362265 5.721565060990618
