20
Energy = -112.97619317 eV
B 6.838065269322288 5.782108063073862 3.6482589985518503
B 5.410912394514287 4.81368866954799 3.1525978681244813
B 5.567742594580103 6.862373226331523 3.7579416810212334
B 6.538236442694349 4.132060357044903 4.116147196779026
B 7.458376610058836 5.393007823309729 5.058665107832615
B 4.150416006652854 5.732917968937354 3.437192065781488
B 6.84249493666797 7.010213127031129 4.854672120406303
B 5.371333808455395 5.334260451374224 4.851689305863134
B 4.060178105542839 6.802207635740208 4.564171700782018
B 6.887756372040771 3.974126201503086 5.755436277860177
B 7.027200505732948 7.607883482115502 6.363566631952544
B 4.121650656058006 6.964319472708207 6.216674625918422
B 6.5987140436013245 4.114841182980547 7.358740923819818
B 5.20522597259268 4.965027610943321 6.53342419444553
B 7.064023276208173 7.178199595343839 7.874811979191227
B 5.486998030122621 7.427922232087072 7.185136801218517
B 4.331329337697009 6.106297561260839 7.519106131308282
B 7.019225574425125 5.508936981492148 8.130151982978681
B 5.3765294646444906 4.856884448681095 8.163188979802898
B 5.684842989058253 6.473976299163459 8.49967781703208
