20
Energy = -115.75704133 eV
B 2.8740529647740267 7.079622099965511 7.90856524503259
B 3.3424737966907516 5.605273494268532 7.436311351121429
B 3.591158889204474 8.453770205431516 7.700990216394736
B 4.159436351523027 4.250756031456816 7.100176525378755
B 4.038278871618873 7.172671621036815 6.730549490521037
B 4.829490829554736 5.6656819070062845 6.537025753537111
B 5.6149529883574045 4.086859456826037 6.48210831846993
B 4.999667024160195 8.695877605244288 7.015136995046299
B 5.610408958620915 7.14682150176128 6.197181027368343
B 6.465396329685163 5.6325784600836695 6.4136127452819505
B 6.5537384637384655 8.670332539539693 6.5869526731887795
B 7.2069993836460755 4.060869627815883 6.104250935770158
B 7.175845748028283 7.120003174671943 5.8241609707680855
B 8.13751807465198 8.641212390481716 6.2857791291677785
B 7.980393812284509 5.615714915594116 5.781005521789541
B 8.788959199539436 4.177779745861565 5.999536321015535
B 8.820069025980565 7.095924212576908 5.598771430539287
B 9.697157628531388 8.352502545711053 6.257524883294088
B 9.710894419976897 5.503505998892483 5.914073959929975
B 10.390626677864178 6.959761904205391 6.113805944816378
