20
Energy = -115.48576893 eV
B 4.216727905105426 7.581605342358977 6.954164694550735
B 4.349643621915637 6.322338942562602 7.95891124032685
B 3.7598826102068363 8.506252515770557 5.726096337490876
B 4.731952727433673 4.882142361981512 8.386382491086321
B 4.552819601003592 8.811437756625976 4.436958881589447
B 5.3951972912827255 8.248934864600047 5.775417216637038
B 5.97813561052018 6.022578194963945 8.314559269575236
B 6.22356509114981 4.279116274982099 8.446236221730487
B 5.98639036942669 8.323316014605524 3.8974693659182504
B 6.30645203652149 7.410648229749651 6.886431763984491
B 7.479779198599806 5.379258461054284 8.668600015540319
B 6.892787006868854 7.5624667925183715 5.186633417568844
B 7.443840174715358 6.832740533021267 7.922099414502292
B 7.657016543133291 3.943842256294951 7.700748427402889
B 7.304855467815258 7.506217836463906 3.586987126358467
B 7.82976277229272 6.7553208868855785 6.271762610777381
B 8.351733706576262 5.514401819856144 7.255690347232874
B 8.163846669997174 6.611273848081173 4.571477092307715
B 8.626910084667974 4.072440477262535 6.425261127343685
B 8.72013891252324 5.405103992116651 5.599550339830909
