20
Energy = -114.42945762 eV
B 4.580508273183362 4.233038132317433 2.4417969011228857
B 5.119699992853631 5.838719826705045 2.4931900185885247
B 3.546236390509244 5.664893025312947 3.062269659265037
B 6.197363312323279 4.572611742791552 2.395087430125513
B 6.639035282092504 3.6948054974033058 3.6436758917491843
B 3.3241222130994883 3.6679782724137326 3.309295770959226
B 4.719456288377565 6.522465725885772 3.9850468035474713
B 2.220823421263739 5.046817038464132 3.7441540508199056
B 6.398490251471827 3.1406639237859286 5.153413429899703
B 6.131508423832422 5.5219370896275475 3.811249056468541
B 2.001667187491742 3.437471312810264 4.342133885253236
B 3.6307101946209976 3.039227401334423 4.871627091110756
B 3.7228230277939782 5.477973450683846 4.919036630449429
B 2.1825746796315797 4.819165909461822 5.3929061708143475
B 5.416377195500554 5.9151887814979 5.303613103977497
B 2.214150347775819 3.264004237350833 5.963108068848554
B 6.566366440416582 4.756021815571438 5.311080457286718
B 5.061634834901877 2.5694386170069246 5.907701357740815
B 3.6404889328352463 2.7376803238575653 6.530375647993399
B 4.885782379436592 4.279716945129956 5.61905764339196
