20
Energy = -115.67517449 eV
B 4.062815858251706 6.501056403221033 6.131188174006903
B 4.141746055515035 6.501498753836693 7.7719123514588855
B 4.43308789151515 6.499930975942792 4.552747813700784
B 4.9580649340322305 5.2154357074219915 7.069093643269833
B 4.959060876709591 7.786586567827568 7.0692488195440895
B 5.0410421919125055 5.239613958754255 5.251829240740133
B 5.04334809909725 7.759019062750025 5.252001813211741
B 5.701989110019208 6.500459469662692 8.129870639233655
B 5.92320597399427 4.213872416624138 6.199768227140926
B 5.92538575752236 8.78594850422196 6.198894983391687
B 6.6685747438861 5.251701760888893 7.244158306235942
B 6.67026380910728 7.748112124290527 7.243684601294464
B 7.361022538036599 6.499697928039607 8.162421034036537
B 7.572054004693857 4.373952393311794 6.062673286091552
B 7.575501078227788 8.625184237034393 6.062829658082014
B 8.343046350782473 5.594494606764961 7.12661937415839
B 8.343900131279481 7.40291576505198 7.124271110790133
B 9.000233113686246 4.941622010085049 5.771353411091505
B 9.002076716432382 8.056529798346935 5.769587097488377
B 9.269403577385688 6.498190368010561 5.801669227119911
