20
Energy = -115.78493096 eV
B 3.5382498544673258 4.822831808200381 5.255775758863501
B 3.8564696847916076 5.970847689867086 6.2555151278476515
B 4.005850996102496 8.569226703646112 8.105468186573095
B 3.910519012335501 7.246488239894128 7.207012951033315
B 4.387229330121967 3.8965607080138054 4.392534336362486
B 5.330708324630523 9.283292479690354 8.494488064576172
B 5.29651281886958 5.095024001666347 5.442023602468944
B 5.451866126694366 6.5172770343720705 6.613710656176006
B 5.415561259438099 7.920481308816928 7.59780131315424
B 5.903188652578367 3.8062975007788964 4.341293302436387
B 6.793851389247033 8.77968812571533 8.080108923691594
B 6.916657633702197 7.2866432960137155 7.0669533962147115
B 7.03846280695621 4.588320791576572 5.037643245552148
B 6.928963570632884 5.919225336207263 6.094249715463056
B 8.230208408324284 8.22593165133361 7.673269410647049
B 8.382528082888431 5.204692156145445 5.572053698531125
B 8.614458834576986 6.694125687990126 6.66611138759916
B 9.834830132990167 5.6017631903370555 5.9156066779601275
B 9.72504378949748 7.856284436780482 7.458507310637031
B 10.446331484490244 6.722490046289635 6.7373651275481
