20
Energy = -115.95577052 eV
B 4.012338898125604 6.244775060307703 6.103331818276765
B 4.1441484396752175 6.67224497973378 7.7277258828766024
B 4.445668173534784 7.794950466570299 6.6254407839540725
B 4.47242396201188 5.1201913030169655 7.159633819820204
B 4.61266851748879 7.35654653256264 5.028288730216671
B 5.235148467767283 5.793789267060967 8.506919363845823
B 5.671087045519593 8.436069489964309 5.7570838820550705
B 5.820311825842168 4.40403743763996 7.814509470547537
B 5.958977863621138 7.719787952608988 4.179010374482814
B 6.819074754571377 8.161431068540942 6.936021739045075
B 6.852758424379534 5.553929074682145 8.469594161473234
B 7.267105192202912 8.003523053047761 5.3027988210484205
B 7.288133942181354 7.081656269358874 7.961293461307457
B 7.40408743149751 4.1943565451810505 7.489003952982682
B 7.44116373692731 7.348044005460382 3.771784428582069
B 8.182404990545376 7.221092601559565 6.523651403025378
B 8.189998809056993 5.751137077657467 7.4086603768250185
B 8.536641407239655 6.9438436415943965 4.815733156295916
B 8.642386116361012 4.403192961220136 6.528697901599482
B 8.99120922506565 5.783138435846425 5.878553695354734
