20
Energy = -110.26429002 eV
B 5.235715731482721 6.516200015270236 2.59591445112799
B 5.563068534846186 4.863162713130827 2.610290745502012
B 6.846458075680407 6.119052202668775 2.511552524809873
B 4.518952840213738 5.49716254208327 3.7318395408311233
B 6.4156878025625526 7.346231030278727 3.485256929097335
B 7.068832996238957 4.727031186251332 3.3957743362821216
B 5.635919236248442 4.266127169374403 4.070247890866732
B 7.487084702438188 6.211433576611659 4.017982539523638
B 4.841297596229084 7.202405965262364 4.052113100725757
B 6.984454963541253 4.877106566543225 5.025941485766067
B 6.673220639377571 5.0092019629505655 6.611597170495163
B 4.123472532516891 6.374124920647614 5.230437603327668
B 5.209856608784105 6.0083110029585765 6.5641747873834975
B 5.785824943419968 3.88963233449531 7.709730539003346
B 6.066175285618352 5.5198258809929515 7.960453433183694
B 3.4930834341695505 5.954481285500573 6.656958855812959
B 3.541364352156854 4.57496794501299 7.712422671043237
B 4.816739656366175 4.696141301458015 8.854552986447423
B 4.3890976294191795 3.2978038872138327 8.170004215413236
B 4.305671322042218 6.051575394646686 8.034733076709347
