20
Energy = -115.80285546 eV
B 3.9875562163110763 6.592786151614775 7.218538177215262
B 4.701050718017772 5.793540891570536 5.964329106113278
B 4.764939289862248 7.601163540391139 6.171794460496284
B 5.193329654979817 5.591121312494523 7.724664141911312
B 5.256946666369527 7.406749726310525 7.889655943681644
B 5.683545908637276 5.064973784075706 4.858593597044497
B 5.737537809236639 8.380537032279234 5.160764860820032
B 5.852639240241163 6.701298630642291 4.936384239126391
B 6.070884770593516 4.778575660092666 6.426621924295578
B 6.484122963207942 8.147191949188972 6.690404883046407
B 6.564713750015646 4.711065875272967 7.987794104040538
B 6.660184849855431 8.010307877594064 8.388603513106641
B 6.7522306699179175 6.332507162710656 8.187564632524474
B 7.225089590063157 7.925651902409554 4.988719908871624
B 7.273168151058338 5.360252770366347 5.1007105794482674
B 7.815107258344272 5.158734641472172 7.031665694163525
B 7.990568134779051 7.594253199493132 7.667866235691779
B 8.363096065628163 6.8333493318877965 5.126556009186547
B 8.774868332966257 5.383794103492661 5.725987865103662
B 8.848419959914683 6.632144456639291 6.752780124111633
