20
Energy = -114.19379375 eV
B 6.1850107285578 6.088090125584228 4.256215586882545
B 5.618730718260218 4.46469098653193 3.8573125081515784
B 7.203702607784998 4.82748865520414 4.936167966170286
B 4.566886338950463 5.68436702301654 3.9495535064335474
B 4.729080038347369 4.776523047904899 5.371591587929378
B 6.046383595899348 3.457314885349436 5.057770894316751
B 7.6602610738199415 6.402904987643016 4.928670397447874
B 7.3684664010610295 5.704851722711754 6.463088455199331
B 5.129781833834381 3.500257812010399 6.437899975337961
B 6.616575229133892 4.252326881453187 6.437835012926484
B 6.4771017102319774 8.608021054848178 6.8097696706635675
B 4.724427362368786 6.682157087668796 5.153489221282457
B 7.865996475470936 7.4632074646984945 6.192992213916269
B 6.882830314965444 8.667731690852913 8.513093467526682
B 5.505832182770894 7.880896298282895 8.311419761898584
B 8.040896664583668 8.404435276550009 7.492797022177293
B 5.294029529819613 7.685299229134978 6.332891997353425
B 4.941367479488362 4.9189455641499995 7.094387544706515
B 6.825727333559441 6.971656879456526 7.516783226484876
B 5.179944731707117 6.421865677562706 7.7493023338102285
