21
Energy = -118.01165597 eV
B 5.050274458103918 5.1820756507112264 8.445143545175375
B 6.509449727289264 4.683135416354762 8.717301744148248
B 6.533832217913245 6.184766312473635 7.9663901891349
B 7.632349945473617 4.938621512921119 7.5297270450434555
B 5.424738277488988 4.580686261315678 5.699091566256316
B 5.971011183457143 4.331681534879748 7.187993694819038
B 3.225718483883112 5.224302218072896 3.984590579561138
B 4.466732843147921 4.434184480348824 4.430366001257773
B 3.590206709922872 5.460363354909251 5.6032065340303685
B 4.270948846384014 5.59660230305362 7.076049383918489
B 3.876972260985396 6.6305653960209385 4.1587347808043
B 5.450798583238275 8.334420386099628 5.9253337064567155
B 9.544291304031802 6.022769059681059 5.197649838395881
B 4.419981723135618 7.0360480607312725 6.003520022280689
B 6.805901037293831 5.699742630015065 6.108442000690175
B 4.897193431514461 7.801730035173596 4.538234876525791
B 5.847526419092003 7.3006869626400865 7.047983753715411
B 7.913905164873941 6.4700823419725095 5.060721762402103
B 8.584904901340161 5.372640560623402 6.256604669197062
B 6.427504419630098 7.2358814349342415 5.081549765341953
B 9.193601776240033 7.15929794697963 4.218031572265112
