21
Energy = -118.73306118 eV
B 6.143608516193458 5.4104442073374 8.510663616324686
B 7.1117042133887844 7.2692368127643805 6.812078201904622
B 5.753105878298838 4.24811636946522 7.451188991276022
B 7.359505549054703 6.000556195700171 5.9424497172935675
B 6.518713036647125 6.895420402958044 8.178745628492917
B 5.379246318570877 3.181085111467591 6.282655546162104
B 6.5420450888004025 4.587798216461661 5.820095579429782
B 5.85586723161203 5.921817868277054 6.861097543194177
B 4.565470586485437 4.819465180744647 6.305967452479256
B 5.583035811759853 3.8944617683118765 4.606872138935365
B 4.265834950667593 4.481870852220558 3.6851115668491277
B 3.4976483644892795 5.225633209149774 5.138388448103423
B 4.535081159435568 2.722681834084517 3.657417896365369
B 3.806541764035269 3.5987985199926347 5.180791384295008
B 4.85399836820326 2.23253108989165 5.112275762618547
B 3.5081005994269114 5.070072879425958 2.333989866394479
B 3.194927694936682 4.056369459557259 1.0233297406327095
B 3.120334821813758 6.037280648263956 3.7656707978451776
B 3.9559482137532327 3.384435688082491 2.242666923533625
B 2.4711057228805786 6.399812485437952 2.370021727223399
B 2.488865305528195 5.4698806284663855 1.0918452218239965
