21
Energy = -119.20176609 eV
B 5.783964615803522 2.647714909702661 3.233378030413349
B 3.829245082512315 2.8253645501720306 2.9226020663441292
B 5.191334198917758 3.3452356721373016 1.9437620510014308
B 6.053981863504179 2.633279572013088 4.892714245777945
B 2.729937731973001 3.0086912304526727 4.19624581857483
B 5.106506684672814 4.510388261426838 3.446890912513386
B 4.434649082264082 3.2977395590748118 4.5092299235947255
B 4.823280728682429 2.328006195905251 5.899127829555871
B 3.7230549699532527 3.9051917883994727 1.5460877568420692
B 3.303621708388424 2.9054531886588433 5.867047785254088
B 5.816478896410977 4.31578868706907 5.071804574850826
B 2.7635659276023232 4.434788199529773 5.190115313557758
B 2.381769279538225 3.7202985213184347 2.4186181637705615
B 3.3826222651279356 5.186204820899716 2.7215003011773384
B 4.162065775118905 4.400586245062517 6.160250745602519
B 5.546299176432384 5.96051400717818 4.530747420095715
B 3.858950141833061 5.9646585913513706 5.3332790236719525
B 1.958382108267546 4.603888710959553 3.707532516981357
B 5.236699170689787 5.625942716342831 6.108455851896653
B 2.7181138625655454 5.970140855056761 4.163803939266776
B 4.330063942033277 6.225543726273284 3.52364131262675
