21
Energy = -116.11683037 eV
B 9.971574563618969 7.676259492226529 5.112309243360895
B 9.582824157408172 7.253082891663698 3.6265607248576637
B 8.47625859057203 8.129721439815082 4.34314697063783
B 7.677912933151572 5.04764786958985 4.909871132037147
B 8.45775152416172 7.68497623717353 5.859264253363496
B 8.367868045729992 6.36466680367371 4.2883014115400435
B 7.312355118288121 4.704207124131828 6.502322623576829
B 6.618560403605838 3.8138586386718982 5.248632716773003
B 5.090587844000285 3.3149268055160976 5.4696826785557136
B 7.649532616881577 6.316506111389366 6.2237658902735795
B 3.9491573563972393 4.69841512468653 5.622456084959979
B 5.904535666376863 4.014099095013807 6.807172415017518
B 4.287192319839282 3.488559258608503 6.81225598120609
B 2.934673546548481 5.953793374784313 6.146611897539318
B 6.138930693293995 5.843145794400712 6.876952648252244
B 4.5639134921452715 6.357215650003743 6.777766345900499
B 4.14147286603122 6.144592471891725 4.9165172085850335
B 3.6852987850652315 7.488008220487579 5.582967420673675
B 3.0131823461525196 6.179892297827568 7.883079639530328
B 3.3257697035659053 4.733060771270483 7.315095745504014
B 3.158154122332195 7.509232032174727 7.054957793863872
