21
Energy = -119.04505725 eV
B 3.351641922464992 6.451407868712839 3.5379553855117116
B 4.398468145379557 7.5344992465478065 2.725259104788376
B 3.5970107354403993 8.186070025176402 3.917036299977907
B 5.202193402455068 6.17995940516907 2.853774741945361
B 4.849452955669204 7.132905079117429 4.455807031874309
B 3.0514406132694147 5.596606869761441 4.836379329451279
B 6.046725134185435 4.79353137396729 3.219210973297353
B 3.0517532412844357 6.2529778820425745 6.46110864168832
B 3.2008839412820707 7.338090169442413 5.19678435711379
B 3.3911402807168467 4.6373514764223716 6.115104755178727
B 5.740565794740893 5.8287896666182935 4.50611214491801
B 3.7147003077150513 5.372951710507598 7.594438696751821
B 6.543480405897753 3.2731607636609237 3.510912800359306
B 4.347684375487894 3.4141263322682294 5.57942773103908
B 6.148497772410092 4.290759393629101 4.863288941528748
B 4.670462050644689 4.183310644220744 7.201485456795792
B 6.783170949155236 1.7552272193190215 3.8749587213306307
B 5.93712957158081 3.4764289223330382 6.408198422863323
B 5.194885922261982 2.228389878435503 4.929112834815151
B 6.901370364098823 2.7969120405482553 5.3065531504723396
B 6.336036023684226 1.0423893669819493 5.171433246853648
