21
Energy = -121.25037583 eV
B 8.97616922570587 6.158462055027793 6.157184768571502
B 8.628428814840564 5.204991348494707 7.430908491353813
B 8.680090865870786 7.384560264817714 5.009605713712964
B 7.208794644195856 7.434482657579863 4.356800641304622
B 7.26189551433765 4.865739916189237 8.251829825173694
B 9.120516163305814 7.7964812123309635 6.489482020127647
B 5.638869983367957 5.094535153505188 8.727458770134291
B 9.215317451907541 6.759847290543002 7.728477985562871
B 7.45686030198024 7.96509533585701 6.0486448748175805
B 8.304549636944452 6.069614413225142 8.84356976710119
B 5.741357313199674 7.02587035176848 3.8200617075369587
B 4.427910215894044 6.149569895040005 3.4942806935217914
B 6.773291859158719 6.0229443001662055 9.36261125525413
B 6.161546987574179 7.902343745744471 7.076242138776949
B 5.867208931141494 7.694641996656453 5.465547524795098
B 3.514120220819359 5.500776762606951 4.596123187877509
B 5.761292804111377 6.688911347222052 8.13078412797392
B 4.5425064071018655 6.706341895082016 5.037162118129033
B 4.857486149712531 6.964438985606392 6.696828336219832
B 3.7969878533601285 5.630170956753093 6.178805719133448
B 4.559063974750605 5.474445435063681 7.591855652201856
