21
Energy = -121.59596393 eV
B 6.266498940588275 2.2496757551014026 7.166998431536379
B 6.7917174062873205 3.6907953477045883 7.033907234072401
B 4.854278095429265 1.6581388152171248 7.091808487530619
B 3.4936269218541764 2.3319773020638896 6.797507061825679
B 3.159352885660367 3.7928943177877015 6.480757840943995
B 4.928513112061234 3.443276839796498 6.80050413804714
B 4.0328015914287345 5.0529471262495855 6.356249215280613
B 5.744113393956341 5.016025540876525 6.639876508489535
B 7.455895286544616 5.15329719329989 6.922335285455838
B 8.174343432831327 6.5643132504231385 6.805891335869945
B 4.834393886581667 6.431669611333297 6.19925241702475
B 6.506057506773076 6.496893414222411 6.498788039050094
B 9.807766418209855 9.247972588928251 6.674563306243269
B 8.955378703087248 7.966031503414464 6.727029154668691
B 5.558204795870105 7.835458829184986 6.050513487724812
B 7.263616512599758 7.9795000355669465 6.353376747724903
B 8.06908018614333 9.559712644329393 6.210211231543007
B 9.482370081022045 10.6920065158654 6.283629963229797
B 6.2216277424208055 9.284526767719816 5.8778052766733895
B 8.145891472079397 11.337125947535233 5.844905870632709
B 6.75547862680997 10.716767651618705 5.685095964671507
