21
Energy = -121.45336167 eV
B 4.5850904404558275 2.82088005719845 6.285750733788956
B 5.868330829877347 3.763395291256504 6.608416978336023
B 3.151901414505749 3.3234607578201216 5.889046391530671
B 2.6765103093836426 4.835208013864004 5.628066215794798
B 2.6712805854339354 6.407554158620522 5.277566241323724
B 4.29547102413462 4.42602492794004 6.319915017371395
B 4.014042967596513 6.083960744765889 6.195611150456183
B 5.545840489894858 5.484044411149304 6.633395822347342
B 3.7850123519837875 7.4868980752394 5.419772470410966
B 5.2459105055843676 7.342200334271946 6.192978762087457
B 7.07470421703488 4.827239085928807 6.908159826284265
B 6.818267776252346 6.520604910695614 6.567652513268123
B 7.871057482411992 9.215783064077305 6.6240847021219516
B 6.607763215345085 8.233320659494616 6.508257115049091
B 8.39776438034328 5.761248387423951 7.033516870354109
B 8.092902416712855 7.469586277657976 6.876535492774299
B 9.408897499810285 8.417002901306523 6.802168972835843
B 9.239658781424335 10.061671505559213 6.8949758873542955
B 9.651005518344585 6.745591652506236 7.204992250187334
B 10.653425752549396 9.412533881594939 7.190583885870523
B 10.833765253859053 7.850394114567366 7.427155913390941
