21
Energy = -120.36856117 eV
B 5.234002690355584 6.188915463611849 3.4108267105154217
B 7.412217569882105 4.502400004559056 4.478193682831135
B 6.857842213464152 5.911674924231488 3.4385391217048453
B 8.353012369716586 5.784118138276668 3.955961644380443
B 3.654035840880363 5.7484800820009685 3.6297824245654207
B 6.229221052966002 3.7366009460607206 5.230847379203154
B 2.4022862705695776 5.0366652823657265 4.425962203403095
B 4.36858532534369 7.022343950481185 4.558281001366211
B 3.2371402193833547 6.147903197621687 5.327720515583372
B 8.724748425121891 5.22275028799598 5.401088093482426
B 4.590172902057546 6.576740104735784 6.227878945318123
B 3.4940587521473 4.206411599986816 6.090002931658256
B 7.601870995669899 4.715710788527269 6.439612148119432
B 7.398937486753699 6.29263401492491 5.354875428983864
B 4.773269500761447 4.936181902398391 7.302351628727559
B 5.896902835737926 6.831732033973668 5.104767789766639
B 4.955943848362613 3.530183888271226 6.073371240662046
B 2.1013675468543083 5.104491923133823 5.982749034207254
B 3.3049035593831015 5.680933327683872 7.027074120258243
B 5.99602648417757 5.4684734275065665 6.136931161892242
B 6.226189164257601 4.167389765498054 7.215917847216507
