21
Energy = -120.14872902 eV
B 6.08091735260737 8.587464339890884 8.462060613096252
B 6.6249208089529485 8.503780188258466 9.97286602860674
B 7.908586179839832 8.369035350705396 10.9180541124596
B 8.789407987944461 8.269105330795165 10.890582097867094
B 6.6249208089529485 8.503780188258466 7.684453971393259
B 10.250682001040067 8.398299805633286 10.27910829533428
B 11.500462007374676 8.952214438247847 9.27849026016005
B 7.908586179839832 8.369035350705396 6.739265887540399
B 8.789407987944461 8.269105330795165 6.766737902132904
B 11.500462007374676 8.952214438247847 8.378829739839949
B 10.250682001040067 8.398299805633286 7.378211704665722
B 11.120065870698562 9.116494134419405 10.518033022970146
B 9.673086814391713 9.018224206756866 11.180216360315372
B 8.789407987944463 9.066087452292637 11.276749187496131
B 7.3359687088418175 9.20067221934792 10.60128196770456
B 6.4216026501197625 9.314114397049368 9.266947039983343
B 6.4216026501197625 9.314114397049368 8.390372960016656
B 7.3359687088418175 9.20067221934792 7.056038032295438
B 8.789407987944463 9.066087452292637 6.380570812503867
B 9.673086814391713 9.018224206756866 6.477103639684627
B 11.120065870698562 9.116494134419405 7.1392869770298555
