21
Energy = -121.64207052 eV
B 9.260775033673122 8.907688220889225 7.338526848812845
B 8.866685689736258 9.157274241148173 5.842694808621199
B 8.448148509083849 8.004326761781114 8.391991659638629
B 7.867175199498715 6.652932209065462 9.088517344265325
B 7.746647763829248 8.475726191721606 6.842134715054034
B 7.344564619915571 5.196810536359725 9.524974784343625
B 7.560586599545407 8.62883171017666 5.077425132840131
B 6.516025815782797 5.887796799296601 8.29108962972392
B 6.794549440680757 7.4799524905410895 7.830975182520831
B 6.212247014586014 4.372525956964837 8.848078639043601
B 5.35951982305835 4.7231742527854825 7.5374547703150245
B 6.418417811906553 7.776753859086179 6.135525685489523
B 6.327586576878227 7.780459459157196 4.4224739327208615
B 4.9108100326956325 4.105841817151599 5.994195564988914
B 5.8466554127122725 6.351339175921577 3.7615592597320604
B 5.2002906560242295 3.705472869671778 4.466439275097395
B 5.663425482061116 4.787056010780701 3.4359988627993103
B 5.5275922451897115 6.685780734339963 7.118170064662414
B 4.480300782193523 5.669212762896584 6.385047679819014
B 5.2903939131098054 6.831637223711303 5.376519240232372
B 4.857234769113177 5.319039907826522 4.789840110552477
