21
Energy = -117.65887041 eV
B 7.3938887179350745 6.874695213782985 4.9063988076558696
B 5.623672358692613 7.5181340924471955 7.192415225472616
B 5.674590977434495 7.136419241398687 8.989360451667181
B 9.036674076426495 7.586236677750604 7.193365312910649
B 9.017569376810991 7.221166128209386 9.015659624038017
B 7.297376161899646 8.560860021159762 5.26745612458077
B 6.526707949461824 5.733949774039497 8.907555790634577
B 7.39821866830879 4.889809747988206 7.736620560919322
B 7.341520306910882 7.264380785266252 6.53329442593107
B 8.37031356165102 8.6301618838094 8.575998345870909
B 8.802786598008606 7.987626675532048 5.546876883812375
B 8.172365253819617 9.032142042828713 6.782261400870278
B 6.436355898475019 9.011563595436106 6.789426498834247
B 5.823437316862809 7.941982400272086 5.567930092957337
B 8.234623321233236 5.779577929591073 8.908089708653613
B 7.37706117810967 5.545619081746332 6.013079619620164
B 6.271951779813886 8.580926512960943 8.572675592203282
B 8.554456659940213 5.968985588644023 7.19112197538501
B 7.2940266474513455 9.77176901045817 8.031142160046173
B 6.196432147437078 5.9243290714835934 7.192103264311805
B 7.343337871373856 7.227031639824845 9.274538973698387
