21
Energy = -119.19750491 eV
B 4.4617575246955345 5.509869200420309 3.767023558652706
B 5.213432269007317 4.407308804514371 2.7905448961396355
B 6.278504672859702 5.063560042782238 3.857264216923274
B 3.6054700852819694 4.032503008858178 3.054039418570414
B 7.823811281295998 5.219586544848535 4.5112622616345925
B 4.629240473020178 2.8517578484843042 3.2035073034916346
B 3.4700867154505914 6.300699109118646 4.820480882610068
B 5.983149875787052 3.151771875221863 3.9527949513108256
B 5.043668434947382 5.382968954617695 5.434020197291076
B 2.52585823453898 6.501508518844174 6.2644829594660605
B 2.5718809883261424 4.897959692990964 3.978144751705008
B 4.290000129840136 3.8242320013300874 6.186587478024944
B 7.185064160139328 3.732312939186328 4.914665015855786
B 5.797906505293802 3.5935721061055736 5.811775385699046
B 8.186114690764645 6.18509931119688 5.699347823260785
B 4.053056318460266 6.398802246513582 6.608158361262988
B 1.8400282034565258 5.668350643119455 5.121598401503146
B 5.694307028346653 6.395354825692061 6.811459004529543
B 3.0851939861351108 4.840829286695401 6.042921539094128
B 6.717764841322135 5.149751774132373 6.003268758746151
B 7.227420675147846 6.575918359444409 6.850369928345753
