21
Energy = -121.61659783 eV
B 7.262614462542447 4.536474299261743 9.441823575873356
B 6.424722038118563 3.496446008966421 8.603300831970962
B 8.995139785644676 8.681682912136214 7.947595872777756
B 7.633032785523058 6.020075480704993 9.034339425063663
B 8.227957199289099 7.4230752913116484 8.525797610921863
B 8.826341675801865 9.33322931462112 6.523441012697735
B 6.707085906623303 5.013674018644718 7.956942516676368
B 5.657517624271463 3.772120120006709 7.231358919702478
B 6.750268350516792 6.758213204753198 7.518576251975429
B 7.915989219663143 7.983213348930671 6.9051552901407804
B 5.26554540029487 7.0338617507383585 6.5945149314466915
B 5.5484088619825345 5.423013800037435 6.855923738903482
B 6.540661813235025 7.90216809583555 5.994187117546122
B 7.750369177937113 8.93802949563251 5.412061826878848
B 4.695114905285336 5.8898318099786895 5.497089251211279
B 4.989976356969549 4.169844104516588 5.7720135840256654
B 5.321554467895401 7.421328626756453 4.954357365424866
B 6.679429735991023 8.340216844970051 4.30465600257724
B 4.609090610666322 4.716552849713389 4.336838538646564
B 4.95977459181705 6.1504458939822495 3.7292759448248325
B 5.736267810739408 7.493365509308643 3.3576131715217876
