21
Energy = -118.59539256 eV
B 4.813465427142066 1.7073699949387868 3.93935208240609
B 5.610030241034006 2.903593709766094 4.94565149523799
B 6.258350877310852 2.2510959010583353 3.495329729265458
B 3.880145816640548 2.5134274961199417 4.898473409514368
B 4.717228116946853 3.7597066253309634 6.076318552482679
B 5.043697660469177 4.8940189135399645 3.298196743777181
B 4.852301037382314 3.2498280730724987 3.2160037809394306
B 3.053553704851622 3.807964333130581 5.42598293224479
B 2.5975234567010848 5.132112686166433 4.650813538410969
B 6.47955859769365 3.8187885145962266 3.6715183561099676
B 3.8457154556671282 5.241627416857753 5.836905693770085
B 3.7262910120531747 6.0291120821245325 4.117166871980831
B 5.289468810112964 6.440108783563474 3.9065517603017224
B 4.480682793456598 6.609821064767248 6.704545575007726
B 6.6059781008310186 5.447472218640037 3.704628056739592
B 6.639896091915859 6.450071501089673 4.949085332485011
B 5.269354970031179 5.105965355371311 6.80108382557379
B 4.648618720197107 8.228504528439862 6.578653888094635
B 5.395411233847051 7.496670819657231 5.336802468580931
B 6.338664047950662 6.440600314838482 6.656681893237588
B 5.954030103895917 7.855857519923509 7.337971717813504
