21
Energy = -117.5438536 eV
B 8.2448389850384 5.405114457234249 6.622245623449606
B 7.187456601187701 4.747046508941783 5.627800645831846
B 8.154094992073723 5.747956521535952 8.134424684792199
B 6.05517246096457 3.9846091202248646 4.794755920604046
B 6.542553785922204 5.832512284703949 6.977766254354471
B 4.791652144347706 5.112560140475334 2.007575087715619
B 2.1794619297193027 4.646762601491405 4.6759458715003355
B 5.115892587232653 4.2803517401079585 3.4055022497128546
B 5.730012669277776 4.310422053349838 7.311198917642253
B 7.0169021969070045 4.672690280680692 8.177645727748592
B 4.580618553638994 3.8336191169495284 6.232962132139872
B 5.375711180204519 5.510874585852437 5.962229866589109
B 2.8027152853478055 6.052114727336631 4.056471600680198
B 3.2159792654612516 6.351223961683781 2.5338999356577925
B 4.585496273859768 3.190281811195714 4.625763601502192
B 3.449031879970609 3.866685030482973 3.7008189121290713
B 2.155751843454767 4.750544090953859 2.990265882859467
B 4.082030479349661 5.115137361339443 4.949763737314237
B 3.1454312523324184 3.5904301564744254 5.476857235242796
B 3.9572589176412243 6.03911070938547 1.1080335048928032
B 2.867242860101077 4.977806141782818 1.5898244790510696
