21
Energy = -117.95045094 eV
B 5.403066510903783 3.1626167731597183 3.119233407132009
B 5.518760047511401 4.686375387037007 2.257284309712213
B 5.795993049016627 4.98092111832569 5.570760664804591
B 6.018451149444604 7.504084547426941 4.932815976582639
B 6.667689755645564 3.604764261280808 2.13814687776353
B 5.058795474846887 6.149309058257929 2.7162926801571285
B 4.451278735577009 2.854113875955459 4.383566483192973
B 7.111734118152495 3.1972963697513683 3.5686684564174347
B 4.788940825542454 4.608281624476353 3.984475927176067
B 5.340343925697229 7.4368687860510185 3.529627862087474
B 3.379985282517297 3.2722541964629075 5.422837732191533
B 4.6806587547326695 5.901047359042614 6.600452032249035
B 6.237042347940482 3.4299133322855084 4.930487225948808
B 2.357102533440678 4.334456483144082 6.116741592678631
B 6.088743652743923 6.527427326779041 6.134642390816697
B 4.640330440018265 6.212984233643067 4.704150450596789
B 4.111374815745275 4.16038880287308 6.889340462614301
B 5.060965830152007 3.1925031218417677 6.048697762213835
B 1.7984794849901775 5.7818249697263875 6.211530213150678
B 3.139981890942823 6.275760357108486 5.584675811597545
B 3.178488229839775 5.467850033775043 7.147831586186847
