21
Energy = -101.94547975 eV
B 6.413093693469171 5.650085969913285 2.1540312034887243
B 7.555665076528167 5.094519898181708 3.3398845487296196
B 8.46716407196047 7.365498832836033 2.317305246331372
B 6.883870899543323 7.267674666968918 2.0456156127642573
B 5.534485870809349 3.819894343347296 3.317607388287693
B 8.3201049008472 6.497088856903241 3.635202549193081
B 5.059652620590799 5.571955431451538 3.2572502927067886
B 6.25319954361396 5.044573481333239 4.2211761673613415
B 7.149000496027522 7.641212052617175 3.5979983333882486
B 4.340385636087078 3.3585473481474355 4.288101475200836
B 3.086695791388957 4.564949161649561 3.9059327660915346
B 4.515859180399454 3.229796767149753 5.997869024765513
B 4.12179373483198 5.829533011948636 4.596622701236742
B 4.4206170916317475 3.2041460713095122 7.5520894868878665
B 4.262375373097183 5.029852348790055 6.274348548050038
B 2.4598588139180975 3.1773448196851697 6.017088238061198
B 3.3579771677842185 2.4222828372738845 8.476276196540114
B 2.039382587285196 4.4673402832665365 5.182522570855739
B 2.822667543624834 5.513640226603112 6.084743000983804
B 3.2400437964458466 4.232805544884862 8.30313035797684
B 2.2492372521915054 3.1133385958542847 7.60110843286397
