22
Energy = -126.8525356 eV
B 6.443404410724295 6.607957745818927 3.947885799971398
B 5.8623818739382845 7.381168855648445 5.255594922565916
B 4.788518216271297 6.101843852249073 3.122697069431321
B 4.269575273976646 6.813427237296033 5.306566071479215
B 6.239577386475278 5.279921992952491 2.9573596123212385
B 6.66899620375068 5.9499686574531605 5.516333095776497
B 5.418589739727723 6.4800236838852765 6.554534696068877
B 2.7986744622054394 5.867063897806485 5.119636243877865
B 7.300457723403169 5.083777569510751 4.275156345977291
B 4.878033600552166 4.313412637947731 3.006681183007126
B 3.4485188933278152 6.662808849435187 3.841133488050696
B 4.9671520488983285 2.489156147720599 6.7369803091621385
B 6.7877266992836685 4.2923341072006265 5.702907582646171
B 3.806391625736544 5.621345433765697 6.556931336630599
B 3.658747054762942 4.985649002799003 3.9286632196276594
B 5.9881516805334165 4.052427116528941 4.257930581573861
B 3.1329578075440647 4.230096153763539 5.436790318362194
B 4.344465040937086 3.469589856145655 4.337396492358253
B 5.09813399017723 5.177141029339384 7.553057388175435
B 5.9459848364976615 3.7199887229762036 7.103990445335927
B 3.7161777593397094 2.740734318536637 5.779165632419717
B 4.231282431811475 4.036246386607519 6.753663251173027
