22
Energy = -124.48506817 eV
B 7.3109776840179 5.783825030126462 3.8208495170337593
B 7.656798674840655 6.873943499863676 5.625235676722184
B 6.381945541166413 2.966052392157747 7.329075904668622
B 8.27458277380315 7.058013537644459 4.237008102639596
B 6.17233566587061 6.283985073474512 5.8097720190263304
B 6.269836517812256 4.741474811318046 4.768915242225762
B 4.907840718810474 3.37340776972006 6.636737241362453
B 6.410603733223938 3.4503930393262 5.8175488915566795
B 5.304498262442906 3.5920280241953306 8.240132882345947
B 5.787925099888938 5.982457490166458 3.28367517967577
B 6.709396541480676 7.418275843766773 3.9626891698066427
B 4.2799977307953 4.847213190210218 4.148405290752091
B 4.87850650529663 3.6537636416261066 5.002248451068342
B 4.2289680505702165 6.1392035554933155 3.114897668625006
B 5.051874864333886 7.4055149228550805 4.174894652487555
B 4.154149916554504 4.6662147911239185 7.931176494213504
B 3.689678097018894 4.427993068242455 5.86307969927821
B 4.300227797456818 6.263673110345386 7.083414961278437
B 4.651088362301022 7.133083236765798 5.765624797192056
B 3.4907740770074938 6.747193248885766 4.401718721438458
B 2.9078265524295386 5.238923800459911 7.119815645002597
B 3.1023681998382315 6.148060649250053 5.833614170535917
