22
Energy = -128.00285463 eV
B 8.266822810601196 4.050425696950398 7.886255674885097
B 6.899739669214869 4.165672558686574 8.65557978506656
B 7.301461730581337 5.3447654196900185 7.425339226838941
B 8.81048844895218 4.8540271908146435 6.652599015462815
B 5.63010332234558 5.332700479981972 7.987058791353768
B 5.462686003261447 4.314467568138998 9.319053436078809
B 6.133197636975963 6.334624766765453 6.673022077465934
B 7.706001584522891 5.916533388491075 5.894309109948222
B 4.189005860890671 5.0875764813387505 9.028830294745424
B 3.248325854962188 6.135329794929721 8.279158661919496
B 4.499231940536488 6.679188693143767 7.115090877330203
B 2.92723176736318 7.2624175483992 7.318292582384489
B 5.43243470984108 7.774015841753127 6.078934702815844
B 6.793151011117786 7.234987757015875 5.261691202797545
B 9.38325520125753 5.720640269979092 5.3765220538919465
B 3.7256169847825613 8.128421680200557 6.254773134075454
B 8.39698937582324 7.056982551175695 4.899699981921617
B 6.022504047733996 8.624508665773252 4.643697897787325
B 4.570901677127121 8.892343774900613 5.1689217582405504
B 9.838427648444 6.6752416751811365 4.177807080098253
B 7.539427428126227 8.313058598668317 4.084913645151619
B 8.996352390155764 7.8754267026380536 3.591806114356967
