22
Energy = -124.7372745 eV
B 6.071074145907421 3.5982052096478983 2.6325048778377234
B 5.685911402132657 7.633401239705517 3.0641015837851744
B 6.076412029928362 4.309535271161911 4.134844592571318
B 4.523856936202064 3.883165641826765 3.1859211461084898
B 4.902727548965108 3.762361882443671 1.5981188234507393
B 4.555960743029264 6.646526630771078 2.596867389112634
B 6.559175017868933 4.322898587743085 7.319288698707935
B 4.47030279340155 7.023134195988005 4.346172468898079
B 6.2735106949628605 7.71520997323033 4.518306986463756
B 4.4858823249609605 5.334071120910158 3.8741242860021834
B 6.0670797481017384 6.090923074913576 3.988479321155179
B 5.651124633501878 6.953448441560589 5.727088823724953
B 6.135636993351735 3.9674886074611555 5.760960807102601
B 6.052178484120027 3.509093318974916 8.586290930517006
B 4.990866295589052 3.5025011173588685 6.968244288523795
B 4.190155669887388 5.105173719104867 2.0657095368760676
B 4.531802626580971 3.212191759401293 8.735100663419187
B 4.10095225089156 6.073850175254486 5.589592772869174
B 5.4404476678161044 5.70800121184401 6.8451857530273115
B 3.444659010397536 3.8277404289393147 7.790686223114919
B 3.766103704003739 4.978606823994219 6.766613120237991
B 5.0402024192798285 4.867376287955422 8.177031117757247
