22
Energy = -127.30765817 eV
B 5.843166262426155 6.382569516736027 3.0684565042106575
B 6.900332679478352 6.856321414417967 4.1389514701027785
B 7.680011599904827 7.519454936125079 5.485365541891272
B 8.37225128862718 8.08311078372624 6.7936358778490975
B 4.836602876789941 5.210055763252249 3.3177866615285807
B 6.423015713770803 5.120797261089041 4.240659964844063
B 6.644383591816145 8.082146053387394 6.9022993596969755
B 7.138490713181196 5.754970489930311 5.5160914850353455
B 8.045252235684053 6.352663225629511 6.804797481370109
B 7.869933328944428 7.775583564634553 8.269211268165204
B 4.812869801947607 4.4426886949633415 4.670315217023722
B 7.066470752322076 7.509076791750373 9.788395704981333
B 5.850191430931756 4.628780478358969 5.866813891541947
B 4.992272382693207 8.184490176373474 7.319169608920231
B 6.532576893613189 5.203871073401254 7.311770972441744
B 8.061340463397158 6.341911631293016 9.556272524679017
B 5.409949271303873 6.5548321113939405 7.614066110036964
B 6.0199944280184505 7.9312160659288145 8.594237422761667
B 5.135944815492619 6.279608060750824 4.760019182318435
B 4.880333423153096 7.262617728065617 6.088546657848275
B 8.013675946865968 5.428401177466495 8.219401361989028
B 6.524455671567398 6.148348573254711 8.727251302692885
