22
Energy = -127.74681411 eV
B 5.635370756428535 6.546192171757974 7.084765930949367
B 4.506755977424261 7.248978525448729 6.025763493387612
B 5.947553151367002 8.034962463337415 6.397605394947589
B 7.262616652052656 7.251246103543716 7.02854343959403
B 4.0309203462536365 5.7977164239335295 7.074198379390935
B 7.303895692185345 7.852143468755837 5.406427128562358
B 3.0419791693495757 6.447942610306472 6.027114057077854
B 6.845225188499711 5.692640841985565 7.734316163022275
B 5.257222228790394 5.124510476931524 7.932256798018666
B 3.300531180345558 7.265647778744165 4.747037804058407
B 5.696848104473055 8.227460636886628 4.772565625653622
B 6.459498742331461 4.3655791280285206 8.753461122139404
B 4.351704355955391 7.920789736088367 3.6974467915826237
B 5.743219831819082 8.201577567889464 3.1151870483859834
B 8.095023948858342 4.7923448845870595 8.29166429388803
B 8.553260438519613 7.499943713512677 4.419362002066185
B 8.653407126983051 6.908232494600046 5.8653901732443865
B 7.723463793024457 3.7717253519517 9.569306924148327
B 7.241098487691805 8.015349033409993 3.6866473070794044
B 8.612361401593395 6.264487044274588 7.432205045374482
B 9.198214648395165 4.273812849776298 9.423933044873912
B 9.572536590839034 5.5294245074297095 8.547509845734519
