22
Energy = -122.52604796 eV
B 8.340528239415468 5.797725793053641 6.363183492717577
B 6.856076953201554 3.50337506133654 5.440368874929663
B 8.34057402989828 5.7977520298873895 4.517564338825924
B 8.207981962659955 3.946110206357319 4.606667713317622
B 8.208012170930434 3.9460899246897068 6.274055606998279
B 9.24279294808496 4.813841749701808 5.44040403185497
B 7.146310585653282 6.512008949691386 3.78681572932514
B 5.713762169446401 7.037933393839941 3.928385263917316
B 6.360297830130799 6.083422578500806 5.4404294693485005
B 5.357175727002288 7.627154345775882 5.440422238895942
B 5.713769031996639 7.037887879083498 6.952441692512854
B 5.539610458433269 4.408035576900531 5.44038120599051
B 3.84558532970439 4.444718434161453 5.440345085886199
B 2.6156020699783085 4.148156590296034 4.207710078602603
B 1.8825227508885003 5.05262830757588 5.440354748052148
B 2.996496813748162 5.821121059646088 6.3625333803320006
B 2.996472851982748 5.821184830202694 4.518285876203426
B 4.160220212830513 6.9875014028237565 4.500608814388571
B 2.61560239175009 4.148088674979677 6.673024754718998
B 2.2426423005664384 3.2544508057184887 5.440360614587424
B 4.160218317579483 6.9874409122533825 6.380214690931516
B 7.146323942270816 6.511950067051752 7.094020613877067
