22
Energy = -128.16625753 eV
B 10.328167355950029 6.402380374801425 7.122047038860531
B 9.835311554454796 6.0597349559885165 8.551286288222949
B 9.486316356389416 7.024773339987837 5.897876424784965
B 8.909370531674384 7.105738516318541 7.666086212554122
B 8.320776737626378 6.219045236072584 9.05447608551214
B 8.29444311762383 7.334820879506768 4.818448120415997
B 7.89976838634059 7.650659566393371 6.481812940512863
B 7.242140784836135 7.1322716401702975 8.004277112885266
B 6.7125139920670485 5.949406242280929 9.213961042687515
B 6.813694114144957 7.067903098169748 3.9832825119646915
B 6.8924758534916135 8.041804926699646 5.307318648923411
B 5.418048913214962 6.297150511589543 3.6020254015132327
B 4.152267803949928 5.300458064259437 3.6329702366251104
B 5.531006789068823 7.221802969981666 5.14564138348421
B 6.165697992513778 7.555961421504585 6.753608816783615
B 5.27307265739254 5.339216017896094 9.052057525298846
B 3.30047047489393 4.878569512716622 4.856791073309619
B 4.2052962366630995 6.2548752081443455 5.008325961765023
B 4.28975369756167 5.499056949396309 7.8364442045172735
B 4.7241849392166655 6.664445649777219 6.5763493100643595
B 3.5777308654147855 5.346746992667614 6.367042351560096
B 5.60521560160085 6.6309026817672585 8.045596063843963
