22
Energy = -127.65908917 eV
B 9.174263801454872 7.537580733944937 5.754421063475979
B 8.563739045613993 6.037442652152575 6.001987845254687
B 7.658459069664082 4.700857039216106 5.90465162633825
B 8.199600772505837 7.289180488221627 7.1148947487261704
B 8.795953791495974 8.837965760995935 6.519974481505576
B 7.4278635045812536 5.85343705607238 7.42802172763567
B 6.680603860887784 3.431103433589021 5.767176406694997
B 6.239432176195484 4.711106470544222 7.0399219067139205
B 6.8418584215755125 7.284215722474585 8.07745329748353
B 7.42520547363088 8.94401713054415 7.385773584858438
B 7.444178191269697 8.343802294412633 5.586138898636358
B 5.240023970284271 3.4611716780781223 6.42051366234835
B 5.996625130632317 8.801764767233788 8.159256883010496
B 6.043194417067286 4.714210669393954 4.956146473080653
B 4.492941351717172 4.508171893107785 7.337014233480909
B 5.907858172702918 8.375114365281176 6.502863183341294
B 6.097618723959192 7.756763677499052 4.961503780832838
B 5.114209407220491 7.531427175323465 7.9886441072631085
B 4.485148686744219 6.086127374765082 7.502904226032528
B 5.561827390828746 6.209908399542401 4.707498642966627
B 4.667368078073015 5.476988936934222 5.91450718637373
B 4.934481368800621 7.100097087577603 5.961186840851509
