22
Energy = -127.5176879 eV
B 9.235391671618418 5.990087038211697 8.077888242832282
B 9.09648754570481 7.274522266006181 7.197724416194748
B 8.543359346867595 7.957394899163152 5.789475520608983
B 8.025046855620976 5.28873751418966 8.78125846874031
B 7.731064296708613 7.861247913949883 4.420721937126161
B 7.7644940696698 6.909164548374901 8.264243345930977
B 7.674319693023171 8.146907799920529 7.194391666011152
B 6.906525532878454 8.558278577434066 5.811435687860176
B 6.618498589795701 5.941881777418393 9.147094299770027
B 6.65767945992405 6.7446335295122095 3.907269515136451
B 6.139475901410521 8.420516683886108 4.3402030928165125
B 6.358401117187666 3.6578671956147852 6.811486117136306
B 6.5633633810875205 4.581078811246131 8.093122387540935
B 5.142499299166141 8.63632400986915 5.571291833340599
B 5.840356586247077 4.349806678587671 5.528343818633336
B 5.197739973342692 7.062940707429475 4.763571376740225
B 5.17826621193662 4.7966808248824995 7.062080580714641
B 5.743894700766545 5.5206997775514255 4.3728106298196705
B 4.405621559740957 7.479165313984585 6.351713979163491
B 5.19706928563047 5.809917108566665 8.495621934201187
B 4.727876216369066 5.7969978908058435 5.719448595904855
B 4.24295223737905 6.205532665470659 7.289186085853285
