22
Energy = -122.61716018 eV
B 9.084730812709058 3.2036900969018745 5.750171726366573
B 7.655626445088833 3.2638894593976855 5.185813896375241
B 6.656340632974679 4.465094218563477 5.3357241280711065
B 5.823795019300617 5.691366136672727 4.431681640119902
B 6.568656549771095 7.215423453807137 4.125906451362607
B 8.210009056035975 4.581620482211537 6.11226256090152
B 4.235777373019281 5.480779022334854 3.907307160400762
B 7.439588220276532 7.5647423104149665 5.40366628565676
B 5.960048292988105 6.642676760059503 5.9050889357815395
B 4.931268499713667 5.047414748759698 5.589855638448734
B 4.3320168029924195 5.947268309752302 2.251589018728282
B 7.6393068354397 5.9983543816631295 6.551912379571701
B 5.544296338486343 6.610739691700384 3.015394886045365
B 7.050779419836965 7.604193295634183 6.921142700630417
B 2.6679175224366096 4.604296869284142 4.128781150638442
B 3.115009531879142 5.089055644553007 2.733795804708718
B 6.2919599971489335 6.448904996317927 7.661209335993243
B 3.8524964529535826 4.552076654925406 6.72134013213356
B 4.850536407986456 5.76596783190366 7.523940322104004
B 2.4096657799458328 4.313405161989773 5.7082616961036
B 3.312310223167046 5.494561364965662 7.978933412617719
B 2.2539419153651092 4.646948640866141 7.222356766200658
