22
Energy = -120.06685508 eV
B 8.513511458056088 5.458984182973641 5.332122623491473
B 8.758914318666152 6.734064144365373 4.340274835568434
B 8.749218257173892 5.17402696555279 3.6231905577068853
B 7.130736487446254 4.998191880125682 4.223473814255928
B 6.968844719110274 5.206341578027216 5.874533307777844
B 7.17646770945113 6.838181664033845 4.901003678497503
B 7.5033696468672 6.325039455065051 3.3546205234528923
B 5.677288644998143 5.324501667929936 6.909679452698982
B 4.2810385203981784 5.1351040436840565 8.150448950214464
B 3.8807692755507506 3.577687011103981 5.691208256828118
B 4.516520743095701 3.984134058995972 7.088726593467559
B 3.2185188419203374 4.445654210716779 3.197291046393894
B 3.495121740815483 3.122570177459871 4.19427086269399
B 2.6769025611686748 2.9117799393233432 2.8242624263435765
B 5.813227525655489 7.332948100019574 7.746515546614107
B 3.841373812199427 5.369475770989053 6.145433155098816
B 6.210471007235983 6.962601267297162 6.257946763089575
B 4.854729284889804 6.508975162838019 8.643193846286785
B 1.7927016245785168 4.142203078703896 2.364632111317058
B 4.495973556296145 6.641732061451873 6.8798293555277485
B 2.9534884546777627 4.8926868555962395 4.805731393835173
B 1.729760240931765 5.0035887768082 3.713884874626568
