23
Energy = -133.93204801 eV
B 8.614322128949851 3.7989192422933304 7.575024016585038
B 6.888845732392672 3.7304537814376437 7.452051987862211
B 9.177501536999488 4.322723752173668 8.999751141932185
B 7.52409344185908 4.432280140859474 8.817164209148885
B 7.882563458649365 4.054362202409085 6.122306937456729
B 6.072603748759775 5.0920535427222084 8.158157654592221
B 8.38155528293739 5.335574478154755 9.886075019704027
B 6.963028354097889 5.972984023976983 9.496416915712
B 6.341024157598436 4.826773491843034 6.38494356779085
B 7.262108605608168 4.942846382119643 4.9048312966788785
B 5.8291778349025325 6.3805622597329315 7.115495041262453
B 7.0037422229231945 6.246119648138973 3.909502016777371
B 5.619832411661086 6.611901134098489 8.778874352668863
B 6.018301888206068 6.08436112295495 5.409694658917471
B 6.864981459134789 7.596540792084714 3.1154479604005094
B 5.759489504032286 7.367486497162996 4.362217806346685
B 5.266665884601741 7.507775626846707 6.038749510990107
B 5.15554792303438 7.812548806321388 7.79209364682192
B 6.088226533751465 8.937423998545736 3.4563651438112566
B 5.241708161055752 8.84520557088978 5.052820879280842
B 5.023354210533175 9.087782305172732 6.774555154138548
B 5.511741744598121 10.240674131533494 4.233279222654016
B 5.065585755236033 10.328649050049892 5.720183839989412
