23
Energy = -134.09764139 eV
B 9.187380354616275 8.999737563816238 9.280032195658404
B 9.6155618465814 8.505416905781725 7.844197855912017
B 9.705551926796465 7.847677775071984 6.409717410771546
B 7.919354471792859 8.662661338071201 10.089637896114223
B 8.057340270270117 8.004327969967287 8.567127650477802
B 8.917177281767822 6.958664061251225 5.448268685837451
B 8.19261379763671 7.216194317299141 7.006103832196894
B 6.688578195205515 7.769881369018585 9.627371703265801
B 6.838945708446953 7.001750664196573 7.990603002420536
B 6.770234372129627 6.431699541847132 6.342953268329744
B 8.097389760146385 6.062099728579615 4.366413120536698
B 6.473143920053683 5.59181484862171 4.816811039638166
B 5.43757445495198 6.891227598095266 9.10784643751814
B 7.310114436371455 5.274690048321574 3.3257397063318668
B 5.339396259465321 6.507031798638787 7.424890368671592
B 5.215266005428418 5.763787577528474 5.934880516616614
B 4.134716113356037 6.188349296415183 8.570020189487332
B 4.813524329874925 5.143640502825068 4.434359268439417
B 5.851224370431899 4.746530795084301 3.0323509115182117
B 3.8476963539295657 5.691284653352345 7.103564746804676
B 3.5140659313968445 5.223175340921704 5.593718584613631
B 4.309084263310541 4.393973824396273 3.0364623998473568
B 3.26062865444763 4.620945559307038 4.143492287400303
