23
Energy = -133.30239607 eV
B 9.246979454568415 8.40508131788272 5.03084193886874
B 9.334984902506841 8.609717089368733 6.602891511097597
B 9.370938920036332 8.008295163814566 8.060167530067718
B 8.075149586391108 7.666073190247768 4.250391106245129
B 8.224230577431266 7.151578544972023 8.75079424824477
B 7.80340184652291 8.23954932520291 5.847360486343898
B 7.144789788527766 6.4005264474884465 3.768669504597119
B 7.761714577881793 8.34450366317958 7.581793223551745
B 6.562889489856436 7.468425336050997 5.091275703769889
B 6.396158868242587 5.024583380153213 3.701360599421287
B 6.080866719566688 4.876631901753607 8.364763817826198
B 5.18535303792905 4.159474591885768 7.241925879071664
B 4.224632837740817 3.9312551471191854 5.790438213406208
B 5.262373160239951 4.421856389278059 4.642840373531985
B 6.334123442513556 7.963454212016638 6.725880759395226
B 7.0986018946816225 5.9993526542020135 8.93854258317481
B 5.66419976728495 6.11047830790181 4.716307482959802
B 3.546879718892427 4.6336009298714504 7.013967640085759
B 4.5586792591228065 5.630357995681104 5.962334050659087
B 5.177801172055911 7.120964253347637 5.955713103616372
B 6.547455572414889 7.539169577804835 8.436313018325194
B 4.410008796355191 5.413321836570533 8.142280586562512
B 5.476659795055265 6.370621930026063 8.872019824996954
