23
Energy = -133.80921907 eV
B 5.113288622188996 6.356779651956795 11.600787501668501
B 6.495554196938654 6.811117286555512 10.758352783111484
B 6.495554206309174 6.434137006711308 12.376852072288438
B 7.877819798231003 6.356779729975998 11.600787501668501
B 4.937679117015833 6.47752030281841 9.998931471588907
B 6.49555421003991 6.455936746513439 9.170507284291057
B 8.053429296993524 6.47752039115804 9.998931471588907
B 4.94558362122962 6.453825080660158 8.374852700837366
B 6.495554199200588 6.641931738111422 7.574475358820347
B 8.045524792886416 6.453825169049551 8.374852700837366
B 4.945824151268059 6.4943953880175735 6.766463326525217
B 8.045284261436766 6.494395475452532 6.766463326525217
B 4.9897515203104605 6.546904334281153 5.161977983300135
B 6.495554202328038 6.558839332744547 4.282272662684963
B 8.00135688914963 6.546904419713107 5.161977983300135
B 4.893146446233012 6.611496561899205 3.5724631244307066
B 6.495554208854566 6.423167186115759 2.5096865553429746
B 8.09796195830665 6.611496651925846 3.5724631244307066
B 4.738468030031736 6.548941416297447 2.036677386221618
B 6.495554210207131 6.418810296476631 5.944336065230166
B 8.252640379254355 6.548941516082121 2.036677386221618
B 7.265319886901367 6.337040550523812 0.8784784844453148
B 5.725788534488212 6.33704050676422 0.8784784844453148
