23
Energy = -133.53710764 eV
B 9.349511514329869 5.804911064317611 4.479321954836839
B 9.115239069314933 6.809111500458218 5.672937181037429
B 9.013623886725012 7.912769929252977 6.8978114446430965
B 9.006568477756812 8.8713281192354 8.11985519875548
B 8.72181631094639 4.635689809637959 3.6374685647582337
B 7.827846977479084 5.828520983508375 5.369637469754257
B 7.623433798664851 6.984959035434505 6.486416803811815
B 7.6096705548378125 3.6263704262680894 3.2291554699169707
B 7.520523965591076 8.056074058066814 7.802350838898701
B 7.873348072836806 9.130019548236868 9.136929026731925
B 7.019656487519767 4.6677175166720986 4.436412448533998
B 6.369433877693308 8.683656678780045 9.067760119360331
B 6.160733530515242 3.4291012430066403 3.7181771190082973
B 6.267409488870112 5.458802073784028 5.787379316419355
B 5.956459994626424 7.3061317178458385 8.097846439972106
B 5.388893561313309 4.2103346443470056 4.869409617075672
B 4.79795738278953 8.477870515410794 8.814501623850807
B 5.331498079491184 6.082267991884369 7.137508287284375
B 4.652269312610422 5.041026210182513 6.030274095911927
B 4.321974401385928 7.388137570002018 7.557597322298065
B 3.260865816081481 8.111622705062564 8.629855013052772
B 3.6118606514259763 6.005263897476499 6.8364414150871475
B 2.706265187737234 6.985173161670914 7.691813629542532
