23
Energy = -133.53511624 eV
B 2.31460753863419 3.91845065700675 4.736765546307379
B 2.5926170795334644 5.046778726578966 5.8803379499046455
B 6.151053196667344 6.332240132334467 6.095950617454371
B 6.077789473488305 5.348809933079258 2.6894045714736703
B 2.9066765626498823 5.411467888491173 4.118879265296084
B 6.431011561755629 6.104674489120249 4.394190403283394
B 6.47404367091143 2.8031241151952364 3.7732714281836355
B 3.8037986770233716 6.763713770170157 3.8189994504677913
B 4.24662631322439 4.745900063049273 6.762022345992832
B 6.944991501998795 4.357567817634757 4.362662262563538
B 3.6336787324073785 3.7201762555055096 3.797167325844432
B 4.402059480083543 5.288347417863917 3.3027296623489777
B 3.2095209070224606 6.034727127863712 6.9854349687358726
B 3.589886979349862 3.459218846316256 5.646359795576264
B 5.375843962082678 6.68118320656716 3.247941794547371
B 4.687177523455392 6.546608633160944 6.660510122742243
B 6.694154527811929 3.8594941489044494 2.6434952484209817
B 5.042770976691466 3.604908560175787 3.1275672882444323
B 5.968108149990591 4.453273752139351 6.152296787820363
B 5.378684376465676 3.1153587786524977 4.930528284050387
B 3.4520641842828432 6.527473981420958 5.393611771482571
B 7.281873393562995 5.313185499386907 5.607734585014426
B 4.929115089758591 3.2765490224411735 6.529587777406484
