23
Energy = -129.13270824 eV
B 4.721808645301537 6.846634944470175 5.090944708691195
B 5.209451986085833 3.4960588428169346 4.806038046594987
B 3.9442145756451623 4.5918482238659974 5.3003440762037695
B 5.977918682890213 6.733963826698009 3.6162079781103706
B 7.953715170659149 4.530643926252865 5.647298318676067
B 4.454160390238728 4.953799690839048 3.5850065199367087
B 7.576793136504784 6.4965060561208 3.8126338403426283
B 4.257995929612834 6.136410204273082 8.382299103301856
B 5.166982738424229 4.114703880777108 6.36833417382898
B 5.698869935050321 5.819519062547227 7.73629177634639
B 7.436650474763225 6.1593811292568414 5.525349534447184
B 6.062850604811289 6.749404285724358 6.166867631358288
B 4.441064546887221 6.667076935946906 3.4146511773458506
B 4.646765815012952 2.2043465486971656 2.2263120081860244
B 6.574430009655981 3.629707899157609 5.764842974217887
B 6.792727630379482 5.034057866306166 6.765512648179724
B 3.967261243533837 5.097378891967796 6.993697533802616
B 3.0188243546339444 6.475148650459768 7.496050652515131
B 4.598197359980414 6.93933908627766 6.810887990535849
B 2.9591090385507846 6.183771994030333 5.922068323398631
B 4.792489385994718 3.3967479002159138 3.2127733916361714
B 3.322333837294746 5.955472992450767 4.37598893279507
B 8.479279842860926 5.405038512773294 4.4063368199604245
