23
Energy = -130.31790043 eV
B 9.439203480758394 8.558297093924466 7.686836242445846
B 8.23989049319475 9.847856736322576 7.686846697284773
B 8.805197674639981 9.077404672784793 6.026761749698052
B 9.649937098442471 7.686855976133119 6.114827299633472
B 8.805203555486907 9.077408593349555 9.34694013942825
B 9.43920740132301 6.815401789792988 7.686844737002609
B 7.178652537004053 9.203912910938907 9.095997906699626
B 7.987244291304224 7.68685270899589 8.57566390356973
B 6.708838390199665 10.251296405979428 7.686858458978763
B 9.64995670126555 7.686867737826966 9.258818394733739
B 8.239873504081661 5.52584084053998 7.686851924704452
B 8.805201595204597 6.296313160328067 9.3469610491061
B 6.276661914431372 7.686864470689738 8.92505872654633
B 6.276668448705683 7.686859243270055 6.448618985764899
B 5.5988593977241266 6.2545692979020835 7.6868591124061485
B 7.17864077531006 6.169821257859812 9.09603580549086
B 6.708829895643192 5.122446257375913 7.6868911303504595
B 7.178662338415444 9.203908336946906 6.27769418101543
B 5.598914939055982 9.119091687024303 7.686837549300911
B 4.989246905571332 7.686869044681741 7.686833628736149
B 7.9872586667076195 7.686871004963903 6.798071963783204
B 7.17866168498791 6.169821911287348 6.277770632024993
B 8.805172844397369 6.2963085863360675 6.026780699093596
