23
Energy = -133.04704363 eV
B 5.839209061075104 8.071264244474891 9.055461559366716
B 7.147407612219211 8.437317581596394 8.14506098301827
B 4.3785247581245095 7.631490783628382 9.602458098797538
B 7.964178224205943 9.005047083698274 6.842592375062485
B 8.092590653562176 9.355264131333303 5.307662606978686
B 5.198423431050077 6.454370933630432 8.796576677849139
B 6.7357328695314225 6.794370342631292 8.181019390927691
B 3.5999223138894467 6.3496843640869525 9.179938712958833
B 8.003097183018568 7.307978566345382 7.213604280515031
B 8.706836812750367 7.8417735667614465 5.706549347595067
B 8.10241444998775 8.309057553819624 4.143775082930878
B 7.474745210846198 5.652211654938281 7.069651038786293
B 5.211594260688029 5.033254880508672 3.684962272404531
B 5.856108545562847 5.363973322598709 7.684094470934304
B 8.685661620713319 6.239093787673331 6.0448730969686775
B 7.437084877500479 7.11806720926913 3.3365600777195
B 4.1119457252169775 5.273390985201982 8.08913776338294
B 4.97998741198683 4.432237247647602 5.129604858369381
B 7.862962047227029 4.995982486619767 5.559002939294521
B 6.638833889784274 4.710422266956883 4.512112266659105
B 6.454935543655699 5.872697166648133 3.2355210733914967
B 4.694405583683801 4.562898422523007 6.735380694287895
B 6.305828270016357 4.670581773704409 6.226830688097584
