23
Energy = -132.20224428 eV
B 6.332605692598518 4.0504111505588005 3.7814530974613922
B 7.175628196674547 5.209671667038285 2.89028776408377
B 6.352198901578831 2.5695785739072923 2.7843283166941024
B 6.080197731561271 5.9363590485435065 3.7638199721802
B 2.3587205405474476 4.913137985110743 5.62081829482673
B 5.047186941496737 6.826980123252106 4.655184929896717
B 3.990997059627165 7.139369496857835 5.731623866611466
B 3.3231433646959196 3.0484736884652994 2.0402067762380933
B 3.377068977161177 4.592189691414197 2.7919564167209883
B 2.9346442565304254 3.303228916944612 6.3491120633100255
B 3.101497709279435 6.1973616014547 6.702982065164793
B 7.360899459113027 3.7364297463004843 2.4626008101619505
B 4.343580034594834 5.455833129094405 5.718996578062649
B 2.4160011747243066 3.141812681428734 4.81992177940706
B 2.158969280287461 3.426956061681543 3.119998861647104
B 4.799254856660037 2.5272057740221174 2.2928776336947605
B 4.09026242183009 2.688775123877573 5.279889485624355
B 3.6326450009939877 2.696781080353465 3.6686994611786488
B 5.312765944028478 2.625527301664654 4.165218283464812
B 2.230376749277768 4.839181204898535 4.025703820232648
B 4.177097287729098 5.519532242376469 3.8682448525924933
B 3.1008253558279524 4.715666424476827 7.123631288661507
B 5.01214064311228 4.209166531164866 4.837214667271885
