23
Energy = -135.10790763 eV
B 5.972961089005334 10.712707908151849 6.901873430158578
B 7.082693669899768 9.80148379989962 6.168843693096472
B 4.635384347134445 10.184234228444247 7.547090928318464
B 8.220836792486693 8.70894902195492 5.634609114514
B 9.319822283909401 7.590942086044771 5.312709743270697
B 5.581742245953095 9.1406928784922 6.728537953028981
B 6.591056503052809 8.14586017967334 5.84788621078823
B 4.139933056914721 8.648117884654944 7.558868363998017
B 7.855725200562021 7.036334710617666 5.812002816559637
B 9.173987239595018 6.00103632557232 5.416869282878735
B 5.086025450161052 7.557266999706322 6.559643489202046
B 8.98625223693918 4.372725152615495 5.719925595825531
B 7.5620682295359964 5.393656232588631 5.628632654417926
B 6.257214251727832 6.464952469851193 5.939729706012608
B 3.8583961407053744 7.007480704202067 7.654971428372406
B 8.713250257320858 2.868418485921216 6.237443639962408
B 5.09835545896922 5.961630034631148 7.083182680441542
B 7.42498269988399 3.865061073582602 6.278779685652807
B 6.048084686086932 4.804510564757792 6.3187052608804
B 3.7552317717147594 5.42455526343478 7.86317581493665
B 7.360545053517893 2.3423225552935683 6.852384954053697
B 4.801277544428941 4.297465349444712 7.4140971080521
B 6.024340790853701 3.219763090823802 7.070203445936971
