23
Energy = -133.35926397 eV
B 10.295520506505316 8.061614620734376 7.093507604030427
B 10.681299258305314 7.196389528575679 8.278323814677723
B 9.026140678906154 8.165059279066543 6.213600341292974
B 8.926146473451402 6.910708231243416 7.527877587330274
B 9.84914129864803 6.064265840023652 8.859279454194546
B 7.884751303244892 8.393014717749697 5.115902274088185
B 7.655018148660736 7.16280173694454 6.245979877391535
B 7.346757783960011 5.954658070340165 7.378959633228595
B 8.402831644689142 5.554600667152425 8.63863462994099
B 6.849835007262044 8.668613753566264 3.9916959407631394
B 6.291596224173415 7.753338446319335 5.297131424365222
B 6.919814545226673 4.968863332826448 8.690080250522628
B 5.951222127884936 6.464024792233967 6.319536583236137
B 5.4256149129927005 8.059945322600887 3.7765473994716334
B 5.636934135029946 5.542687329731773 7.683748818656805
B 4.906209834644236 6.750204570792621 4.951440057654935
B 5.52878327957735 4.278277646044731 8.788231017412208
B 4.457400798604508 5.506730360243765 6.379155177517092
B 4.026600815004042 7.356071713546622 3.619252839588385
B 4.277764428883866 4.429592459239945 7.870091621018333
B 3.2181518527558106 6.333889676976283 4.391687070063125
B 3.091107216042423 4.591707452665769 6.840835665841589
B 2.857045255248105 5.33862798108244 5.554188447414575
