23
Energy = -133.02986274 eV
B 2.5960113610071764 4.623134275479068 3.186610485081887
B 2.6176973076497188 5.7642226898853695 4.729458509038272
B 2.255841334778548 7.323686187992943 3.7110918543371647
B 7.44451317986687 3.8278223618816845 4.282413799765462
B 5.733354652585918 2.325607839178473 5.9014260147089574
B 4.198728751940749 1.8767340823762266 5.820300128758518
B 6.997270680746317 3.342640475100133 5.824609509286728
B 2.1913303119755607 6.087851371816667 2.7776517826596208
B 4.4282970409381806 3.3103203415686036 4.84295980010808
B 5.296649902902266 1.625425640130156 4.328507208030492
B 4.554660038968668 6.715835501041542 5.142531177526351
B 7.162273559677544 4.910285232795852 5.51009054652868
B 2.840749595341946 2.5947860037243293 5.335765102484168
B 2.9163988664590197 3.0697266111301427 3.6054465652796988
B 5.448959332422901 6.102687534220714 3.580320756040881
B 3.7392726825500326 1.7836761275455237 4.00581767262192
B 5.989926627743164 5.991647410523874 5.225093523945419
B 3.827523478881384 6.305680648790418 3.3556301139297515
B 2.526456560846219 4.140865698310552 5.013057978097534
B 6.695413687370445 2.4063988250585755 4.419066908983197
B 3.1509966778640983 7.428110820594683 4.969480950651549
B 4.321364823425197 4.915358325250997 4.509898197950074
B 6.788395073663867 5.267758166845756 3.8914217175782784
