24
Energy = -139.21340447 eV
B 6.483502905841397 2.9097875663939785 3.5277311392339232
B 4.992671185016645 3.609271640802541 2.8441133752105645
B 2.2440651366863142 3.918317014046217 3.6557565293021277
B 3.6908031402672927 4.517353467385908 2.661529892967064
B 6.874155007367923 4.423578438218861 3.6647403036913304
B 5.109871666595068 2.2090381670724906 4.005705331766244
B 5.092931844941063 5.248633892085436 3.451364154803713
B 3.6174667648652976 6.319316464591425 3.3015410701943795
B 3.570567164685073 2.896948594763731 3.759136494212128
B 5.000374255408996 6.872968761626885 3.9055242463574906
B 2.342636863335426 5.433593165033612 3.082112477604265
B 6.510239612578611 5.960276555707227 4.120333314877569
B 5.961689978540749 7.041712721370028 5.269084572921391
B 2.7679257819641983 3.550751673195718 5.184942083962178
B 4.251032117982152 2.6838958940432587 5.37842676533134
B 2.452482711068065 5.234008693634473 4.753369297053057
B 5.567174829556908 3.888339023706982 4.7493543938024505
B 4.883234504638012 5.635835839132085 5.250084134709907
B 3.3804606271033855 3.215452586871342 6.704386559235561
B 3.240296200707896 5.05953630243482 6.177396646740765
B 5.448479044691928 6.673830048150921 6.6774783782708935
B 4.797109578070846 4.205528781501524 6.28235188711687
B 4.583906061334279 5.605863435185598 7.546104667026632
B 3.7923972135144606 4.3093507536918265 7.790717143845539
