24
Energy = -139.93641944 eV
B 8.819985978155554 5.499107968527969 5.252982165116084
B 7.782643573073933 4.360051132621048 5.924528790146426
B 9.421293649516192 4.451808473051892 6.376636090973348
B 8.10924036477755 6.769006177295551 4.486880545799091
B 7.2170731456549015 5.393719977904747 4.818774665927824
B 8.1863845436858 3.8877666699216835 7.487390602136243
B 9.80497964295269 3.9920429529111376 7.864402125604562
B 7.237352486008111 8.159899250062857 4.383999898762266
B 6.4407051558528785 6.697859226089074 4.389251877491579
B 8.785513485710863 3.8289540112447606 9.043343125672795
B 6.5568473976043276 4.2428056670874685 7.338572923230789
B 5.588580211856323 8.035004716915944 4.701887048885847
B 6.394224609817295 9.540054599010196 4.692643535550162
B 5.807524324558102 10.702210737842748 5.626088879781051
B 7.233189969763909 4.1358884345955715 8.963593045028098
B 5.143541474961878 4.969129836927407 7.173633129616951
B 4.968955924063352 9.264246569521596 5.676209906119749
B 5.809350965853648 4.89174919070301 8.708616321574304
B 4.798138033572586 10.485102248934972 6.801409114026211
B 4.3522241284808425 6.265557305184003 6.729623200156118
B 4.430613881646776 7.750503479370974 6.146489544215976
B 4.726453054080388 6.085485174842685 8.359287573680168
B 4.234164712365281 9.084321077581057 7.2813448445599045
B 4.183406751963584 7.540112587829969 7.804798511921919
