24
Energy = -136.89719744 eV
B 6.730984006547983 4.56426371806087 4.398382949524485
B 5.9849610900575225 4.4887523291984825 6.016967972232675
B 5.891668583885 5.6698113867102045 3.3979884729570435
B 5.735685193876812 3.9073559225378762 3.2090805028323848
B 5.900728887985757 3.177742618878857 4.88231160798231
B 4.938921051149555 5.881219517047496 6.054955670319261
B 4.987153978970894 6.688146746417857 4.59111638852957
B 4.985202977763983 4.831293497731023 4.624502201090753
B 3.9677166203155805 6.484521756694983 3.355047701052454
B 4.8060766146947875 4.956352830705072 2.1897327340725043
B 4.971104163833213 3.122576477482892 6.2798694972363025
B 4.684254810727042 3.179887812032745 2.2187185541459766
B 3.3806700560172107 5.1741111176638706 6.503999487810522
B 4.659390566937529 1.994229950718692 4.969859365808985
B 3.5131100915919804 4.163675046253742 1.5920256312048124
B 3.525655118589988 5.5551772421001 4.897262884412608
B 3.4836188894491493 2.380564025422912 6.036974939787772
B 4.168767942717519 2.0638726265323144 3.387498441570452
B 3.138127247369683 5.575156159709562 2.335422249553354
B 3.325199389063333 3.6219158848676214 6.9259338622224105
B 2.6528631566394405 4.062346638063092 5.375263924564598
B 2.0563619766180685 4.264611734079098 2.3696510869771066
B 2.9901494925156444 2.9019285666961805 2.660909947989558
B 2.065844011715763 3.909136358787423 3.8874937680071966
