24
Energy = -140.03277836 eV
B 8.875326517635239 8.614824325223372 2.6720507175967243
B 7.375855625198981 9.040977808635954 2.7648475301146545
B 9.412474659227179 7.3918478379308645 3.505347499935983
B 6.316365193735409 8.532604145603782 3.8686182998491105
B 8.046299898043703 8.215678344595984 4.064339751082995
B 8.733776941327552 6.733066097446632 4.849213312238397
B 6.960387906780919 7.265902972616353 4.874805933442989
B 5.323732206908336 7.798808941348164 4.933731505461052
B 7.487424785057659 5.735141245722463 5.53216895062045
B 5.8592499156485 6.41029407399556 5.71610529976643
B 8.957394144898554 6.323918019732876 6.487312516483979
B 4.390513211454992 7.156883948628278 6.121752649278444
B 8.993328886565498 5.961369359739293 8.027512161211105
B 7.7196628367664974 5.400503584603018 7.197491038223272
B 6.319054656622844 4.910929741108306 6.352254332031065
B 3.5725938912035273 6.674759812271832 7.390049563985694
B 7.754940140217113 5.489955987065798 8.895390026656973
B 4.970648656996464 5.730736033219546 6.9954595075059345
B 6.236684920665275 4.982435914246441 8.020106757956395
B 3.0383578200263486 6.219357118741338 8.787593310050925
B 4.742768091097288 5.605680502757275 8.786182501256457
B 6.366410330217038 5.0852946000041275 9.673097181251228
B 3.5951058448582667 5.602083854803192 10.077789369888043
B 5.021298106246863 5.186600917359898 10.476435471512485
