24
Energy = -136.41195044 eV
B 3.3795650226789093 7.323702134455031 5.1677436234668725
B 2.828896570541267 6.633920661236433 7.391020976693299
B 4.780040266620811 6.136064062704555 5.052459625812405
B 2.6514363553480713 7.846922659680159 6.442815832464598
B 4.0093797917947605 5.647252469220997 7.960398674401364
B 3.5190340378571254 5.169691533693568 6.276369555110047
B 4.407019691747225 4.125253450656591 7.194707969853671
B 3.129639469415019 5.655053475613868 4.644607571645062
B 2.2297156957266915 6.303536052313984 5.82990636538452
B 5.986816790681644 3.940777686925968 7.00020789598659
B 6.855023998391994 4.39693525290763 8.53851125647921
B 7.703444025045373 3.828596926119195 7.34720890715207
B 8.714753380790636 4.457700807051984 6.308688128883084
B 4.084588831563946 5.883370132826032 3.3671862868108966
B 5.883221432033625 6.165527443546558 3.6967231651138723
B 5.41808764230287 5.68710273078883 6.62354931447455
B 9.568482174275339 5.19281155500467 5.18641179488451
B 7.004595363008668 5.166460822161128 6.397011463210872
B 5.380448881173971 5.032537971047397 8.422624293626992
B 5.061715247986972 6.3801477294274305 2.2128558189139804
B 6.559031157763986 6.589560354106578 2.2509624527615077
B 7.910327889322374 5.604390971637422 5.015352472241452
B 7.6247161268074635 6.202272111994375 3.372303150561105
B 9.09595659178657 5.863265141107663 3.9170199949296673
