24
Energy = -134.11566586 eV
B 8.182308074600508 6.626205772967651 3.872810012109838
B 6.95179841495132 5.554116134339066 4.715559272742226
B 8.444788533852096 5.249656190175702 4.4309417650788125
B 6.885935600825973 7.4275067126052186 4.078825433184511
B 5.391070580157942 5.071874049589626 5.119743212372963
B 5.5876260137674825 0.7698214492407262 5.4737793758278865
B 4.242454372822469 6.2872608679692075 6.111920581426412
B 4.242691270263412 7.839788036381731 5.683468817795334
B 5.132290557106725 3.525386964840818 5.670706677531162
B 5.4945240223681076 0.5402997381367606 3.904918278469404
B 4.355458883740751 4.755232767470661 6.642784299414728
B 4.02377161135363 4.098907434952216 4.283768895581823
B 5.4552377792914175 8.154197315490482 4.2930732290646985
B 4.561872189316287 1.4137897544608482 2.9938490402223885
B 3.827025025946138 5.744130742239544 4.3797056452627015
B 4.800518324117418 1.9288373815831303 6.2444219376400305
B 4.146038086383459 9.01117124049769 4.41441157232026
B 3.850021637660214 3.2131532544254786 6.804608955928661
B 3.6579938423725133 2.5907326102823998 3.612203450729504
B 2.7759766010428506 6.838033560430902 5.188436913029913
B 3.9346032072685833 7.343132332263043 3.9356721256129834
B 4.248939451941499 1.3890012503846771 4.614560961492019
B 3.4401644662278503 2.7017910321023244 5.282928850134069
B 2.764443152410793 8.351706493734685 4.867995821360488
