24
Energy = -135.47180158 eV
B 8.02043825791796 2.854599156398463 3.4437068026539843
B 8.22157579094204 3.659997346331659 4.76605814280398
B 6.494853848313448 2.4782885428314505 3.4752586701524075
B 6.950594919244744 3.7087592918057357 5.995271316780568
B 6.933982329925039 2.39801580774624 5.0714390945778955
B 6.794126482807559 4.201855835976568 4.087592381575312
B 6.627113233479649 6.3051510639911585 7.606828434752973
B 5.45121846805487 3.2068204240486735 4.652220905312546
B 7.031274602306437 7.855977834708054 7.562309498304612
B 6.297712195562278 4.762721486112341 7.11055826958992
B 4.756934039828354 4.393542765450343 6.57552737359467
B 6.283371171527789 8.926008813941424 6.727279972073423
B 5.043763602081019 5.87352738730788 7.088065059182806
B 5.5035631612762135 7.467977634802487 6.935731053708321
B 5.093598197826032 8.645524307594677 5.7469554146223
B 3.799015656922745 5.511513667143107 5.870873189510962
B 4.044251515291008 3.959293184333334 5.118851549219946
B 2.716130447413604 4.858845085679342 4.574017167028511
B 5.346128811643861 5.015697010658463 4.140381381318782
B 4.163346808664324 7.526808905853706 5.11125447685661
B 1.8579374327429927 5.88789825360827 3.7353323662767646
B 3.1001521825202 6.504214305799712 3.089543547946956
B 2.826778213167485 6.568243177678806 4.948013092639032
B 4.5591784355509635 6.428338710238749 3.789286294674141
