24
Energy = -138.18417647 eV
B 8.121997764836486 9.82937775934829 9.314762551370338
B 8.543140937137451 6.443519610746943 9.86549515521443
B 9.304622085782816 5.773417932218614 8.640960439166474
B 10.137686758723417 6.578934894206241 7.565085816602563
B 6.280007384068745 6.837058133304653 8.847688578324231
B 7.052395825354563 8.931920181088996 10.186251120778929
B 7.980886065879511 10.473958553812801 7.8617912201546645
B 7.614566258284899 7.501401266667458 6.940899225421573
B 5.487825592961523 6.664042808702889 7.475679555571954
B 8.807759775657212 8.598493787523255 6.039429971221094
B 9.520486271486469 7.535970403177552 8.863891980612301
B 6.6154692324006 9.635664328943744 8.615900425973937
B 7.946095481691266 9.979910703575625 6.291699551529381
B 9.41926483789812 7.127813028613719 6.15489543983518
B 8.558842393310837 5.9277651175039985 6.982381103513454
B 7.59369117498287 8.032494140374425 8.628505874222359
B 8.619017513063204 8.229039236909548 10.046753949204264
B 10.0615276195069 8.269467754768536 7.3487516458675906
B 9.328763545594928 9.760601718709072 7.168756321457224
B 6.030886101002745 8.344656723283142 7.697598151734446
B 5.98076430261576 7.483022988876222 6.161861589250481
B 6.948906209124292 5.932161306394478 7.105462913534895
B 6.862665520072839 8.763013254882562 5.9108200103184725
B 7.116128576004862 7.279691307236547 10.218074063417085
