24
Energy = -139.71470923 eV
B 6.081065987092471 2.9855163879739797 5.226159096442631
B 6.9765273902077904 4.540048130883872 5.368290074355607
B 4.964410260609925 5.72597767631244 6.382976177324581
B 3.2056255275346297 4.497505903383234 4.658867590833003
B 4.854509558346056 2.7877200930010666 6.444689419928545
B 2.862444436819273 6.155547467328279 4.353984200039449
B 5.682258145105993 6.499151802746966 3.636764652157245
B 6.525022852797065 5.086500087080629 3.720207694189233
B 4.003981426755412 2.99514783967668 4.893070117489116
B 5.442773737807525 5.280873674529135 2.4144697328906615
B 4.775794854243201 1.7977389339573966 3.7568945829161993
B 3.977896595259484 4.248421329184662 6.1822563318718196
B 5.017479688801099 1.654878410675472 5.279735906280331
B 4.140197541067191 6.101389080444837 3.177823737033699
B 5.741184398337928 4.164658606176819 6.623907501284463
B 4.988237163246676 3.814130789529751 1.5610323447455994
B 3.4510949362565357 5.779252901825937 5.811929644415026
B 2.668394396053828 5.229032513330643 3.098776136934617
B 6.09830767220138 6.313704009677226 5.186679280666869
B 4.972639363548362 2.452550209759578 2.3076728554163832
B 6.169512420362376 3.652600904255688 2.758400021960381
B 7.1374593698309505 3.596390976394882 4.0651970992203275
B 6.581904662958219 5.5842491724312815 6.567076231979754
B 3.807995779539734 4.806428866637515 2.0776248303926304
