24
Energy = -139.97193107 eV
B 5.619790849231549 5.789204297409802 2.380202652960409
B 6.702169723661539 6.565560042269314 3.2442586350174856
B 8.01201336716528 6.87852137562924 4.1837303288534295
B 4.370420133150393 5.035681806418253 2.919037859249446
B 9.270308495375149 6.853000231067274 5.101036261475452
B 5.327113134360644 5.859320964642465 4.01252619937553
B 6.3648111479207365 6.801151346031277 5.041330742733175
B 7.890403594683634 6.235465168461031 5.756031874608312
B 3.747651944140104 5.182543769886262 4.385917221327631
B 9.335281666691175 6.626558564437527 6.672565596242899
B 4.974840289467552 5.652279658457144 5.727711691946195
B 5.492023309157567 7.285497537827664 6.448244493994313
B 3.2334798584319184 5.932144131427087 5.676752038062655
B 6.463008798753883 5.745560753289606 6.550359993792834
B 9.303873220523927 6.428080798179442 8.283082885658056
B 7.8346974685831245 6.1656389635727775 7.498410587140432
B 3.8391125170850704 6.820651647771945 6.791521920439989
B 6.29121562100218 6.78271373057051 7.972041901932444
B 9.273707999839113 6.740435964490348 9.81583602111086
B 4.741045163910642 7.496032315207522 7.97255270119533
B 7.7258062774887115 6.934259049944171 9.068171318631487
B 5.475123570548233 7.558732423373292 9.353532051704406
B 8.096942188659511 7.191318968370698 10.717790049757587
B 6.615088704981869 7.439575536079467 10.427284017603778
