24
Energy = -139.08987892 eV
B 3.8778060520612314 4.309849648519626 7.058484965057836
B 4.332435228019733 6.319249253960172 3.2010427484891686
B 5.051628911761096 2.432989133683503 2.3457529143355735
B 6.120926587801158 3.2427682827176807 3.4497094073698515
B 5.006012765580366 5.542456633295941 4.6799113331707485
B 3.4972723228496534 2.053262011195863 2.7575632004176307
B 3.61878728566312 5.404071862787144 5.7965018932602845
B 4.195694846746812 3.4291376319867726 5.595378453953615
B 5.755549728677901 5.48941647314949 2.9878520754074582
B 1.9563390582463043 1.9557426565888711 2.9671257241424125
B 5.2285873591830505 4.053186955089881 1.6802898816474225
B 5.196379547184989 4.722889643518099 6.212658303299579
B 2.2350261960106486 4.932745477055003 4.621186625626048
B 1.0565915547907623 2.5910112589903913 4.060377465360903
B 3.2872959528949 6.22231741194195 4.4442850929045505
B 5.653654737086575 3.8911206268618908 4.825413955634604
B 1.3652804594635142 3.6500278232331627 5.1738790610471845
B 6.861124328665793 4.468801687286253 2.3635473353817456
B 2.590961189707617 3.436473199919 3.54714676577568
B 2.5741896542131353 3.8483411418517646 6.276155548100165
B 3.0908837382520113 5.08109431947368 3.140934364236723
B 4.270827158557202 5.300213781951336 1.9415334912357096
B 6.51587033912311 3.016079041095741 1.8585853248853859
B 4.398671920943359 2.9274797813959856 3.964846543547711
