24
Energy = -139.92261788 eV
B 6.472294064070903 6.381997278805216 10.74394013916822
B 6.471776646048362 6.520860492862722 8.96530274512862
B 6.4725850434648535 6.300794845790671 7.2792190303562725
B 6.471333990278371 6.64312418795238 5.664700003386776
B 6.472142387694686 6.423058540880329 3.978616288614435
B 6.471624969672497 6.5619217549381945 2.19997889457483
B 4.730421486713758 6.364864420795289 1.726607920486901
B 8.042539759474785 6.389903008735549 3.271402654871677
B 4.902040621533522 6.378318520859399 3.2714028010489664
B 8.041878412209527 6.565600512883662 9.672516232694084
B 4.901379274268264 6.554016025007507 9.672516378871366
B 4.978231141923947 6.481368715877629 8.085538899087323
B 7.965575810516549 6.492326030701555 8.085540894252611
B 7.9656878918191 6.462550317865432 4.858380134655725
B 4.978343223226514 6.451593003041495 4.858378139490441
B 7.986237377798104 6.477509824790735 6.471960446224372
B 4.957681655944948 6.466409208952311 6.471958587518682
B 5.706926743897832 6.515742816203357 0.5501390337430508
B 7.236644613991918 6.521415745561157 0.5501415621775896
B 8.214236935687477 6.377742903063455 1.7266083016577216
B 8.213497547029288 6.579054612948119 11.21731111325615
B 7.236992289845221 6.428176217539699 12.393780000000001
B 5.707274419751146 6.422503288181893 12.393777471565455
B 4.729682098055573 6.566176130679599 11.21731073208533
