24
Energy = -140.02954883 eV
B 8.482807342691029 3.4315294187877696 6.666256808248352
B 9.011189613555437 4.424190832280234 5.495222552649414
B 7.204666101538187 3.270691499453454 7.629815064216208
B 8.611831734312556 5.762143202482239 4.728545354654252
B 5.744053189108883 3.9046792574110105 7.959335471008419
B 9.562119786393552 4.684329684826867 7.067204526456529
B 4.526626751199227 4.918635773189599 7.671824253564298
B 8.557006930374655 4.117533290295449 8.199302002341872
B 3.5708637689280747 6.0317037532982445 6.991503486245449
B 9.707434061422697 5.88705380573414 6.003694300174049
B 7.1162892665747615 4.494289235315158 8.791907234135772
B 7.618993327103321 7.024344233092776 4.571413782600395
B 4.340918397079425 7.592394873915845 6.831759181279027
B 9.06837974709758 7.263295852248524 5.424317294640955
B 2.787175874485152 7.202399472977009 6.272245531846683
B 5.825664862066991 5.4438474391506135 8.65062892656469
B 6.447328998840696 8.023360920402201 4.9408737282935755
B 4.936777949117797 6.560692560072447 7.936664668020652
B 3.239599132478147 8.68716651632732 6.003383179573982
B 5.178930803656746 8.734067019407162 5.734801087116442
B 8.033018162859952 8.500333647995104 5.349114302243662
B 6.857702983605427 9.581261398480887 5.559821347552959
B 4.037822311326897 10.034199727472854 5.845453325285925
B 5.5343905869538075 10.427448268153935 5.676504274057007
