24
Energy = -135.56650516 eV
B 7.603208464306953 3.3418091896094673 4.2596084519771935
B 8.130913704008735 4.261017549744527 5.487196742825112
B 7.3417797375803735 5.018237834645996 4.037765394875732
B 7.997214563287478 5.935350230028081 5.310491926957415
B 6.852189543168433 6.852906943171526 6.0869181823519085
B 7.3697629099890785 5.111829917567634 6.697983821973645
B 6.524154036096303 3.830012886152703 5.5568954009838185
B 6.169184997076562 3.6372931686807424 3.6706453227353495
B 6.921436448994065 6.596923800279654 4.245892563198451
B 6.717346292962266 7.792642931057242 7.495234952541778
B 5.613607132466676 5.614671438519896 3.81056784789511
B 6.606103876602789 6.050297206065629 7.789385565161703
B 4.920910255919252 4.035718423374309 5.343399530374869
B 5.449589769976107 6.948590387829639 4.911116206467742
B 3.3963035292749963 4.015722190982751 4.985932047972784
B 5.185624741374857 7.602503111287173 6.390353925509425
B 5.518279707651245 8.711306703576613 7.969918420149188
B 1.86647630392365 4.2337510610223745 4.180010704158771
B 3.058294662879714 4.0754697645046924 3.2177027457297083
B 2.60589629721924 5.5206456143665585 4.533979053963509
B 4.676417129060323 4.223103477070358 3.3200439309801797
B 4.216054952199308 5.70632422718091 4.800520214618448
B 4.212238936213262 7.906824534942775 7.706683391137347
B 5.207805927667192 6.743490853918731 8.116468169858628
