24
Energy = -140.14752218 eV
B 6.5904902558880005 10.81734999922669 6.909136158733743
B 6.374638857679751 9.35210013218617 6.239555723337548
B 6.551457901302629 10.726014739022673 5.357452980237049
B 6.474471824858266 9.353151176882402 4.504127564660693
B 6.366969263790312 7.879220204148514 5.507841675106039
B 6.57778191893868 7.9046254129289375 3.7315076083790615
B 6.200043158198364 6.474151682666064 4.632431302538427
B 6.366969229980455 5.06908315915815 5.507841675106039
B 6.415387413513428 5.069365863165954 7.230686046952043
B 6.152557506911114 6.474151683860959 6.3569425048688535
B 6.578798302008246 6.474151680217241 8.556843061610074
B 6.415387447019221 7.878937500289815 7.230686046952043
B 6.497771796446067 9.572471939880897 7.934723289411198
B 6.498993192358954 8.276825211052323 8.900009130351316
B 6.5199366985359175 7.234586782937323 10.081877729109307
B 6.519936680455848 5.713716576991099 10.081877729109307
B 6.498993149343502 4.6714781494455 8.900009130351316
B 6.497771722365958 3.37583142125058 7.934723289411198
B 6.5904901520066925 2.1309533605930513 6.909136158733743
B 6.3746387888138 3.5962032306487175 6.239555723337548
B 6.551457799672449 2.222288620276715 5.357452980237049
B 6.474471756086391 3.595152183853078 4.504127564660693
B 6.577781884681948 5.0436779467321635 3.7315076083790615
B 6.712443635540174 6.47415167898115 3.039587654823743
