25
Energy = -146.00953207 eV
B 7.185529787820412 7.972852636067556 5.012249370726799
B 7.6678516773363885 6.44413151304064 4.890933671348728
B 7.590589171632661 7.90451084562767 7.8538255485029165
B 6.355287780937746 8.941176993663122 7.361519132130657
B 5.666017641800131 8.33198263757396 4.211481490390909
B 6.187429683521754 9.134517302894185 5.68452562617728
B 7.911703806957561 7.103555731038984 6.45551945374055
B 8.241244947039148 5.503513678958996 6.146343660918915
B 7.503749021685901 4.674361644518773 4.8845506840325195
B 6.623978566434481 7.084605307378887 3.7104441527791585
B 6.061604062513431 7.84087476716758 8.59681714238598
B 4.622172834596868 9.144434065499278 5.075858750673421
B 6.646242678995908 5.44818741383434 3.547046252371918
B 7.5034265529401765 4.068612436218517 6.522260090195452
B 7.5051953596727365 5.3834863525553835 7.646693704045742
B 6.522602736553692 3.9195340242477674 3.800597299856239
B 4.776068100439403 9.326004062190773 6.635233880489143
B 4.719816205021137 8.773403034594422 8.193003532551298
B 7.193710880915543 6.594720633533152 8.799765648009778
B 6.569272487704265 3.1845664966742473 5.213774111421987
B 6.4054170580922065 2.8271920217446564 6.764227408494131
B 6.576570707177612 3.825831053550928 7.966187166278564
B 4.526025778554516 7.612103572075674 9.219670793418343
B 6.464522355301766 5.112438385302911 8.975599760232186
B 5.497576810589307 6.367010084280954 9.35547836306046
