25
Energy = -142.67221162 eV
B 7.02330601336205 6.61982058521524 3.5158770721465396
B 4.190423245202625 6.313861287556066 4.775408179429876
B 5.836508370880277 3.41727052220783 3.0656890445254223
B 5.310038799462363 6.85346834666304 3.646981427351613
B 4.474557672590605 5.300146457617676 3.324898186386322
B 2.9591299224957197 5.300993731249286 4.378039480871882
B 6.66773610533611 7.110839564347462 4.966225007279451
B 2.9694357182509576 3.4876035545675927 4.893227319119097
B 4.324269451038408 5.829755575536216 6.659708740801233
B 6.948321078631237 3.887932734360482 5.692836359561675
B 6.492199554720702 4.983689932311307 3.3465502845481327
B 5.6616577503064285 4.7953644285615145 6.3254245902723305
B 5.59034141007091 4.691546751772405 1.873590888452415
B 3.0352853424320076 4.225111618920475 3.1865830089078786
B 4.274708123274177 3.031031079458772 3.7488802773252345
B 4.283317959512492 3.7932023935793886 2.236052926022872
B 4.371250332393021 2.610304438464163 5.343851631920614
B 5.650873445133938 3.1267149162055214 6.243189396487362
B 2.3053067663007676 4.296327972285865 6.11336241629967
B 5.630881783330938 6.468238607871774 5.988431626556389
B 2.9817220932869875 5.135252686549358 7.250667664177898
B 6.952841974403273 5.361872264481978 5.032724225716453
B 4.022865575506973 4.020572973212899 6.389653435046754
B 6.01657996309119 6.228726097532554 2.241869600055092
B 5.849989495807197 2.799229424148572 4.564801922006628
