25
Energy = -145.1782542 eV
B 7.330130813144112 3.7627235403525345 3.150301660899475
B 2.8635665576039067 2.4330000722997824 4.361812189171554
B 5.321944473406799 3.004537704591238 5.668322405718697
B 5.020405702262572 5.860362714925469 7.031859773933756
B 5.409085343694585 7.322053705209969 4.513623175320915
B 5.822625584072791 6.725626942942682 3.00412167387737
B 2.8975116074004017 3.274544379633776 3.0268429986412073
B 3.8240101298226845 4.1846540599505575 5.760587597063938
B 6.123568790783806 6.691808721122135 5.889763068215669
B 6.7692763636597535 6.363327096097307 4.337791453399264
B 4.397138638079778 6.839583907223409 5.669913808754275
B 4.911673973374282 5.418080267823155 2.632903666522758
B 3.5316935315513693 5.672113767803063 6.456605633054499
B 6.305895740172058 3.3002767179443095 4.396741990260164
B 4.179037899436717 3.8676141649293005 2.308644413545185
B 5.79573473097762 3.8092644903518282 2.6611608985318607
B 7.527042242417009 4.6721660948178645 4.4701208115648345
B 6.313998911784856 4.293454084710955 5.951135646505557
B 3.740599664208132 2.5328371790644546 5.647206818692162
B 6.5727001920672565 5.535862422208231 7.114282747714742
B 6.63223761800254 5.299613635950147 3.01087586405766
B 3.4142167735933437 5.6968196697961995 4.8444581622983485
B 4.383950270960033 3.4129473513090316 4.135598714190708
B 7.51849891810088 5.540763693141154 5.820706906665675
B 3.405280521276502 4.919131481786808 3.4506305957818704
