25
Energy = -137.94706297 eV
B 2.8004594843814403 6.215956542211154 1.7114125512494527
B 4.2141870663746 6.791639222740131 1.5136168314821878
B 6.1930210902073375 3.5903640848090483 3.4537855288037766
B 3.1351772342922017 5.241336312604955 3.049765424066739
B 4.625127998742429 3.939905539655018 3.479537617496867
B 1.6571887976683417 6.314263435222011 2.8708924862346175
B 6.010461868377425 6.93750765398211 3.9796086649886595
B 5.235425973520255 7.155099785938092 2.650100850666155
B 6.849489255143412 2.316790741195918 4.221260667891789
B 6.350574031063758 5.22036995351051 3.750697054936762
B 0.9667280792436499 6.403936864650121 4.258053899505736
B 3.4041928117584974 4.354837350408645 4.500932397848592
B 2.045299563656486 5.348951292340612 4.37875965649037
B 6.583080213139814 1.466047725812677 5.487976132445038
B 7.044989985824013 6.24412160334228 4.9453910290051555
B 4.108789402876089 5.2494850462333735 5.983346915229182
B 3.237204887388691 3.7363996920530846 6.009001766112651
B 6.698629266243461 4.781987249024197 5.454991937344159
B 5.400414796425026 5.983686346675156 5.347126359500941
B 6.913083771243652 3.1289570135182943 5.789276010853997
B 4.532267149152722 3.127771873252949 6.981138908086481
B 5.832821089418543 2.1699000764312393 6.687388059664938
B 3.544317664563063 4.45361158123929 7.415436362931366
B 5.060366605768076 4.691513076731331 7.696063941321801
B 6.260545247958668 3.8394032708489325 7.088282280273036
