25
Energy = -145.9202652 eV
B 4.356702501483983 3.3752010133938244 6.83895329615581
B 5.778839703985887 3.693097324135627 6.267071505630572
B 7.227541287818819 4.12192305576986 5.7393819952873475
B 8.700980226685223 4.370347575149648 5.116814526565239
B 10.136610820739287 4.817598988702252 4.529315024479667
B 3.2519126951393202 4.072522914238508 7.626609823239612
B 4.710866086613517 5.018409203042823 7.1218070819629435
B 6.252529152078417 5.396721202126066 6.408368531365963
B 7.79907243000445 5.700191172271338 5.905560085118825
B 9.300629407454025 6.019187290580277 5.254964470374228
B 10.733322166184676 6.27062110094466 4.527375287363776
B 2.501948226477528 5.217001872990663 8.392274423773427
B 6.877237947739357 6.990514120209849 6.522720031630604
B 3.8708287400555967 6.484748417410014 7.887359923251599
B 9.993247130348985 7.590760511499929 5.101321997187365
B 2.3987660200536 6.689044287699729 8.802753970133331
B 5.344228252750312 6.610893622672199 7.118615099668754
B 8.409219534954351 7.289358669845038 5.89894445084661
B 3.198957473340635 7.946552563746189 8.469112525210015
B 7.396700800409099 8.597448439871945 6.294092392433806
B 4.564002321372322 8.086618645079149 7.645630326716656
B 9.103816227726718 8.866080297399561 5.563002247514559
B 5.7187131213247016 9.064347328587669 7.02092555440697
B 8.149908477632566 10.078966933632229 5.930353583926273
B 6.7205275992868 10.128951800660833 6.513780197415769
