25
Energy = -143.11006926 eV
B 6.224108867643786 9.968266522498146 7.754749774688056
B 7.769699760068974 10.562440819516508 7.835383770665893
B 10.418277894503433 8.686460127167937 7.698086373591343
B 6.568239285844196 8.243822408242858 7.083192899147595
B 8.77760491436571 6.730451549727083 5.934770431181945
B 8.10872715290624 8.226698786976359 5.393961539386491
B 9.67422424733614 6.530103119580523 9.522443487757227
B 9.253400038557775 8.365749586874125 9.130026862655829
B 9.51361832864822 8.167462038094836 6.3354887639220285
B 7.783920490602747 7.789569894853275 8.22390396744079
B 7.9470555159976675 9.24663192790969 6.694217926266359
B 6.373325566745327 8.56250296051151 9.078148449350714
B 7.870876396342999 6.03366544840093 8.125944123570292
B 9.199742985748513 9.86513360765884 7.939019061260297
B 8.070473010427 6.279563019223674 9.914105887776264
B 6.60301003539903 6.757461708480647 9.398397631123284
B 5.3357023707014655 7.251832627477993 8.247462890422824
B 5.101270156524833 8.874732050061631 8.005461013927967
B 9.27020085575563 7.059429649084758 7.74700073444983
B 7.68216416320668 8.049302841231759 10.003883750843743
B 7.6790493148051935 5.63923199329969 6.518241513064803
B 7.958935884436929 9.456768841270355 9.178364555563531
B 10.68865498867995 7.4819368543527425 8.809899421336453
B 6.316635377731951 6.4927847415373465 7.0537077234651075
B 7.102497921934698 6.969412400883666 5.665552972057468
