25
Energy = -141.61416606 eV
B 13.766651703879269 9.737432015926444 9.659252516532936
B 12.300676160604459 9.495287290158334 8.703582445375648
B 13.076653471050273 11.025823413296205 8.75097083521283
B 11.19491557098194 10.82214251292118 8.606307481989463
B 13.076653471050273 11.025823413296205 10.567534197853048
B 11.96289782335483 11.834853922928724 9.659252516532936
B 13.072479535414436 8.294769457615379 9.659252516532936
B 8.925548694462819 8.85711988134169 10.922028566921941
B 8.276110435780044 7.662107736391689 9.659252516532936
B 8.925548694462819 8.85711988134169 8.396476466143927
B 9.829154916708584 8.062997808232504 9.659252516532936
B 12.300676160604459 9.495287290158334 10.614922587690216
B 11.4907211529149 8.208648038623753 9.659252516532936
B 11.19491557098194 10.82214251292118 10.712197551076402
B 6.8488156128790765 8.570751237326405 9.659252516532936
B 7.400098429324339 8.62541925552509 7.951108804340558
B 8.445168232078448 11.248776721346605 9.659252516532936
B 7.6438898870340894 10.266354249273782 10.641900411773644
B 7.400098429324339 8.62541925552509 11.36739622872531
B 6.105193883230765 9.484099004684074 11.050329242681897
B 5.430951836945146 9.756964031752362 9.659252516532936
B 7.6438898870340894 10.266354249273782 8.676604621292228
B 6.105193883230765 9.484099004684074 8.268175790383992
B 9.532523653823867 10.49284924437166 8.655141394768634
B 9.532523653823867 10.49284924437166 10.663363638297245
