25
Energy = -144.16208908 eV
B 1.8691144140550215 3.3156933549938996 1.685713593532977
B 5.241643029398354 3.730803597219607 1.951917740623936
B 2.569139184546357 4.794223730221156 1.7073998015375131
B 3.944069125082695 4.782221532253875 2.6854082323629096
B 3.6629317164875608 3.373297688782608 1.659861702870425
B 2.791859259187497 2.058043354398947 2.4554163997717504
B 5.5730885465484565 4.81693477644588 3.180879529324803
B 1.5910224992313562 4.459871342690418 3.063414625158755
B 2.609623037160036 5.824945899358096 2.971983828694717
B 1.3068803649623253 2.8363530394234875 3.1758732638052423
B 3.8393056944792514 1.3034580376581548 3.5038658464709087
B 4.280987217646256 3.0611891255717127 3.399909247594412
B 6.171686851921442 3.1147895720796384 3.2601242060185345
B 6.281553535011335 4.218610604220033 4.58526117320581
B 1.7413687431880163 3.655048916441964 4.6236300621390045
B 5.299887076652746 5.652516785559468 4.644391261030954
B 2.3804037007149157 2.0681503341421266 4.139759996008189
B 5.362357065495178 1.7823808369454814 4.013943896707247
B 3.786094570209655 6.053406054445571 4.0686170230000105
B 3.400561642823366 3.12016856168047 4.940955958294537
B 3.910818446798645 5.286961868391092 5.591440887957176
B 5.457487790509258 4.482146158826487 5.929806110365614
B 5.110653182271403 2.876426122519555 5.287018370790181
B 4.020543789651532 3.7354071841963012 6.35927935708601
B 2.5631381592887186 4.36317016485535 5.880346528969975
