25
Energy = -144.5513653 eV
B 6.100229222631925 4.844217767079678 2.5836676767917828
B 4.614820459927579 5.487342399051852 2.6199258104182594
B 7.392516084156464 5.644275216199977 3.243911970014965
B 3.116078328053602 6.062036719564576 2.9052032343984338
B 3.820989156986377 2.973153851124447 4.077981252858119
B 3.501174240153491 4.47071045903069 3.443361893553742
B 5.87942078723346 6.245277346670583 3.6199175526574248
B 5.125212827646017 3.8517920583071206 3.5707611901501837
B 7.285361730812631 6.299894092018733 4.647049496249954
B 2.619337722042618 5.807663020181564 4.423483799322144
B 4.287849087153733 6.626760725854511 4.0785643107503295
B 3.3291340571788717 2.6126959549145745 5.648088993859826
B 6.890668541679493 4.199114102448601 3.9595930681673663
B 6.852695759936989 6.39795747977766 6.196371738652581
B 2.831099731783954 4.126697395583302 4.9865443453679665
B 2.398991380748269 5.401216093810182 6.000958135689783
B 5.4471461975565205 6.732470904901763 5.243759023392724
B 4.990299945465225 2.7803370542872448 5.492288984738459
B 5.353001520817254 5.671739912202495 6.540664920137066
B 3.919456628744825 6.073715638696088 5.749243441618543
B 6.508569356048288 3.474467894135341 5.392148245988338
B 2.8204882188046474 3.960418454790385 6.647033921889612
B 4.1381229293413275 3.080766033286865 7.003603758194511
B 5.514888456803086 3.8992731497025654 6.8737657543026955
B 6.789478935598386 4.80303758368405 6.579138788140214
