25
Energy = -146.26159794 eV
B 9.769465783243486 5.354742179603288 4.7687628958790444
B 9.535933636308334 5.0509543394015735 6.313199159927985
B 8.950833289471 4.833777767701212 7.840790387534394
B 8.87180247801763 6.258279516434078 3.7674205538516556
B 7.7460985641000635 4.451243803260081 8.9063789907429
B 8.55497047893824 6.196875577459318 5.4976035797990965
B 8.63316967037845 6.360903681998849 7.159072397773403
B 8.23734498546623 6.03257083116547 8.691923767463788
B 6.237588260241093 4.249111893591995 9.429513618373024
B 7.710239935641997 7.000794106067669 2.944417237626529
B 7.7032519720849715 7.350685657666035 4.55888616458798
B 6.7030463069650015 5.857355913141338 9.244848809554451
B 7.4892895234951125 7.230743200972467 6.251788149716358
B 5.096053847380112 5.323154950078641 9.33315013107419
B 5.5251759718782365 6.601207950824793 8.288645830505084
B 5.9367717255631 7.405803639469523 6.843954266776162
B 6.283893857889198 7.942536628078422 5.252005030806506
B 6.416961712956789 7.7214326145760435 3.479872511689261
B 3.855539233815973 6.104676715211303 8.519653592460546
B 4.364010761297373 6.946436068485706 7.1477020460261995
B 4.698256353871354 7.940884116664588 5.803541692658367
B 4.934035415352833 8.105327897428275 4.108787751619535
B 2.7760197159205156 6.711420616736541 7.531450608903444
B 3.003649811713576 7.482322760734958 6.128865624291339
B 3.469569917761972 7.989730783000322 4.690738410111533
