25
Energy = -146.27454603 eV
B 9.026559178548947 8.549895324024924 8.482347401212097
B 8.733610262463518 7.939136215369034 6.852571522344636
B 7.732969044375609 8.686483789679516 9.446503172179135
B 10.235421759126048 8.157673404852952 7.51215347299264
B 7.4628450903033805 7.940720145418766 8.007495016092506
B 6.293482684140152 8.052198680751998 9.20600363838255
B 7.26447992304179 7.11074054892381 6.546881353280637
B 8.73698223467223 6.467139302934275 5.9068248781329995
B 10.03715314142272 6.34588678148721 4.892610760828916
B 6.051632460093612 7.033517937019746 7.785332193458405
B 4.795990786105234 7.504880466939527 8.84151305482554
B 5.770301737185981 6.25819351127548 6.24956087095076
B 3.3267030911567543 7.0209088894183775 8.530984567532386
B 10.240817849195615 7.325921932884733 6.144563557957886
B 4.450432876149701 6.622835309007272 7.352684872346473
B 7.290999041848312 5.8239433146655335 5.417834082881479
B 4.265735374897531 5.558293243433133 5.679282514128806
B 8.742388479102614 5.503891140951881 4.517900105043855
B 2.7130842001945576 6.271704761649667 7.347705913534895
B 2.5434012657838396 5.435638814146599 6.0123556937019345
B 7.3305288338194865 4.7451350255391755 4.102167431572772
B 5.891544613759689 5.011909211516494 5.0517669933624205
B 3.104865694168662 4.6911435605477205 4.820918049343889
B 5.968040602925233 4.1219104368110635 3.6283836960153835
B 4.513103599437574 4.34337207467005 4.186729011815783
