25
Energy = -114.51555259 eV
B 4.346957042070953 4.316272438318538 1.4482156491348572
B 4.912781574921909 5.8692526501521725 1.0603911145438638
B 2.699398317259591 4.433661447102765 1.748151618567208
B 6.261667507548592 3.144662190966052 2.3664628887684125
B 7.357098189632804 5.532043205219806 1.937575939412239
B 4.893074617021047 3.4684328313789834 3.2630378619663087
B 5.940091278376412 6.364075465814241 2.27040563261378
B 7.272236165234074 4.286841489635856 3.0682868004353305
B 2.5299387282724584 4.410254602881092 3.4190172400942567
B 4.206952158354595 6.382187972801918 3.814740627688261
B 2.571141161468536 6.058393711126173 3.7625344007745527
B 5.390269601958025 2.500507853773871 4.622145463091854
B 6.9798057765121495 5.544958584441182 5.396505537537869
B 4.602344779369624 6.781472129189027 5.401227842410524
B 7.023343763174327 2.8912837250617573 4.729216548874306
B 1.186029415669566 3.6938645638218572 5.0625338209482615
B 7.283040018023034 4.020195252733506 5.954028163402382
B 5.3993862127435275 5.504645392739163 6.137557083455346
B 4.55578212202699 3.6632926495339855 6.066192120459996
B 1.2840425973499232 2.21407649876525 5.899299428095833
B 3.9493356604626624 2.146205048840262 6.635346106132508
B 2.743058701029089 5.501881409541254 6.138169742067535
B 1.2156128347748918 4.826025069064546 6.28467981243017
B 2.399797309945171 2.5178717483357493 7.091503071821985
B 3.773074302547943 4.703901904508881 7.19903532102041
