25
Energy = -133.4093572 eV
B 6.913114251294027 4.804380896579914 7.07157520855777
B 7.603854966987594 4.840754366098873 5.561702180673931
B 7.61094015264698 6.099526186599061 4.550130752598227
B 4.64596291578118 6.809782500555153 6.782248252630149
B 5.3725695552470105 7.303756008939596 5.434739288880817
B 5.274926965371229 5.178721918159942 7.1797393767029405
B 6.239632682323659 6.736409176398126 4.226356856224439
B 6.504123299767908 3.5758343146335023 5.599047303938609
B 5.077081379260242 3.5696412040776835 6.198821917633349
B 6.247052877783032 4.436352735833841 4.216493848668445
B 3.675913623068352 5.693451080739617 7.1228795205272775
B 3.6334175507331996 4.2281968354578 6.504810629125313
B 2.7824664221105215 2.3438099717867398 2.1394852860457383
B 4.27362338565696 2.853465791735019 1.5882909379651797
B 4.569211147914627 4.309727783057621 0.948053741597414
B 1.5253827689407093 4.943186281994062 3.0327739076597418
B 2.65119929786873 5.730840874288259 2.208208890427074
B 2.05762520482928 3.276766793382277 3.3201293626080104
B 4.181263823916202 5.571727916537383 1.7700665127874775
B 4.449119192151475 2.346617617938041 3.153938307453426
B 3.5200985396758555 2.647332484364884 4.358886774048222
B 5.219654440974383 3.7957669536911096 2.9489427692784247
B 1.4622885517109838 4.38429376210378 4.443966310851425
B 2.595107338645322 3.6165763472827357 5.26442683924567
B 3.630570996734923 2.6192815291603795 6.0904865552649845
