26
Energy = -150.47404905 eV
B 2.7202391596400717 4.798061995334455 3.5595448427322114
B 1.502154437194172 4.437859889298146 4.894297398902561
B 3.778385960951926 4.5559578063402455 5.068834214843903
B 2.648043765101054 2.5657362563359714 5.640673525188967
B 1.118122856948669 2.865386411864282 4.990792670756574
B 6.964978456120236 3.9880100258454383 5.66392107572418
B 5.503022116965537 5.1860042246187215 3.060492187905844
B 6.624928418590404 2.983756649684247 4.34166597337891
B 6.36974485618077 6.2699326375526185 4.029025543100966
B 6.82651542818342 5.59645530822243 5.574562878804224
B 1.946973178889552 1.6988241144119982 4.2834015846847215
B 5.425800670319795 6.423058083028042 5.49356532668233
B 4.150369919184119 2.9992974010303133 5.893045175361034
B 3.5444111652523635 1.830676866487968 4.168590061988686
B 6.787270914732384 4.6624152614753465 4.141465054618121
B 4.1283673292489595 3.851584616661645 3.509110209189807
B 3.250470312792415 6.454690074753657 3.4908154966630023
B 3.8437787726394714 6.325896069288345 5.309599948097433
B 2.358658954635228 5.829984786428309 4.929555480565267
B 4.848473250427323 6.708495499008646 3.723729432649809
B 5.726720798966409 3.455473355650476 2.900517957267491
B 3.8935286041402026 5.40623612881343 2.3083430156323725
B 4.825107514517465 4.220941551654795 1.82061187151166
B 5.110386311103203 2.303429699839074 4.196515074120425
B 2.255717836172636 3.221427289968392 3.6761119909457918
B 5.74728488032351 2.922008968583341 5.767005212457474
