26
Energy = -150.36401528 eV
B 5.39714143699345 3.4741013146881365 3.078086950966316
B 3.290743283519036 3.8195192858452676 6.8824232293492535
B 2.8176963744842323 5.475596826954728 2.76645460886281
B 4.164695411059107 2.6919474846042983 6.109909675625635
B 5.0849764491276215 4.021822021334396 6.929351163170333
B 2.912504013571225 3.755561289390949 5.113535002233437
B 3.505246715740504 5.325653368018912 4.61186166592138
B 5.145942330230607 2.3494311321655483 4.462121099673699
B 5.89972019449872 6.228469338297894 4.384125447943375
B 3.1711226269300874 6.503271575019696 6.00330621634112
B 3.5356856670015966 1.9301938246623016 4.743687849100448
B 6.7674451327785565 4.732698444426072 3.920554872806174
B 5.266386800365788 4.868946654994466 5.263654836367411
B 6.571036241612622 3.1485767486531873 4.325714140663754
B 2.5112025792937387 5.104130660112933 6.350308067024784
B 4.123690135468495 6.260443278198424 2.46866706985677
B 4.138939777969147 4.318522991071763 2.4652190549445616
B 5.620032923313501 5.1055043475004664 2.5431322762614705
B 6.916320654384681 6.066091238244119 3.0027702051096856
B 3.8553059294234666 2.8299579273545814 3.28023672634893
B 5.610488263545358 6.841971728112792 2.674917410453437
B 4.658672993069143 6.506166580866104 5.44320377871635
B 2.4226587987853527 4.0275190622576424 3.2534147378367795
B 4.202272571587698 5.387959246163844 6.816677561757255
B 2.3050581360618483 2.638559077083222 3.974449539402676
B 5.839204194270909 3.2510732451714435 5.791141388859209
