26
Energy = -149.70049232 eV
B 3.911048108454331 2.5735741051620535 3.5115518171640874
B 3.521356203186903 5.294074991669808 1.8340187024039654
B 4.0570285332221525 3.8545655515115453 2.5236898127187093
B 5.115474123524263 6.079037459243357 6.488832478844615
B 5.252375589668677 4.967393926342715 3.655069720524143
B 2.6615562818242116 4.052875626300236 5.754418306303575
B 2.737948322425668 6.480327289212466 3.4603413891043866
B 2.3352568531980475 5.400770043859639 6.630746431076328
B 4.447307878080136 6.002121021426337 4.748273631629048
B 4.4985187107740945 6.406130087460835 2.953802231781713
B 5.303593938946948 5.193141813132591 2.0019674669319047
B 5.995518521233796 5.235581069286382 5.4092955285174
B 6.763889596882294 4.26410053150691 4.360420390959187
B 7.135655336222607 3.0447728101799174 3.274134609623067
B 3.7778016688442158 4.794134461475833 7.072994678252954
B 4.284627533477524 3.3935380491030696 6.118821263696323
B 4.929184838609075 2.4360469739262687 4.881449423127954
B 3.099357020988403 6.804418307831995 1.9853552692621308
B 5.378287673476848 4.391988146852819 7.010140897484412
B 2.722315088646892 5.693303012793639 4.933790328658266
B 3.5463152767335773 4.28285145514037 4.165840048006083
B 3.5603642305408187 6.401456797405132 6.333240464781905
B 6.654261734941579 2.523490302701563 4.681469483709457
B 6.052720971904507 3.330232295853752 5.95387975742613
B 3.2045318076680056 2.6879077150472597 4.989386437165263
B 6.50355413142599 4.263950925387704 2.4930413225294803
