26
Energy = -151.28207438 eV
B 5.389382609830174 2.7569705658507906 5.175658155963445
B 4.00397499549871 2.3956644138182144 4.204920660850186
B 5.391927877232735 5.556699739516101 2.714108919105257
B 2.451405595922607 4.033491531817081 6.174955178429629
B 4.089587267227012 6.116161900624307 5.770810544177299
B 5.635381605507312 6.633724397942884 5.398382104492992
B 6.641803348840835 3.828268546232094 5.674147002739606
B 6.349867661814241 6.042503490557554 3.972145870815204
B 7.213384375603559 4.582437751141348 4.2400607326126964
B 1.657522111917497 3.639750890639334 3.4318151994192276
B 4.588497447988163 6.4589981319843615 4.163477465303413
B 3.8860036765350996 4.673200896041443 6.732063113105944
B 4.318463947732994 2.7658173518628613 2.4589394595845646
B 5.275198694783728 3.775907948033032 6.5401687505154165
B 4.445240483297312 4.446011215952896 2.087673225591296
B 6.7184456330639515 5.4834848299043655 5.550357626273356
B 5.563621100737255 2.1542964739248225 3.462318371477137
B 6.788427196920355 3.0532302038176553 4.024909295924262
B 2.501525318943172 2.9307826498840357 4.781997077237574
B 3.865451911649486 3.226115266909605 5.754217737908998
B 2.7784809439642375 2.561054424327511 3.077266172205201
B 2.965263751039612 5.890495950891163 4.516934550005477
B 3.6624541142207123 5.761675733377758 2.8879458836841607
B 1.7611492873267784 4.563965301727288 4.805028522969163
B 2.1869223547508927 5.1560395220643995 3.2585539465856153
B 5.651411701781333 3.846151166841849 2.9929053296861845
