26
Energy = -148.63229848 eV
B 4.214319746358815 2.360594865742013 0.6806904360100604
B 3.0001756154652703 3.323781717116316 0.9019415158675882
B 5.277268110458452 2.884891645726151 1.6972153445513762
B 4.411840501294807 4.231983489554419 1.0311086378634124
B 4.974012192557758 4.367818934623927 2.5745589477595727
B 3.769022360709398 2.871488783652396 2.461789447947337
B 3.12987394803005 4.563907314928437 2.0562537013240285
B 5.565725325235539 5.117664723948288 3.950326347329713
B 2.4190099740316264 5.170254510799485 3.3928196129924117
B 6.866883383113458 4.798865401691906 5.197162356923722
B 3.43756779268619 3.568531106659019 5.595871355908344
B 5.632357061504553 7.084264461188596 4.195842682612514
B 2.667187096057412 6.039478519454005 4.7795087705461885
B 2.1901749475427628 4.406076065750386 4.824776974142625
B 6.8980404321203235 6.21719067676861 4.5600363967274085
B 4.670519456118425 3.3046818219714846 6.6777877864478645
B 3.065449444668854 3.464378614380099 3.8385262666535453
B 4.160459624557503 6.714092291508114 4.535295399307566
B 3.2913323351590202 4.780970763279247 7.5599385622145
B 5.191426116462757 4.221723165913171 5.337912112312128
B 2.502589452767738 5.128176357779147 6.240323961516281
B 6.423948106341756 3.8167384604741166 6.500113915652112
B 5.42982300546706 6.037312760444972 5.583468613039679
B 5.868729521921338 3.758655195638964 7.958155579340194
B 4.4389281281237105 4.1474250133504205 8.399437846861165
B 4.9939633086984845 5.108793826786897 7.00678285603487
