26
Energy = -150.79524881 eV
B 3.5535059948772987 3.1288900047432024 6.232279628875337
B 2.21334648284191 4.217534780909122 1.8508630288473835
B 5.331552828167115 2.9431886829628837 5.8935412229939095
B 6.235261765120071 4.394189080552675 2.9708823955069197
B 4.961474831521382 7.124835915335041 4.36561437828961
B 6.435170739109108 7.116931907232688 3.8035351887826727
B 6.083074511731507 3.3607586641345235 4.392205684869686
B 3.533480574706825 3.317282942978979 2.101365562690758
B 1.3703270487999268 4.496412823906292 4.387564089278514
B 5.214280460062475 4.809277013888768 6.378333828104628
B 1.0017633703583597 4.457325015160719 2.8135778708272254
B 5.065838047464844 3.2010526810011477 2.942204320927546
B 2.434005036850843 5.32662277542265 3.2450733576783324
B 7.176648327177502 4.645969419231891 4.437780214495899
B 7.0998209558258605 5.794003434192233 3.241051393000711
B 2.9608058580265144 4.98285136085644 4.944771125000387
B 6.151491872503212 3.6602391150470712 7.275692207726309
B 4.612650560073535 3.403604394088585 7.397927218102107
B 3.7598553859421227 6.088890880138195 3.858822213641961
B 3.6648126954763596 2.3497207195647087 3.3881806886812047
B 5.417360964874136 5.8116745775344425 3.4306969054526366
B 4.822663713856745 2.328648010831742 4.469100299773073
B 4.382182113856526 5.882885247906188 5.410130516455628
B 2.38796165742076 3.4067414901279314 5.162741907525394
B 6.834602030179508 4.170839388980919 5.9321926031596135
B 2.3157504795569817 3.346530249374416 3.406319963849821
