26
Energy = -148.03709697 eV
B 7.38222295008802 4.529243616116016 5.14989270592411
B 7.738160749483047 2.872152664750784 5.662261666302862
B 7.231522661860148 3.2110345904319106 4.1240310180525634
B 7.8646790920958 1.9869268569438707 7.038920185793945
B 8.223712219421266 3.390361729453901 7.597830648640381
B 7.366075080729576 4.441657407921889 6.753773020070687
B 6.894834808260288 4.763869233988092 3.5572403557804533
B 5.146934073530741 5.01078113202305 3.6680355073255844
B 5.758975525386344 3.315183598141678 3.4739641154231653
B 6.483253118215564 2.7947203791786617 7.062883461459915
B 5.652111946399832 3.9088298054312367 6.2937155570576095
B 4.130335689818747 3.587528120881686 3.538089971290951
B 5.6347588463939795 7.54960740420704 3.8713829922866925
B 6.521956256293158 6.299968695631972 3.4658645519914018
B 4.488331662553445 6.55679936589888 3.089122394148844
B 4.182648962311405 6.147265868649145 4.824985221922697
B 3.0217180025635186 3.361654356465415 4.731850031593051
B 4.2144317591454294 7.874866635320989 4.4715650612386755
B 4.426489192101119 4.473312701441705 5.260628190031785
B 3.5579285137184473 5.192466463460163 2.9582155524205227
B 2.745764140776905 6.392329551499196 3.6638138718794893
B 2.7234570921532915 7.683223456517821 4.939717932095846
B 2.6861420633771926 5.130077698277435 5.008203603080698
B 1.6924443790946917 3.7542516012580287 5.452836917112106
B 1.0448510202406456 5.1677635503131185 5.483018471832745
B 1.5806480620798748 6.597318029156696 5.06637322214078
