26
Energy = -146.35481754 eV
B 3.563609364142819 4.732457559963962 2.955095125551879
B 5.658303891285836 6.987283999438723 7.167714775532667
B 6.504761540326779 3.4959651509714686 5.952273377835011
B 3.7090901967205254 6.3993690708506525 5.351766668872909
B 5.2577008332356785 5.8674039489821155 8.439833194424375
B 7.354962094355999 4.937283110250652 6.283358937384921
B 6.507797195327134 7.810061826927354 3.5631920853820866
B 3.935901646507884 3.7363520008466184 4.37070321280546
B 7.387699766335107 7.496481853168316 4.821407219772907
B 3.846700292820093 4.645481271108291 5.790480702874563
B 5.920409624054676 0.9636659755252094 7.534170076281955
B 6.244827839853141 5.044124028881289 3.290169286455274
B 4.140916664491925 5.723971957273665 7.017415162677981
B 2.9855321051008317 5.197386421468158 4.384438626643951
B 7.30195634516884 6.338503066314629 3.624545778816778
B 5.780451462153682 2.1622429257833473 6.569018970975503
B 4.869701076860299 5.349908158473075 2.264506036086045
B 5.749671070682347 4.101633585487445 4.542219831392066
B 4.708082131647548 5.481776855493205 4.136990057766465
B 7.028644837319706 6.6419124977524255 6.33230144492882
B 7.89077459602123 5.95255975111542 5.108906392707403
B 6.571972856797233 5.5164164834827165 7.61040398980591
B 4.8887249252683596 3.0334104524133676 5.531138123592109
B 3.9822911333290962 7.391322638336034 6.578924999435541
B 4.237777738611526 7.021494256305419 8.110114619658432
B 5.838645170948078 6.6232418569251905 2.687089532742782
