27
Energy = -158.53234444 eV
B 5.692644210879578 5.038050772954232 2.032564836846527
B 7.046605340348129 3.5682058458101267 9.167480287694742
B 6.490850649206835 5.097827705958203 6.850530223555535
B 7.085892789536585 9.137890734560452 9.708903369109395
B 6.6554955836695635 3.709396354605726 5.950455573774959
B 6.647919854283246 8.058069794523847 7.048424291193348
B 6.4842337855835055 3.6381708671298885 4.345942878012226
B 7.087082317843332 4.817657380333448 10.169780879705002
B 6.658608927528557 7.873331446009374 8.754730118299317
B 6.86391773477371 3.5710508247179753 7.593484547441757
B 6.433100807022275 10.078135551114027 5.097433258359777
B 6.162312498154922 6.755806324287125 6.052968784797264
B 6.667365070566329 9.727229063867805 6.586941798592679
B 6.982862479743783 5.054188573029391 8.430657618904064
B 5.656228366318677 6.530819352592826 2.6429482032299783
B 5.84145699075143 8.020422292266726 3.0772186674906608
B 7.062997394822449 7.699600092018998 10.438022963548011
B 6.437398413420745 5.257877735176425 5.219939539065253
B 6.112312017576023 5.204653242872672 3.597864114992705
B 7.176150985672086 6.1941025628910635 10.998677735553978
B 6.357743163632382 8.364492862697816 5.2995992978663375
B 6.545470544277514 6.3436636564162985 9.471644698405889
B 5.91801267668342 6.727962320736188 4.4123899429702975
B 6.094835551944444 9.350135351064269 3.81656429476713
B 6.131874515372797 3.758776718352986 2.8011491592781033
B 6.837896116955482 9.410339034331706 8.160561124835139
B 6.37657376222888 6.5199860884766 7.780964340506273
