27
Energy = -194.09286765
B 15.454328494781947 9.744628005552045 10.196846850376199
B 6.637180699629296 11.002482178511071 10.418964280112414
B 6.819466858512016 8.247390497053564 10.233190395710546
B 11.554558435179324 8.151217032781735 11.003953956456966
B 12.350452872795502 9.629991555893515 11.253995297113182
B 9.120596795394578 9.57570317490007 11.181147038964617
B 7.399713663110225 12.465381796260575 10.709213615421966
B 11.535350074479704 11.073975519019402 11.52299464718908
B 13.916980114725343 12.551775794631384 10.393648524322034
B 14.770919007050692 11.14312492192396 10.38211743239243
B 13.169886659615084 8.151742481445938 10.737910118343768
B 14.718663655497606 8.354897226015012 10.388346172211792
B 12.201408650049723 12.399762647797552 10.677511226368278
B 12.980571877399488 13.83136157511183 10.35114752710417
B 13.174940330309896 11.120803572671274 11.070872567803487
B 8.228627626986182 11.028929533389233 11.019771108084036
B 7.619145222435607 9.663176424306567 10.524773410744304
B 8.363920058898147 8.130844679233203 10.67647489992263
B 10.710873267072525 9.642116234685021 11.262692656065093
B 13.890571489807677 9.738411262097419 10.673660986715673
B 9.988700320176354 8.15398289160706 10.9334289551534
B 6.030580241455792 9.609247310519521 10.074728522408243
B 8.24283631828271 13.820370085604267 10.716738491712128
B 9.070727304084453 12.401646967616 10.952658520452138
B 9.839133084724553 13.9001064753459 10.764298159651407
B 11.420364015449882 13.901569775976071 10.624924640437639
B 10.710873267072525 12.486730783028472 11.288309502831343
