27
Energy = -158.55041179 eV
B 9.991772971559271 7.069765350181129 8.755006783018684
B 9.710535746237035 7.156162591626047 7.205608405201933
B 9.36790889817377 7.389736278284239 5.640162798122457
B 9.038141841716273 6.523815615597412 9.907562192584795
B 8.188314154467792 6.436767771140925 6.5281091195645
B 9.040184330182687 7.937082737226285 4.21651456338925
B 7.8035825560143435 7.029789156927306 4.981061332746531
B 8.561467985306676 6.407046610248525 8.169723696430802
B 7.8958876750023475 6.030231412937468 10.925421311653524
B 7.663039139616686 7.92615391506554 3.4583658522016796
B 6.180075327292909 8.173041742576169 2.847458948531061
B 7.591447990422911 5.7153409236942885 9.31470195156385
B 6.393861045343573 6.9661306355007895 4.083277464157307
B 4.676351463650096 8.51578771306214 2.3923850813729697
B 3.3751760118275214 7.89934252134268 3.0331291517687395
B 7.195017194253183 5.59912431057171 7.668823535138582
B 4.857978274886496 7.288871745747168 3.467811639628248
B 3.3140526803919417 6.812481971249762 4.217032850625229
B 5.589209095170445 5.189269344693411 7.3341349631464
B 6.421836170702192 5.480173726790251 10.603060055312257
B 6.082426176250261 5.156918068679746 8.890664854728513
B 4.999149602039378 5.2447042262271495 5.8678115132316675
B 4.8737166398424465 6.087522196402844 4.576216589846475
B 4.922092938431507 5.189166471112116 10.116136324846758
B 4.36514530985266 5.079432130457657 8.62285049352058
B 3.872870812073147 5.268822081885005 7.086340166134805
B 3.5157832603849575 5.914344041864303 5.577653652624622
