27
Energy = -158.04325387 eV
B 5.939582548805441 2.8996812049155456 8.812093647964177
B 5.976276561087927 4.382542211486024 9.40476491386268
B 5.553147256481021 2.614555011015901 7.3023306148738225
B 6.471885315166017 5.972002836229784 9.617229859038337
B 5.793354719351914 2.6439689146375875 5.62201566817085
B 5.084481951139195 4.075102192344099 7.99062539235644
B 7.279436500181247 7.358538203651847 9.68848533555116
B 6.352596643803423 2.8735526640940683 4.173641312837785
B 5.444864583670917 5.600475218596749 8.4013953410876
B 4.990604885894808 3.899867633731632 6.377981456805613
B 8.005439720170267 8.76047369118667 9.645900584841263
B 6.292160496690592 6.942191532737116 8.206547810093006
B 5.553405482903506 4.185180134497396 4.912292632251386
B 6.29829260864949 4.202455834836507 3.3083856843323325
B 7.447376773693574 8.165351021208627 8.176362900153425
B 8.063438365163533 9.826887146993034 8.444321691397224
B 6.1095481862662515 5.702722904440004 4.327044318742805
B 6.632187138346228 7.738469867822099 6.745980667025937
B 6.480911175086663 7.180500205190637 5.0583936848896505
B 7.299014011528738 9.304269540760561 6.950328530466993
B 6.262611892745478 5.621361592335562 2.6217779446566722
B 8.057601983698225 10.769869077740681 7.162879925249794
B 6.256143051098781 7.037709201512882 3.2881304884732887
B 6.63040160960751 8.836845719449526 5.486638011211069
B 7.544318362944391 10.484804643924276 5.692357071234529
B 6.591219427547197 8.517939883426049 3.8329765456447116
B 7.10912005895061 9.922103221907621 4.268539277460233
