28
Energy = -166.22844849
B 6.248847279996572 9.28013300309222 10.213969694466398
B 14.297929366003427 11.266643642907782 10.213969694466398
B 7.583788466767133 8.16653159612446 10.179077999502324
B 12.96298817923287 12.380245049875692 10.179077999502324
B 7.163641971803914 12.311804684404121 10.03996790667506
B 13.383134674196086 8.23497196159588 10.03996790667506
B 7.199297413763195 6.637508612020997 9.717756301149484
B 13.347479232236807 13.909268033979005 9.717756301149484
B 6.633579942735486 10.826592786673729 10.167230825871517
B 13.913196703264514 9.720183859326271 10.167230825871517
B 8.656381303312903 12.839145513611607 10.162406177340491
B 11.890395342687098 7.7076311323883955 10.162406177340491
B 8.768764438050317 6.849277057539553 9.993502609774021
B 11.778012207949686 13.697499588460449 9.993502609774021
B 7.85441627524028 9.674218936261186 10.79680705418704
B 12.692360370759722 10.872557709738814 10.79680705418704
B 9.158651072909558 8.486513075815695 10.497577671729625
B 11.388125573090445 12.060263570184308 10.497577671729625
B 8.323178182731818 11.166580035862898 10.291092364691844
B 12.223598463268184 9.380196610137103 10.291092364691844
B 10.273388323 13.248824777173496 10.261523922230332
B 10.273388323 7.297951868826507 10.261523922230332
B 9.44307161397788 10.102994608338014 11.08959337483141
B 11.10370503202212 10.44378203766199 11.08959337483141
B 9.8673852130723 11.675836645048438 10.660966375156626
B 10.679391432927703 8.870940000951563 10.660966375156626
B 6.041560242222295 7.718097796470306 9.854654642060497
B 14.505216403777707 12.828678849529696 9.854654642060497
