29
Energy = -163.77946152 eV
B 9.167265934068254 9.13272607717819 3.45085365016357
B 9.208964314831983 7.57823601621803 3.5268228593606175
B 7.61373539938045 8.497013549006471 3.3643766053640816
B 8.139614868813528 6.405570947542634 3.770555160057337
B 8.495131255929566 9.078608420000275 4.846226960962029
B 6.459092323186182 2.5636400919529247 5.412301802265431
B 4.654215958728963 2.8650445876107122 5.311967188658987
B 5.771430807736107 1.354874519339017 4.723425728489007
B 7.551419082531413 7.814186392090529 5.06220440232127
B 6.85124243408506 6.344878974833258 5.066287306001724
B 5.569947912285347 5.656042832450175 5.960908122974855
B 6.426552770309046 7.42470157477484 3.5412733402128493
B 6.095460897332193 4.208455199392829 3.317844253367422
B 5.969225607336271 3.986783643859795 5.818218650747189
B 6.8062447225964515 5.625102663394854 3.3772024677493393
B 5.322180698041204 6.343067933329313 4.097717136169906
B 4.368706733871753 1.356187299017103 4.081164273565391
B 4.238904894988957 4.486196150526022 6.006240796070768
B 3.4664357769727183 2.6079422239211785 3.8882793568883116
B 3.9279067476944394 5.693186871512414 4.715639096414037
B 5.345832842982633 2.8622707108439447 3.68138439029554
B 3.8418317075772817 4.10034819761221 4.173115268837669
B 4.515568549423951 6.061378957537663 7.193451496480991
B 2.8122156004298864 6.011148117333407 5.90658445715362
B 3.320687625881374 6.416421299853414 8.129297425776318
B 3.1749355136894977 4.710406072489542 7.323926694934739
B 1.8036153786271378 6.003595053449362 7.103235721789976
B 1.8034915959295086 6.2635669451813705 8.689212249221049
B 2.2193856920769206 4.767565080667095 8.58481155764721
