29
Energy = -210.73915549
B 8.841981328874969 10.289020816978448 10.944706116133196
B 11.672181666248346 10.280491853042928 10.902363765624917
B 10.288140214179178 9.54181462183412 10.96747388384873
B 13.03429738828424 9.418655965963222 10.434283709768597
B 7.623554297001209 11.11681903949308 10.276769910544752
B 10.226925614249312 7.858423818223264 10.568833798952586
B 11.675078932798643 11.868712694856809 10.569175916477333
B 10.288140214179181 12.738074226570468 10.53543764480523
B 13.075879855885496 10.985971659210945 10.552362751532499
B 11.541444238639883 8.696284044866719 10.333117143775425
B 7.440956199623109 9.592607922217198 10.4737957167043
B 8.926325955489059 11.98842352547425 10.711314180523658
B 8.803618113598414 8.695582746877644 10.814320664737755
B 11.513508983798754 6.984130197563697 10.076062486726578
B 14.469447410647337 10.20563144226222 9.863561249613419
B 13.145480028513447 12.643997372357964 10.188710509582979
B 11.734349217648116 13.52099524708982 10.207143228814182
B 10.346081054112883 14.265382201785876 9.986985461408388
B 9.012184364498475 13.60262824456693 10.143290627534567
B 8.763342803267403 7.050291873991572 10.224426845739822
B 7.373912403803498 7.904536957955273 10.16137052037812
B 6.1597739762334465 8.850210819140361 9.803844426062604
B 6.264824946667684 11.943003683491597 9.755474869025168
B 7.579486081851058 12.796042491423442 10.022923900020313
B 6.077312389073831 10.343123201476699 9.820602450761646
B 14.362868074289425 11.701723124279594 9.837245028863816
B 10.164940104680753 6.356346086615782 9.952714308149577
B 14.254457995768373 8.6304820601522 9.719154690834802
B 12.963182055543585 7.754262969687448 9.986041336300577
