29
Energy = -167.18510492 eV
B 4.714961337735599 5.038099776545822 1.756978530639727
B 3.9438173397117953 5.9329780353954025 4.754653579330912
B 3.409826521788234 3.268117630644059 6.445143710231421
B 2.999755156654876 4.747388104636116 2.283073011428459
B 4.923797541503889 1.5464439790229598 4.830254850587977
B 2.194193644926231 3.5312581859808008 5.195189661198171
B 3.9099182147066336 3.621186806092212 1.4358753818847263
B 4.29360828412469 2.178962569626748 2.116839132955308
B 6.000882000620899 2.4656999076431556 4.131026650465022
B 3.789778752118046 4.59889116889638 7.324676228318497
B 4.277712807744712 7.418249699218937 3.3546060427333058
B 4.052926879567308 6.008851417124372 6.46122883673895
B 6.2373448821728426 4.899676362965206 2.4954437866226007
B 4.725068677915081 7.330180652820633 5.904731609854159
B 5.486001700253839 3.3449406452387027 2.308775778029399
B 5.434335724792053 4.738170827762819 6.823751721867859
B 6.0165301721523425 5.340939879913656 4.09448609968946
B 3.353627742900531 2.1943896021260274 5.121134051159174
B 2.196125132452413 2.503091071229733 3.948969228022804
B 4.832523857831235 3.324765146234135 7.410507660108225
B 4.797022204718193 2.1706041704248196 6.277354662858389
B 4.494057508583013 8.202967885287581 4.6602567793870975
B 3.6730883191363763 1.6672200211094863 3.5371722644146137
B 6.650805836143977 3.7585682989584948 3.514693912001983
B 2.8101080856125815 3.0478416366806576 2.531520744050312
B 5.6721712676202465 5.86032900377932 5.6438235106981205
B 2.838510118215006 4.840966795436812 5.867436324285743
B 5.336060933321186 6.289669920879792 2.672919279439152
B 3.482210993177689 6.027852884182433 3.0776684039945224
