29
Energy = -164.04399918 eV
B 7.988804202055345 7.7256955598538335 4.427877851637119
B 5.0934176345087705 8.919415639621722 3.347503357173181
B 6.568679803503771 8.351812436489213 3.759186522768969
B 9.304409060674459 6.769463926803009 4.932124709127053
B 3.777618972469219 8.060159498969247 3.2206295224642334
B 9.424378918897114 8.26473867731041 5.171695319036741
B 6.610156881385783 6.730034113705496 4.2442687519622275
B 8.102961504301428 5.847989609569505 4.376565400961548
B 5.20295310655736 5.900836130900662 4.49003000546549
B 5.238955681442311 7.298845627432674 3.4859351518837225
B 4.321068649005884 6.091549300110466 5.904771416016855
B 3.5918984818524966 6.520025164896631 3.6487620911064913
B 3.675014118226668 5.065000379741652 4.499054219144071
B 4.453999791332057 5.1293138807057845 7.38951376620405
B 6.673014924997887 4.978550172844487 4.349936194394336
B 3.8257644248193956 6.898315350503599 7.1831840143571135
B 5.1519880478338065 4.156633788275659 4.306627745450256
B 6.859867661504307 1.8637449070636172 5.578878259747994
B 8.107225802997839 4.196806576939263 4.606293325543148
B 3.632812212821162 6.526676192227046 8.68170227136627
B 5.477742679965668 2.467458198210902 6.0101403259904504
B 3.3625962526792716 4.606673088855864 6.097227996259503
B 2.742107896325497 5.2885873058951836 8.000437740460882
B 2.9082885291078138 3.8121963517478945 7.464471888089907
B 6.503804151760877 3.35160344486394 4.845689902335518
B 8.063298851162662 2.6716665399648245 5.059637945301214
B 4.232246322363224 5.168921714009552 9.223780532667048
B 4.452364053920618 3.7866981894060285 8.512302518317595
B 4.374096291893727 3.1510660285875227 6.9999542893738695
