29
Energy = -167.05603028 eV
B 5.910143166653329 6.5840919690192035 6.035988650675822
B 4.237262059672797 8.768484929196374 4.7729615710284135
B 6.326682266950404 7.986426242003297 5.478830837916341
B 4.4622054717041095 8.129917287627935 3.1400492651984973
B 6.037831401659804 9.35939785494348 4.722192539868998
B 4.802215851988564 7.12927627828242 4.642240982302016
B 4.747147683600564 10.422642832713521 4.835865376179178
B 4.895741872938263 9.561350220773914 6.167648028727584
B 4.205501930491867 6.509505912807206 3.0837249940581963
B 3.860504861666529 5.72206812755748 4.517838750778614
B 4.854186343370975 9.667219976035941 3.422918360378946
B 4.123032127108962 6.389202995834258 6.3166949810466235
B 4.521298212835532 7.995137751301332 6.388844011108577
B 3.5540842778673927 4.9031031033163375 6.057642709750728
B 5.414672578650232 5.019210607380088 6.2578884763416855
B 4.270224141390415 4.88379693597764 3.031613242832936
B 6.095475894477026 3.5186482367586724 6.0977407382839806
B 4.70256675997376 1.0981052923587127 4.9287718985063025
B 6.680176509785632 2.1552083060986553 5.596849225421724
B 4.852779463321621 1.6926559924200717 3.2707584857767005
B 6.561272857362618 0.7275353261558634 4.897202609009345
B 5.063422589663993 2.786168895584958 4.73117572105153
B 5.408494511292754 10.422642832713521 5.056808746554644
B 5.449347791692309 0.4482392201891231 6.352648587154989
B 4.40049294362001 3.2667665029992135 3.1497051291443094
B 3.958604290971629 4.06383641930623 4.550960516004498
B 5.427293172574734 0.22670659377676783 3.614950302343736
B 4.298908531920051 3.505995081085765 6.3762977831017205
B 4.887151189647833 1.9658138636126858 6.5119079769938075
