29
Energy = -166.76863286 eV
B 9.615688480694818 8.877208694599478 8.24114633185934
B 9.841998092132387 8.718228491175942 6.279339908449522
B 8.151706009231546 9.18305032926915 5.807487946138761
B 8.156555198914106 9.543488536792493 8.587329639491596
B 5.527129428977422 8.460857438174804 8.760686302215865
B 5.367713178449919 8.070394887314077 6.005209171337698
B 6.058764527095161 7.374219724553534 9.842039567088003
B 8.776446706602641 5.659622713050891 6.371550149059061
B 10.618729969495917 7.506964103984164 8.694988775951884
B 4.76304198364101 6.604770005735738 6.807758592919471
B 7.697707376211602 7.087902086021635 9.886228459888438
B 5.116119600716964 6.693270806357757 8.490568505876718
B 5.855301461722146 6.400764232409311 5.677575596851146
B 9.24447481781119 5.6080455887599685 7.898150672576008
B 7.512065763630515 6.196398316232302 5.549834189005596
B 5.712817085605145 9.14871736225269 7.2159267512469905
B 6.490807439707292 9.943500798366161 8.552814762798057
B 10.945154739819333 8.31349836401729 7.349912500133349
B 9.512607437103965 7.218426584583412 7.270574081524899
B 8.602052532476396 7.5454062847612535 5.70896186053239
B 6.977921894074508 7.916456466068522 5.325458178239104
B 7.099491337044834 8.651383877691744 9.608028609433624
B 7.690900443617891 6.469594152954634 7.555092266639755
B 7.925865806785866 8.23775433413555 7.3452554637736895
B 6.236381681848184 7.3699228121431455 7.343198902857458
B 9.402666520358153 6.697590624125818 9.351615336227852
B 6.536318771151532 5.918190632236477 9.160731020393053
B 7.348276000724813 9.88225617145275 7.103446708345769
B 8.083238312913627 5.570057892767261 9.077031487986266
