30
Energy = -175.22781295 eV
B 10.678451645413466 6.529679205556932 6.582381831517191
B 9.33832609994676 5.813457709932511 7.468173744113552
B 7.908826583884955 5.443434200308368 6.682028144853377
B 8.659564054109262 8.03921658156436 6.069823586435717
B 4.555354798247615 8.055540667991579 8.081106625339187
B 5.094373299146571 6.38050525381603 7.726269478994777
B 6.0627213397380775 9.361703300956513 6.043413925280698
B 10.208001067776829 8.043949865012403 8.98316416621215
B 10.251869911113394 8.142226644241434 7.119473453954906
B 4.655077883742783 6.947135238356752 9.2453224186824
B 8.166807251828471 9.74513492648949 8.05218690654072
B 5.070568165199247 9.43345625853699 7.350790956662544
B 6.116929594748964 7.532977137899002 9.904839367685353
B 8.744017453447848 8.780909074423462 9.420717038900879
B 7.4244589828340875 6.433102779283391 9.736103603390585
B 6.406585782556193 5.554056415746226 7.319976983388419
B 6.966416162814447 8.051663430359097 5.584294919480184
B 10.545239500911517 6.716715730672331 8.197057616826825
B 9.851929331150478 9.448624229463704 8.241319378655898
B 8.783591637770353 6.907472242439677 8.848055406606681
B 5.944765270440017 5.957533720170539 9.163320314824988
B 7.740858149572261 9.608980721025153 6.206797669507272
B 7.317054466055295 8.20938498999689 8.53287172332973
B 7.532222529203024 7.068505695250754 7.232156738518418
B 6.0187809352943615 7.926487451098676 7.15061924721903
B 9.316017425043391 9.482883425045845 6.6661009801550115
B 6.600731110683228 9.976316057931216 7.6305332032073405
B 7.8559262525828455 6.729902678723821 5.3577789408278695
B 7.5198909983647635 8.125019460310769 10.324910193740612
B 9.344441395464113 6.23382455962589 5.758210227659869
