30
Energy = -179.27049446 eV
B 8.771001176721812 9.813356443207967 10.599712630144406
B 9.287407410491383 8.972920170693365 10.599702309394768
B 10.209642589508618 8.972920170693365 10.599702309394768
B 9.374072067966061 10.795631885541408 10.599717642085897
B 10.726048823278187 9.813356443207967 10.599712630144406
B 9.374072067966061 12.225290152795175 9.683988587096641
B 12.085726750110165 10.255144491898399 9.68398667966415
B 11.049969726471542 7.816305010204061 9.68397922074865
B 8.447080273528458 7.816305010204061 9.68397922074865
B 7.411323249889836 10.255144491898399 9.68398667966415
B 10.81618410887905 11.35897062001813 9.920411580646123
B 11.707459268879747 9.364818007964958 9.920411774770608
B 9.374072067966061 7.6695107423634745 9.920403462729654
B 7.789590731120252 9.364818007964958 9.920411774770608
B 8.68086589112095 11.35897062001813 9.920411580646123
B 9.374072067966061 13.312224589929471 9.17614855708986
B 13.11948987330079 10.591037388222174 9.176155317367073
B 11.68887071205046 6.936929004941634 9.176157409033765
B 6.37756012669921 10.591037388222174 9.176155317367073
B 7.808179287949542 6.936929004941634 9.176157409033765
B 8.711022555399527 12.717698008181904 9.555446133422853
B 12.117731131584604 11.750159481131234 9.55544332493392
B 7.379318868415395 11.750159481131234 9.55544332493392
B 10.786027444600474 12.717698008181904 9.555446133422853
B 12.990368548534859 9.813356443207962 9.555446528497017
B 12.481712235818751 8.247862670651598 9.555446216220853
B 10.197109616120574 6.587990574361824 9.555446750655005
B 9.299940383879425 6.587990574361824 9.555446750655005
B 7.0153377641812495 8.247862670651598 9.555446216220853
B 6.506681451465144 9.813356443207962 9.555446528497017
