30
Energy = -176.33602799 eV
B 10.950487655298208 4.847646096288016 7.536351611982259
B 10.653236234134818 6.302315215091631 6.927088435215518
B 9.853754988086274 3.802242327796288 7.931712462423392
B 10.247757759745088 7.568323212258529 5.977626859272708
B 9.726005679886498 8.670490293513271 4.9664332229684245
B 9.370450179936913 5.342225557078875 7.574044738966996
B 8.975672610971339 6.86808212906028 7.112624813992834
B 8.27912579524884 4.066812377260911 7.984434715499575
B 8.57968412219379 8.026074729998436 5.9797530348108
B 8.241008901282074 9.141991247696081 4.7167299085003345
B 7.691620367196141 5.703799410807741 7.466275381804323
B 7.3382050189403 7.254466656038847 6.927040284059466
B 6.686682025761876 4.364819854435078 7.882191111317181
B 7.0217708816968845 8.57888757679192 5.850382137878057
B 6.658512482150503 9.214234590391698 4.2390034141633395
B 5.748704600790777 3.317560155404239 7.15801803644582
B 5.84365644624533 8.21314140750508 6.964218263748801
B 5.4218757473855375 8.851992372422627 5.41293588020712
B 5.177488307875653 8.971784047655126 3.7723239096694536
B 4.97299534674585 4.466426403790074 8.06993328170472
B 4.389603276819654 5.977300095777612 8.24409342458346
B 4.7363119309001736 7.448387149790434 7.834558258225099
B 4.2237631264149975 3.416574832988115 6.718487180135551
B 3.990726412503747 8.257902468271439 4.5786074020465
B 4.26609731140507 7.970078929771242 6.271203193838309
B 3.6918185004046173 5.012241086999127 7.056405576775135
B 3.4763509328436357 6.65691680471173 6.945462981614093
B 3.1119952611302044 7.117068746618569 5.315006402558174
B 2.9844760293941586 4.032421631082987 5.916036072093885
B 2.7411793642102893 5.588809890304288 5.7220353010986615
