30
Energy = -177.33581857 eV
B 10.045268877871013 9.179828426164564 6.4173344151446585
B 11.46787923227151 8.517869186515068 6.470845739027563
B 8.640827895737269 9.960931352772285 6.252107412257779
B 11.818551104133174 7.029531480239338 6.613864618954896
B 8.638919596425731 8.126150283445561 6.530257006830498
B 10.158870432087593 7.420519234598335 6.619445667317454
B 7.216878230600515 9.030854355712288 6.267788290618579
B 7.256138580519553 10.67405979143788 6.0174420465849305
B 10.93380949980486 5.778561648142058 6.7934299410457175
B 7.1703735355434 7.301888082602449 6.523957154464739
B 8.606646928909921 6.404887983256506 6.7475553049259585
B 9.644380473715282 4.8958301923424825 6.9704494808655735
B 8.139599561392249 4.715101322127755 7.034633673649617
B 5.768927197570184 8.267862085701685 6.249086211424583
B 5.829589960809232 10.012900223490703 5.961903838383899
B 5.6274973406840525 6.62564241581761 6.495936380254512
B 6.732984922275131 3.8545676876947477 7.099614167041539
B 4.3444684062864365 9.28859247701273 5.862471999658983
B 4.249613073755244 7.60406448004147 6.131872654891481
B 6.163261750970606 2.2933611933699214 7.2984555026083076
B 4.673987002895108 1.8454520178242553 7.1253099272757865
B 4.056011204660368 5.984503536266013 6.331829403373505
B 5.386129335909712 5.028022954173049 6.728807234169588
B 2.9379002323027494 8.53421501005768 5.761991107453084
B 5.090691621570905 3.4340989285338694 6.944045245175489
B 2.6436551030347517 6.9954585447704245 5.944944135068942
B 3.7664690743893336 4.403755064180594 6.55567952358931
B 3.332889423524512 2.677780604509225 6.740592579880999
B 2.4131399248398404 5.345042373560927 6.152151780291571
B 2.247628336280159 3.7716549244079483 6.359185418540523
