30
Energy = -177.07896667 eV
B 5.672871620552732 1.4273662262025264 7.834565955977756
B 5.625326995486903 1.9494809787900536 9.327115429329208
B 5.904573052619163 2.2716223105467592 6.514040253152383
B 5.886526261952612 3.4613687986646733 9.805497158260124
B 6.104710390939245 2.991438432559767 8.143448670187436
B 6.019371145114045 3.3886899864643536 5.359625219690933
B 6.131249346120574 5.018634059898856 10.224440492540868
B 6.356605495515806 5.736021742811437 7.227693817545946
B 6.156174305679483 4.601818650310954 8.479812585494631
B 6.321413427645574 6.5659038156632965 10.518146108401478
B 6.37767764861412 5.064199832538199 5.556039551528944
B 6.29345170937473 4.084642282694026 6.869185442517958
B 6.366572996384543 6.172390390038014 8.906927413478952
B 5.994583478197397 4.287771258699053 4.022284463642321
B 6.518633317767858 7.73264381621755 9.495513737359234
B 6.571181900757386 7.3889669109639815 7.692059856307453
B 6.120595238892954 5.076307504483154 2.6864691764701316
B 6.671499659414261 8.912933196039468 8.408731575779674
B 6.514245909124705 5.929268983270762 4.115276848894352
B 6.8578086869385695 8.720587924708434 6.735681188911407
B 7.338881302666618 7.934599222327038 2.3253023374761037
B 6.72731805315527 7.591550390622091 3.9002000244919177
B 6.875645541489318 10.317384316556097 7.652058569668074
B 6.947755891972768 8.824560583081903 5.023179235161059
B 6.803346957653517 10.232023968553058 5.933445859223639
B 6.685170789231688 6.524964029267851 2.4366867463729953
B 7.408219072206454 9.068982479562667 3.3943920052943466
B 7.132351137356492 11.628380555852054 6.807522837176504
B 7.319010978227781 11.687827731394604 5.268898708048478
B 7.284622101816688 10.395064034086575 4.323153144485773
