30
Energy = -178.34644290 eV
B 2.3967430000000003 4.192323 4.983762
B 2.9143970000000006 2.599146 4.983762
B 4.589563 2.599146 4.983762
B 3.75198 5.1769609999999995 4.983762
B 5.107217 4.192323 4.983762
B 3.75198 6.609594 4.065739000000001
B 6.469733 4.635031000000001 4.065739000000001
B 5.4316439999999995 1.4401210000000004 4.065739000000001
B 2.0723160000000003 1.4401210000000004 4.065739000000001
B 1.0342270000000002 4.635031000000001 4.065739000000001
B 5.196721 5.740496 4.297576
B 6.08962 2.992435 4.297576
B 3.75198 1.2940390000000006 4.297576
B 1.4143400000000002 2.992435 4.297576
B 2.3072390000000005 5.740496 4.297576
B 3.75198 0.19308499999999965 2.8034300000000005
B 7.50396 4.971072 2.8034300000000005
B 6.070831 0.560355 2.8034300000000005
B 4.165534583933095E-16 4.971072 2.8034300000000005
B 1.433129 0.560355 2.8034300000000005
B 2.337113 7.101876000000001 3.180687
B 6.500703 6.132772999999999 3.180687
B 1.0032570000000005 6.132772999999999 3.180687
B 5.166847000000001 7.101876000000001 3.180687
B 7.375138 3.441537 3.180687
B 6.865651 1.8734950000000001 3.180687
B 4.576347999999999 0.21021900000000016 3.180687
B 2.927612 0.21021900000000016 3.180687
B 0.6383090000000003 1.8734950000000001 3.180687
B 0.12882200000000013 3.441537 3.180687
