30
Energy = -176.78146479 eV
B 10.34727880239286 5.458970178959731 6.827660658881925
B 10.485910811692385 3.967890098402734 6.318292116632929
B 9.800134994596972 6.9912698799691295 6.966978424539037
B 9.192177344357638 8.42780628351954 6.4218144285427385
B 9.348717390206238 2.841135688442229 6.179343799524861
B 8.487400082430879 9.71044567490227 5.767489666413507
B 8.765257193629967 5.790330514432544 7.548091021404564
B 9.233545890963324 4.161731447048662 7.3973647422848
B 8.131997063312697 7.277285422304403 7.238555749057057
B 8.001063645865758 2.06947222523185 5.832484628795397
B 7.485592280462828 8.683982015884448 6.5992303852363525
B 7.782464400452198 3.2459810426529323 6.957901475728553
B 6.944435596465774 10.007615106217644 5.638662181378988
B 7.0184665243749285 5.926276724033766 7.431418987724627
B 7.714395481637792 4.564640848079068 7.952234711634418
B 6.428487151147235 7.430101205577613 7.15713232207034
B 6.29244783502396 4.384580068657039 7.062845638796773
B 5.863400941698676 8.74706801643202 6.2664954766365
B 6.52040433780001 2.540726596307764 5.978708167106974
B 5.2949590885626145 10.204002154573764 5.447585013116729
B 4.821039043622526 7.535278646622211 6.822049003330204
B 5.172806630089902 3.378851592975554 6.168147432793689
B 4.615764348600631 4.726514651236026 6.640937473076177
B 4.248732549463882 9.05099741712448 6.15873835066095
B 3.7303781454152674 10.292680903556814 5.184825545198127
B 3.686824393489081 6.081670847584822 6.700850889966519
B 3.217226855499106 7.73105707066716 6.512754297642997
B 2.573049790735851 9.279065302303477 5.55940643466361
B 2.1238941077976485 6.54814306090205 6.375240232060241
B 1.6915730143704968 7.964255051557369 5.906586481259233
