31
Energy = -183.82154151 Dir = /p/work1/plile1/GA_structures/B/31/all_candidates/346/
B 9.445809376087514 5.043713483721089 3.461933110128791
B 8.306397087429918 6.006425913945246 4.0597408230456
B 9.465807063322348 3.456636514011484 3.539707775293411
B 6.94732893845107 6.729401661728978 4.66219034656248
B 8.285722268498862 4.2679372152243165 4.336732313647837
B 5.462641889703262 7.397290494896246 4.848358458332112
B 7.160591939328727 5.153497343823416 5.1826608032438815
B 8.336778821080458 2.5262033443425658 4.235780016806291
B 5.774707290827778 5.927938133747309 5.583770585467218
B 4.145505041296843 8.24060327597661 4.5618932057983415
B 7.229711881563613 3.4050937166392568 5.317462800767617
B 2.7810393945348215 8.977927923286286 4.2662921333404755
B 6.018677967149236 4.333332015048894 6.1358472981998515
B 4.025142259146884 6.399951296142345 5.257112574781341
B 6.9346931681928545 1.810472638682607 4.7075578123824044
B 5.754111079192872 2.70146634605709 5.523430293401854
B 2.618274222471681 7.448707291884972 4.86938961938401
B 1.3404270044186695 8.426537545490405 4.437555783087886
B 4.5158099758142995 3.628326564219933 6.234855574544704
B 5.448610062969033 1.0972792203429211 4.864789251176725
B 3.456419866015676 4.8080724069175815 5.687048841916454
B 2.2987573626462083 5.9246473709955545 5.403323091720853
B 4.224322822547009 2.051001503587492 5.64990999595458
B 0.9509190513889122 6.938412990053115 4.865740444094466
B 2.9662434060381084 3.1375265711218012 5.8423587656917935
B 3.9144124579203967 0.6596650764250156 4.796277692290453
B 1.8648620534049465 4.295273412650363 5.3633793175254665
B 0.5593249323369494 5.358643979350047 5.039686415404068
B 2.6363887095445744 1.544302232187507 5.133891045264603
B 1.3970699749132658 2.637309901229513 5.281209056888643
B 0.31696158050672874 3.790484861480764 5.073939683238029
