31
Energy = -181.98625999 Dir = /p/work1/plile1/GA_structures/B/31/all_candidates/316/
B 5.58945261899312 7.35910748946115 6.067145425994437
B 4.60072421480801 6.937928765590468 7.235453605506051
B 6.897967508285679 6.56255109097437 5.517547545903513
B 7.39583644264702 5.612661329244358 4.299533712945258
B 4.417013344380391 5.933326886472266 3.5896368793396993
B 5.991736064365275 5.421658742847348 3.281241859789191
B 3.089173659480139 5.9925123342873805 6.13452350494524
B 4.339894709659062 6.599253640376068 5.141890784473925
B 4.722012944766115 4.91548264841853 2.36510947013349
B 6.308106340307306 3.965304216331544 2.2426794498706455
B 7.035092406548964 4.9319704069514065 6.011189132314606
B 7.52101139727102 4.419487091909036 3.246272673486103
B 5.615101974743834 2.896307462547661 4.727120929355384
B 3.9795708307733046 4.368442141920926 6.572827584983526
B 5.504061685128385 2.333205048650984 3.03057491322598
B 3.5039675384534408 5.922859443304723 7.830107165829519
B 4.069902291638026 2.4952597226943007 4.181433024469495
B 6.9586505143101345 2.7768056499465192 3.652040275352157
B 4.34267495842147 2.9466465450983357 5.7392296340063345
B 7.1886117822181275 3.744083135614607 4.929494351417456
B 3.933542810190474 2.301175052752762 2.5023948421085347
B 2.053629095564903 4.6679593204541785 5.746832739283508
B 2.430219148884296 4.928868523926595 7.288454857037389
B 4.997736871374301 3.3632904693989154 1.5737329341521706
B 5.565732903063289 5.644708847255018 6.474228288354431
B 2.003596532702131 4.227619172034594 4.185254345621047
B 5.568797584566455 4.024477027282716 5.964950653352484
B 2.717030897026194 3.1392689986880518 3.2305325343066458
B 2.8761112074900788 5.69489789174349 4.517933886444551
B 3.1057332636859694 4.905829521507637 3.0393363145077066
B 3.4490861467762186 3.8070276512372883 1.7856876625987026
