32
Energy = -188.20570668 Dir = /p/work1/plile1/GA_structures/B/32/all_candidates/212/
B 3.424578656863717 4.5684014348940885 3.239292339236769
B 3.9856883603517175 3.0636354932081313 2.7975544441770746
B 3.6816086665214534 4.717629725765864 4.925578899795809
B 4.219535926726152 1.875496405803957 4.003210139434618
B 3.2812259593728053 1.9583933996480258 5.359282389405784
B 5.363134354207548 2.032506127043221 2.800582952289441
B 2.900298472243284 3.4099059624398884 5.9723650514505096
B 2.9451510754181793 4.931467345220141 6.63653884091069
B 3.7374171409383634 6.264066411426997 2.9660757010054577
B 2.9796191786320745 6.940052451617552 4.31940715628226
B 5.719557684967921 4.853281975869322 1.3174157517711094
B 5.478589156941704 3.364553728859001 1.900868857498883
B 5.955369560730925 1.8421534781385738 4.353364779206877
B 4.980900028375302 1.6287618196670626 5.6304895696098844
B 6.768830867814791 4.390735974827598 2.498644003248141
B 6.8234322424456675 5.105225586932239 4.009100060504434
B 6.517977329386788 5.753498797054948 5.441121171467229
B 6.281579818791971 5.937876198964684 2.481537339606458
B 4.226807957889296 5.2402783890188 7.90418773877548
B 4.608205652875746 7.539334283924275 4.241055376909663
B 4.094759206691387 3.738696939713094 7.555492074302771
B 4.024121110671294 6.50105372910299 6.9389186381455
B 5.260773434195546 7.242102628654903 2.8000116950962077
B 6.344824547834735 3.381332958382981 3.819858253498996
B 4.835335798581254 6.204290188812442 1.6563512971567456
B 5.332388215648448 6.825465428730313 5.733370365615518
B 4.077112138803502 2.2993125199821725 6.777258326769546
B 3.0170067133574388 3.275444200136853 4.228011115588637
B 5.467228367979068 4.547318340126214 4.895212147951759
B 5.202471489904694 5.170214456364853 6.446254916242387
B 3.843844783723563 7.568567105881111 5.674148092582011
B 2.6698258042227128 6.17500900916613 5.663949004692726
