31
Energy = -183.09666039 Dir = /p/work1/plile1/GA_structures/B/31/all_candidates/288/
B 3.1532473275835433 3.157352525498955 4.77829039382181
B 3.714214015861017 3.00715541779356 3.148656546194087
B 4.370268511613702 2.0675557687915997 4.313778455910477
B 2.7959877789030347 4.3435831883398714 3.4905000766816134
B 4.52720102376885 4.360069209672299 2.629155919774968
B 2.5283284991756503 4.680735680825578 5.206608627682005
B 5.434813788187042 3.0701145721126455 3.3954338931928203
B 3.661183000727837 5.816478412199079 3.066308306708255
B 2.1975606402597325 5.782025307161372 3.914639589118862
B 4.508056902581103 2.90463589138637 7.272810419814318
B 6.189980572622429 4.629821835495575 2.99099509316204
B 5.174616373516945 5.8399433711762505 2.4037832700224904
B 7.01422967681177 3.44194006556983 3.792605366561576
B 3.181007444094954 7.076242534400986 4.210871307663035
B 3.365763743764199 3.8088487964145847 6.379129104914524
B 4.762283224822685 7.094790498859123 3.3667426948872294
B 4.425681972526185 7.981427753238306 4.725788364447112
B 4.199706714966815 2.1995817585840425 5.8746174277950605
B 3.4195904343389483 5.527307668162043 6.465636142673632
B 7.615827309510206 3.6927055947327045 5.252828021463912
B 7.4028694842679155 5.0249416286618285 4.134173098188797
B 6.020936492880227 7.518322460098772 4.6593039058716
B 3.714823649909381 7.0631889369443925 5.975691161807004
B 5.930635825326069 3.5938878175545512 7.565396283511077
B 7.335472602842853 3.9425307985014593 6.831171872640187
B 4.583632505371807 4.626919208630202 7.286734330847742
B 7.3147018271613655 6.555862030397363 4.7128604368803995
B 7.440973617304748 5.354626224695483 5.91162983070702
B 5.201039966163545 7.714244558701159 6.156651716843245
B 6.196470655677521 5.186749727373959 7.050641793132807
B 6.45065615104128 6.672947031928787 6.188204128449375
