31
Energy = -183.0588066 Dir = /p/work1/plile1/GA_structures/B/31/all_candidates/202/
B 7.911867263674349 5.642359412019619 8.882959726281063
B 7.585467674856 4.329277564856856 7.940218835126256
B 6.964892483089423 2.9607994898920293 7.27800216443617
B 7.555701055120275 7.230018773846874 8.1305785726557
B 7.969210363561946 7.014936171250389 9.708889348822291
B 6.130840305931418 1.7514702875093688 6.655462071124387
B 7.431213473051459 8.426630234379452 9.25093951649409
B 6.994614513060078 4.468770072936599 6.357705449276166
B 7.196436376827012 5.838941868067579 7.266398003493953
B 6.76492808218348 8.788683702238325 7.81742982105124
B 5.145174568162614 1.743124343494752 5.4218624417985835
B 6.607964631687145 7.40203851485275 6.791808883456882
B 6.164779125207806 3.1392307132662736 5.7343885570573665
B 4.845576423880121 3.357080935661018 4.709676173612969
B 6.274930161017777 6.047503594296649 5.87739589004017
B 5.930186622275079 4.6330395159492115 4.976947138147524
B 5.1893590725804515 6.204886101403361 4.6129721607962635
B 3.9768252591450213 1.9570034520573358 4.3018088672618315
B 5.806890995910402 7.599395899590317 5.342620605129997
B 5.886455886798093 8.981530402321939 6.440822370837997
B 4.764455064654877 4.856204111834355 3.7039644975070525
B 4.464902806827829 7.754421086396198 4.261110597536852
B 4.873502783301513 8.972576095537274 5.214787142447488
B 3.756322103298505 3.4708848056761705 3.5001184575521638
B 2.8204731551665216 2.048226567709699 3.162174458721948
B 3.9372850870080853 6.357972391446399 3.5520344070698897
B 2.3924011704988963 3.650016704022743 2.5622790495247663
B 1.8426439182622256 2.2012763601551497 1.899934277256492
B 3.4187946248400976 5.104300434631603 2.5965779704004928
B 1.5310423119312484 3.5278955831952405 1.1283703931025113
B 2.453394649678069 4.7800673425669045 1.316276976577151
