31
Energy = -182.89269556 Dir = /p/work1/plile1/GA_structures/B/31/all_candidates/295/
B 4.914033017734213 1.8307402684199645 7.187952001250124
B 5.633685351783238 1.6071057494928735 5.778067298887333
B 6.652497137534693 1.8108416873701696 4.507668487690339
B 7.7731601181284145 2.4255969860507913 3.600422192471045
B 3.8419025503332267 2.9796714453743736 7.509142099744214
B 4.330889940930927 2.656457574421932 5.894266691685656
B 5.018322184869332 2.4578436137486657 4.369043969758542
B 7.679502337629107 3.757302899778634 2.747309059781601
B 6.230549423992149 3.0241885639114763 3.340885689529148
B 3.098504418769849 4.428937642503533 7.624719470572318
B 2.9459695405342714 3.6091678993645098 6.141804160497142
B 7.42683088140737 5.311724511730212 2.389271074868715
B 3.612606106317314 3.4576189698015978 4.529792141590931
B 4.6885203074262565 3.734649422633589 3.1950451280475396
B 6.029811850688503 4.293332529911161 2.2748148508439554
B 5.391339515625844 8.037702562314967 6.919751264809017
B 2.341262613731099 4.463646994716827 4.801982528573716
B 4.065224358516938 7.286975763070044 7.360125631465115
B 3.430651284440343 4.8758132686709645 3.595439802620714
B 5.946948335176419 5.88753740240895 1.9878484143943642
B 2.99475935206649 6.0488272637269915 7.564338424570547
B 5.284244598652596 7.083779987508024 2.832489303415362
B 5.89726861169983 8.21687023650662 5.445629216547704
B 6.956457566422603 6.843036864340365 2.850463004621182
B 6.3524935392065265 7.896020145003933 3.9230556064726683
B 4.180479040957951 7.9901895520290855 5.795723893096992
B 2.3521923779361025 5.220397149207311 6.27390390910702
B 4.6256728804205505 7.812195492756192 4.166986659041761
B 2.838369342558411 6.891201599981041 6.145931134683161
B 3.0845410950415166 7.445356438250641 4.635719605360349
B 3.6887003120583626 6.540571167080025 3.442684789360569
