31
Energy = -182.18257154 Dir = /p/work1/plile1/GA_structures/B/31/all_candidates/345/
B 7.6832123202397815 4.0557749048786595 4.106450604308683
B 7.636874423000027 2.6492998363251976 4.958956724281627
B 7.566077046686646 5.508250928419553 3.389818029212331
B 6.179816991324748 3.1624077518399285 4.152559456626564
B 7.440973921838218 1.356114566190405 5.9310445317472915
B 6.138763360888028 4.761033910450818 3.705515528459214
B 6.064245665008974 2.0062563577450856 5.3323858822686585
B 6.22307619686227 6.212943908888201 2.955039761253834
B 4.673676275761844 3.9390367636627555 3.658959238680623
B 4.6417087528739085 2.471794716698577 4.576603569696038
B 6.056739783388771 0.7212700973712263 6.337438829285027
B 4.7557078087615245 5.587991767527772 3.137012679503727
B 4.604381002377631 1.2161247221594405 5.859639457964381
B 3.214519701057805 1.912607917706681 5.365140781600006
B 3.260859392433611 3.3941720253925185 4.438896349133648
B 3.2753793392311428 4.91128878666346 3.4616671708964013
B 0.2211884864541692 8.875540783131335 0.699356192141854
B 1.8511637857625922 2.7186654539393356 5.099971997084115
B 1.3506912241821274 7.910295332971249 1.0661426581056093
B 1.4053257768202552 6.761732386807296 2.093083418547331
B 1.8486502891592602 4.167922923274497 4.146058829770347
B 1.6982892971668746 5.551678260590295 3.143044168837558
B 8.376448760833307 9.010119052653435 1.3061229248235187
B 0.421078640529399 3.5116483937734606 5.035932596891341
B 9.3656568288471 7.6683359901597425 2.0277615507157907
B 0.15547563308546403 6.34140274853567 3.161352437301532
B 0.3576878442352245 4.921889264984917 4.061878495946327
B 8.65531401320628 4.338214119736383 4.947373304226309
B 7.683212320239783 8.208414271717897 2.427088451372975
B 8.10884797395893 7.007834536229462 3.273835317827705
B 8.411487607166716 5.666359761470828 4.1160760130175165
