32
Energy = -188.74589596 Dir = /p/work1/plile1/GA_structures/B/32/all_candidates/221/
B 1.8670300757490599 5.369402824730433 6.4216228568299645
B 2.7431589507212344 6.826790360304853 6.223997615530455
B 2.933189585286043 4.3546595006577835 7.0206772819770915
B 1.9272058135165446 6.00645597258978 4.957746853694408
B 4.115180408266518 7.48576760815234 5.597636152491731
B 4.233763469187411 3.5375293282652365 7.559684560477707
B 2.581332348832732 4.442669221077336 5.172747871189295
B 2.8576180924093584 7.22666849598709 4.484482572505192
B 4.4535278083488 5.281913967294597 7.529970888816816
B 3.7339652093651194 3.3238603935774838 5.9067841262602725
B 5.7944288293599895 4.364194872914918 7.387946443463713
B 4.13121768046909 6.887217931270477 7.1814289305193375
B 5.298380335951542 2.663043728277412 6.6668871075867875
B 5.56768578224223 7.163504390523394 6.485241488591016
B 3.511281438874797 3.452396134045814 4.251682504815091
B 6.931921647876484 3.5343343289875815 6.609845443720129
B 4.871138291215997 2.6923361250755717 4.916943490788234
B 4.259706877815364 7.7267727577221095 3.8673468938014053
B 6.791042533462748 5.135860477277146 6.190864958372321
B 6.9030594942536245 6.690144644533804 5.662814517805881
B 6.461985418463973 2.2776504291584665 5.530462726092804
B 4.798237650424229 3.220025206372029 3.309989147108005
B 5.664407969845002 7.366313594786457 4.76968018945717
B 7.244613331776198 3.825706566263567 5.07915360303145
B 6.7667841580092825 4.964647056542826 2.145900059214012
B 5.659532072323269 7.5574259805615 3.084850366323321
B 6.357981773468332 2.682241335995052 3.932112015270806
B 6.726739313934701 6.631427569517518 2.350756962290277
B 6.144851443459991 3.519224234732096 2.4618971997142056
B 7.385042547609491 4.149850798844358 3.465739746257428
B 7.079593099963332 6.926031073527272 3.9898650605530612
B 7.830369214461843 5.729810103432019 3.1173706443684033
