32
Energy = -188.51606142 Dir = /p/work1/plile1/GA_structures/B/32/all_candidates/257/
B 6.995659098461021 8.312689203042027 4.398318500445817
B 5.399005520789182 8.357350594082058 4.6421449677127455
B 7.5589529815114735 6.880213334484379 3.803623935244161
B 7.0144851850761 4.103215227704488 2.354288741250961
B 5.426578609035373 3.7035907968238413 2.27158769618969
B 3.8620278972307576 8.18717493809705 5.020319330930564
B 7.6097595615322495 5.443199086936498 3.055415829792557
B 3.9149833190628796 3.8221414806226104 2.7617224241249008
B 2.7835388497153013 7.11313196892013 4.5519018742179975
B 2.7198905225631056 4.788771500093507 3.292132485940308
B 1.9727765612984123 6.056234987751782 3.770434701783185
B 7.392136107960075 6.973716310683467 5.474643739896215
B 6.662387245903353 8.588868592920054 5.979433970431974
B 4.788035409581969 8.246527350208273 6.353237877909035
B 7.2909859885062165 4.0654178420876965 4.019343761842856
B 6.605447339407593 2.774138128993509 3.2382098264686516
B 5.994390918126157 8.527332352120757 7.472626791819672
B 4.982213415071182 2.9959288868029934 3.83852084007507
B 2.851479160392965 5.428286010086604 5.046126980339981
B 7.621498283904635 5.494572691183391 4.796449206256389
B 6.915716484296611 7.237447623230259 7.09363237199488
B 3.9258216857511306 4.167807496627205 4.4215727297287994
B 6.444054622735478 2.6961351171343177 4.858456896704266
B 4.1619711780959365 6.615229195895771 5.756830547739159
B 5.217903490293769 7.1450243881594675 7.657500686200133
B 7.28174757412154 5.732287535364718 6.613443458820824
B 4.978601583482084 3.3740082451363063 5.486162809389404
B 4.118647802675635 4.8955670363881385 5.9744345030577675
B 5.301108288043666 5.582723905474698 7.146655889074611
B 6.273000335302286 2.987087389597923 6.456117946147881
B 6.631380246236449 4.370357746919787 7.207668845631246
B 5.047259548863407 3.9256668622646833 7.070699245477074
