32
Energy = -180.18954326 eV
B 7.175046 8.396918000000001 4.378278000000001
B 2.347455 8.396484 4.378338
B 6.42411 7.065492 4.987017
B 6.395843999999999 1.3513880000000007 4.606066
B 3.0986409999999998 7.065207000000001 4.987101000000001
B 0.6145650000000008 5.65481 4.512346
B 4.761372000000001 7.023107000000001 4.826669000000001
B 7.261264 5.661213 5.175023
B 7.934343 1.4944740000000003 4.298719
B 2.261756 5.660752 5.175009
B 8.858708 2.808617 4.265466
B 1.417005 4.232925 5.032292000000001
B 1.4515970000000002 7.1263000000000005 4.640586000000001
B 5.5808100000000005 8.52061 4.505994
B 8.908455 5.655581000000001 4.51233
B 8.071139 7.126905 4.640544
B 8.106252000000001 4.23355 5.032252000000001
B 1.5894660000000003 1.4939230000000001 4.298671
B 7.158899 2.8670210000000003 4.718276
B 3.9416430000000005 8.520481 4.506133
B 3.1279670000000004 1.3510920000000004 4.60611
B 2.364659 2.8666359999999997 4.718195000000001
B 4.761902 1.4264650000000003 4.7906699999999995
B 5.299999999886417E-5 4.266139000000001 4.188579
B 0.6648700000000007 2.8078760000000003 4.2653680000000005
B 5.30000000004501E-5 4.265264 4.1885460000000005
B 5.57178 5.601209 5.2458160000000005
B 6.442961 4.191572 5.415197
B 3.9441480000000007 2.7232360000000004 5.407149
B 3.9512580000000006 5.60106 5.245818
B 3.0803130000000003 4.191268 5.415223
B 5.579428 2.7233700000000005 5.4071620000000005
