32
Energy = -188.37461268 Dir = /p/work1/plile1/GA_structures/B/32/all_candidates/205/
B 8.403977011221821 7.991656315107049 5.698123496947668
B 8.519553062617613 7.529758207361165 4.13991604061017
B 8.034590227623454 6.921156411802356 2.8197299180851907
B 7.332893180751147 5.17950581844372 7.075036067264335
B 6.8013927924249185 3.702297869452853 6.682975928729574
B 7.6280672721312115 6.786568962047061 6.804869266910507
B 7.637102516102628 8.563099112494918 6.931362590864839
B 6.005967436917844 2.8574984892516637 5.576699581637957
B 6.679789601156413 6.2102764421913825 2.4316770659268085
B 6.6110781042105 7.947569676383353 5.680573301796115
B 6.784004569214439 7.357936312926655 3.766004968028101
B 5.221108530416564 2.7171932542907657 4.12778052209102
B 6.432032872070444 6.266574352919951 7.944733243956447
B 6.317315084225662 7.802474796958594 7.517808655999148
B 5.916148196274534 4.674451798717978 7.842039410815674
B 5.13394835008174 3.8571992597230866 2.9976345159061055
B 5.391762897498385 5.291751962951485 2.281034578730752
B 5.145812945674785 6.491204248740757 3.451481465168022
B 5.171813493203909 3.3906043707698075 6.933829513087462
B 4.2730879611841734 4.463525849423843 7.942924658763112
B 3.96088746723896 5.138181518654552 3.0997607534753953
B 4.965391975139192 7.615028508119023 6.19630095470391
B 5.39717005437652 7.743833506121485 4.558922330901044
B 3.819426022868097 3.6627977290609683 4.055067676437775
B 4.31449050903829 2.9559160204182136 5.513051310358366
B 3.427372278549817 3.534732548169829 6.919250896279668
B 2.6002582243640235 4.860876342902153 4.029343550428417
B 3.546321668593162 6.798970835618963 6.449438841645941
B 4.149143572812881 6.80576421461002 4.894042147171506
B 2.855455513010535 4.082365305553413 5.450115741975475
B 3.3147884298871 5.234465791987305 6.847268185843635
B 2.81896291502986 5.866747343612478 5.336094750803545
