32
Energy = -189.1337323 Dir = /p/work1/plile1/GA_structures/B/32/all_candidates/180/
B 7.132681469519987 4.299411914103808 6.604486768420424
B 6.642269584848014 2.81296374555283 6.362098274417926
B 7.01476131134982 5.401141209228371 5.344965436705067
B 6.075010009506591 2.2251670967226556 4.301350620725053
B 6.578078462934808 3.370247384378064 3.2759406732747607
B 5.864693893827635 1.5388427611328572 5.77823956906459
B 6.92062721337985 4.9583113244478065 3.6519914778681284
B 6.968837480994091 6.557131328171177 4.160974846475456
B 6.120390410501271 5.630964509266503 6.8270788679131735
B 6.157973874507917 6.889362430933398 5.662431553413915
B 5.57429750985991 4.075326433433539 7.049479542459426
B 4.843920828725361 2.466623373764224 6.658292687048489
B 4.885922365359714 3.1176206604430123 3.413089166777193
B 4.564509611347378 2.1095323485549042 4.918865631409537
B 5.8233689098388375 4.4615743126919085 2.4087034375071674
B 6.0501011999030965 6.206693491316716 2.7870889961071508
B 5.497634197440977 7.314695682963862 3.984103841656442
B 4.9554587745438115 5.628756429225083 1.648992536450487
B 4.4013272753455075 5.352143153929569 7.237477174179055
B 4.041006584617906 7.9700810769465145 3.862621255478905
B 3.920168957036357 3.665910963781316 7.2503292076361205
B 3.5616339458450215 6.397950483133461 6.272202233330621
B 4.418784507092633 6.861187268099316 2.6715244338661375
B 3.5510925855627504 4.065314630341495 3.0587502655678565
B 3.4088587528753087 5.49694421527909 2.1564952217839526
B 4.651239118509876 7.591652716390277 5.398612009327459
B 3.405514184542751 3.1043279683137275 5.650885520163444
B 2.680904716028665 4.180105347574882 4.610178461294285
B 2.535896299705259 5.338176613850049 3.462709073149672
B 3.2136180604417035 4.728463980454718 6.113265748065853
B 3.0629748732426036 7.2898772837693935 4.9670616144502215
B 2.4012451503814134 5.802852812738658 5.130513027812726
