32
Energy = -188.02523956 Dir = /p/work1/plile1/GA_structures/B/32/all_candidates/161/
B 8.417726848358205 4.2869608153974 4.146101285981768
B 8.277250523833247 3.3549155099951493 5.449590052182826
B 7.632702785604027 5.735758775728992 4.176286672980941
B 7.493223078525178 2.894241280706426 3.93117022076333
B 7.551178025182542 3.1438050226233902 6.864234372234243
B 6.756666690729906 7.043844473376302 4.54110532699007
B 6.869372078545016 4.347125971243664 3.429375630905822
B 6.73752300904275 2.4954936243192316 5.496071460163277
B 7.204832419190181 6.2277748007214235 5.941604644778111
B 6.10517244082642 5.793530703237989 3.2951766876755695
B 6.326033922545138 7.5803368471440145 6.129156592142931
B 7.346592939290316 4.714349903593101 6.518323443985216
B 5.895766169869 2.8327084613046924 3.864402346647062
B 5.452480311166866 8.052170417954242 4.744191238014036
B 6.001958261208131 3.465166048957241 6.942280156941054
B 5.115374539685014 4.465311559179309 3.400102061305481
B 5.034824306575718 2.6563453778476482 5.433827164011919
B 5.030924489506163 8.539433029912637 6.326187893993903
B 4.430697377608286 5.971421004652556 3.37369822031907
B 3.9044876955439283 7.3981727288289285 3.971702727750414
B 4.2825193852337184 3.0189760414932203 3.8473511311020796
B 4.398624343414807 3.4706677283246785 6.8019319631881086
B 4.036384617808528 8.733000777743861 4.963205230253295
B 3.4794063500997554 4.4913856213291545 3.79296726766291
B 2.226707040202767 5.678227214730406 6.635057112727782
B 3.4125578809214776 8.409657873984575 6.5769477304969985
B 3.590217621618165 3.5462268771425034 5.312504226934232
B 2.229031418855583 7.341382116835504 6.594580039095655
B 3.0038099199544686 4.289925384915098 6.717519708732539
B 2.5327681916415665 4.885335050904983 5.148083257748187
B 2.640750859113706 7.927231032266706 5.049664559249361
B 2.0457161715952443 6.464498097419641 5.204453975180778
