32
Energy = -188.32004177 Dir = /p/work1/plile1/GA_structures/B/32/all_candidates/148/
B 4.021374730148812 3.16936885165636 3.0116160607537528
B 5.2469521248187565 2.2181334127005554 3.489040166601162
B 3.020842068256103 4.2312399279443484 3.8440655220112343
B 4.417964786308679 4.7976403878666805 2.8054217940064623
B 5.639998099656937 3.729119084172499 2.806175745895569
B 6.8789267360890864 2.707688771722786 3.476472165297206
B 2.749303971225145 5.69789076648321 4.82003834834109
B 6.1946042574766444 1.871326765388869 4.772715945508093
B 4.70442248558165 6.435402202567822 2.9940192958878984
B 3.2064762234174653 5.901201439538511 3.2914663096270593
B 6.032962553961853 5.455031740849298 3.1889088008277278
B 3.85148546758294 7.0521482911948965 4.275908121219234
B 5.906841753608449 2.501108711793896 6.225169284774524
B 3.090712576375789 4.1782410340356995 5.48442678034305
B 6.79729171367474 3.4002414598016286 5.028245702045218
B 2.9067780896455093 5.491106085611704 6.456557812229385
B 4.105956693019669 4.2926447734733095 6.754295459904251
B 5.321470252481753 3.311005524108038 7.487200578810598
B 7.372314604612659 4.26788959318194 3.3977772695826394
B 6.781799879281859 5.12764340367143 5.029852667790403
B 7.688591865536536 5.812247192640785 3.685990150882434
B 6.021654745217688 4.285187804719149 6.231598312359455
B 5.243725217148396 4.810836834682998 7.947370424284792
B 7.187967835886363 6.804709764630457 4.7863957062648845
B 4.630622036500324 7.918020346796229 5.393297953348507
B 3.952932912622931 6.046773867813084 7.5338553034791635
B 6.420985788849401 7.881751551707258 5.698313960820614
B 5.160457903844548 6.344278002481973 8.590695883301164
B 5.276384909911693 8.913030666469735 6.387639296165718
B 4.996276969899483 7.425012475551258 7.226845365211535
B 6.222278776288542 7.4939709372233665 8.533705936370747
B 6.493783006313233 8.436522071027323 7.326510332434644
