33
Energy = -188.9490932 Dir = /p/work1/plile1/GA_structures/B/33/all_candidates/98/
B 4.13148986985 3.0831493904846927 7.060749546921099
B 4.8966603391482275 4.3717708878650345 7.547117757379985
B 3.574147562367327 1.5097374855714576 6.83451839298565
B 5.141452137215944 1.5753040057194594 6.436103638028162
B 2.501865405989887 2.5879512286157764 6.4376642979367205
B 5.930099606918886 3.327530656504869 6.798852479276633
B 6.315123178038425 4.96692223985473 6.877414143276444
B 4.63766882042857 6.0093606582974175 7.18746608979349
B 6.635624930023398 2.0252111408648923 6.043120152179144
B 3.3457297166379227 4.843944289774866 7.002289747008198
B 1.8221667680257503 4.049809875009786 6.495435232402414
B 6.351253768221873 6.531468226405429 6.616112852923382
B 3.329787088469192 6.544181717537157 5.963243333286871
B 1.8304838715554248 5.570001355127414 6.764039768198346
B 5.118624707051505 6.415093237012764 5.457802658605723
B 3.7965100549653727 2.113333272480063 5.269898717438252
B 4.238088155038977 2.7481442300462664 3.901777055268594
B 2.521741167071809 6.791442342084196 7.525574898215727
B 5.608246613941422 2.286081777998708 4.774451913647682
B 3.840805289677685 7.607145307640816 7.564760328972361
B 4.4394271174186954 4.298942180187868 3.5151871064773674
B 3.852564766728479 6.988934448943177 4.460728355399373
B 5.727391503725693 3.2331648794866616 3.3689528462519696
B 4.919024793024542 5.8156340061894936 3.7384292634862004
B 5.378960406316691 7.634847605978619 7.212035173318913
B 5.951151124177473 4.762717129096793 2.897865353089483
B 4.776679427411014 7.45103792331232 3.2276083833629037
B 6.029480807637778 6.39174521793106 2.5472287202443775
B 5.906996083404923 8.046576225529744 2.277069624856339
B 7.2004873998989005 7.183568380085603 1.6434224153845538
B 7.011188797764081 8.902471081006448 1.3965962780599095
B 8.358775436582073 7.8945676363115975 0.8448035063699295
B 8.194044382300024 9.368570756771796 0.5330252176467977
