33
Energy = -190.11566923 Dir = /p/work1/plile1/GA_structures/B/33/all_candidates/77/
B 9.035477465265695 6.275628412002029 1.201104132926085
B 9.392785047395899 7.543823141600049 1.9474844900302757
B 7.738274409988539 5.404327641305695 1.4407571763723028
B 8.022273337095532 6.901158299806101 2.4324228800640197
B 6.348818938238145 4.617904377808671 1.7349505978182294
B 6.619728358433323 6.151037068593928 2.8764479217506898
B 5.138741378660221 5.77899406359857 1.7704276688247043
B 5.848033211405336 3.5297457536036965 2.866045843667246
B 6.462964055166103 4.822290134447567 3.9295581989962023
B 5.04601948646684 6.770223766030093 3.1866102433544796
B 3.683644574956025 6.425643590415043 1.811621015084048
B 5.797364479486881 3.3177688114606996 4.415269621992654
B 3.745627694003094 6.8842351006626386 4.102084067900692
B 3.573005810645213 5.290591575356033 4.922947822047372
B 6.693951843458828 4.439544891695221 5.541411328118816
B 3.6316647174121877 5.287996890073914 3.095419168275046
B 7.481810168888365 4.311931503528692 6.921982685489
B 4.452007838348882 4.135233586751417 3.9011938832409228
B 4.698271307001617 4.073807752912089 5.663288258908623
B 2.4088643001237107 6.5131086632981825 2.7117436487274427
B 5.820250493192775 4.230349705550029 7.023044987441399
B 6.8696438388607035 3.9515243721752977 8.281172440616036
B 2.159499440381121 6.279501055859487 4.254679236686479
B 1.9177440509618036 5.29716487917159 5.536129472389854
B 5.360980401076373 3.541552751811051 8.542130811338248
B 4.17371229187606 3.6054572800150164 7.254269373633334
B 2.9628622843441255 4.298129188660827 6.329510194298896
B 3.923174835517441 2.865748916116867 8.759688961951236
B 2.38889274812006 3.366832875782548 7.830899613198591
B 1.319358152031438 4.41302182742104 6.702076126515431
B 2.553951492741884 2.3592056242708948 9.291656268609385
B 0.6011170441060374 3.562780393497904 7.79267885317222
B 1.109644460926366 2.6270433449648887 8.884044983489746
