33
Energy = -188.90702005 Dir = /p/work1/plile1/GA_structures/B/33/all_candidates/87/
B 7.711391967812763 2.7402646255931713 1.9268525740143005
B 6.947149161093629 1.738812771404857 2.7863932918058243
B 9.429248894853195 6.962003399196672 2.740625574606863
B 8.048669506032613 4.299628541307046 1.8811401183137426
B 8.931676053020249 5.6027592207056465 2.134468818932932
B 8.912769465851675 7.735625399996108 4.007937702565334
B 6.892292884927082 3.3030025320564764 3.4252639751535607
B 8.077526851943482 6.406218941100523 3.4420026025879618
B 6.032097216134632 1.8476257350765073 4.001568990829968
B 6.883740098274479 5.113037841468107 2.9389599850372017
B 7.777957299489531 7.223565681561647 5.005620223330642
B 6.560537124175287 6.348873700150334 4.089035077249061
B 5.122462192072008 1.7655631707092865 5.345725133104321
B 6.052753270897075 3.1792149342384697 5.1244666116042445
B 6.931668506179298 6.085454883657146 5.704270086612798
B 6.044219072998005 4.859548896404338 4.883344761126979
B 5.4054756343477415 2.524118987981237 6.674992773176599
B 5.288924694359082 5.605414459618822 3.267396434504716
B 4.007807620878826 3.023891015685872 5.787408387470389
B 4.472710101352518 3.459322941256795 7.604464645085132
B 3.910658391334848 6.365623712629253 3.537450250511927
B 4.274400443452529 4.844345691502501 4.3481368581107125
B 2.951629579105546 4.004766482229964 5.0958807781799145
B 3.130492114913199 4.221466018686266 6.776881652914054
B 3.498323274636522 4.394484701486632 8.379852406765494
B 2.5023708357483194 7.040007975677621 3.9024124857020968
B 2.635106724740139 5.450460535992225 4.3592266705250715
B 2.1371217194602434 4.968880863535884 7.983641780994027
B 1.7473471653689963 4.980949753195994 5.8050953299988155
B 1.3826749492575354 6.543116097646325 4.826858806938177
B 0.653818929549996 5.179829356115199 7.377874013346541
B 0.19635351603775786 5.910072958167898 5.708009859861956
B 9.429248894853195 4.967110854668511 6.567260988938915
