34
Energy = -193.29508638 eV
B 7.921684209626547 2.242389100274262 4.812482270174425
B 6.118483023121939 3.3938168249021845 8.333090670288364
B 8.654479960103313 10.092762147195026 7.966302603446011
B 8.480726794529897 8.642713326453105 8.538616894690746
B 8.343947979911269 5.520610864083579 9.19291865266754
B 7.058382147541295 7.294322081730346 1.762795574207203
B 6.611525247247754 11.745333205223139 6.218574994048794
B 4.623319770379119 5.358806982437068 6.848479406976045
B 6.631192643219769 5.838587286566146 2.1382885438988413
B 7.095661373402769 9.47240888000179 7.85968973508631
B 6.876178557653613 6.217991599101618 8.735065281198079
B 8.089162583894936 6.344654395142762 2.989765342316121
B 4.2838284751693765 7.952370582522983 7.952267463427374
B 5.690525584005174 8.681935315151238 7.418213677692477
B 7.039841040352794 7.760843446661157 8.064084753351443
B 7.388036128791137 4.858008879651338 3.169680305493865
B 4.814311193288623 2.505981234622046 7.576642162476675
B 5.8778187851986 5.048177678623045 7.964150079914159
B 7.231368143072873 4.44586494064206 8.871472768732886
B 6.156769562186877 10.153400290156064 6.555673473817932
B 5.652058882542389 3.897886992623131 6.512504178252211
B 4.079218501493966 8.496158593827332 6.413440785614663
B 7.693060740895201 11.023078275467869 7.147024998002145
B 5.497631950073954 6.817932304018106 7.920761366906553
B 4.138281904843121 6.870698601783028 6.629867379910926
B 7.408537555813837 1.6588145256729345 6.139733268478455
B 8.332966322540715 7.787758555745816 2.4691847859974407
B 5.3182608938403835 11.214566342323872 5.576274414125039
B 4.5296356080279745 9.880323578405024 5.754151920273133
B 7.593475095265366 3.5262046144317973 4.012344455622052
B 4.427479800319164 4.0120479835048535 7.788433547377284
B 8.340969416693946 7.0846369547214065 8.973748921674085
B 6.2354518364140805 1.9888336248270453 7.166974970418328
B 6.769968551060913 3.1743202540287156 5.531540615964935
