34
Energy = -198.94850928 eV
B 5.504066845826208 7.2973197935194225 7.222787305862391
B 8.365507634469774 4.940669271876964 5.218407602868493
B 5.120685926662177 5.642803717075309 2.9175552630476504
B 7.162666787091605 7.291567098348299 4.0833839226904125
B 2.552976229959197 6.516677585288412 5.300673516997385
B 8.32269232646132 5.827755561354866 6.66774553625086
B 7.168056692046629 4.908643773407402 7.307046285689964
B 7.740300289600736 3.967139904342403 3.9117812876178815
B 5.88490477684356 3.9654638216066314 7.544408629280566
B 3.518251195274435 3.183341914478281 6.4850176880214
B 7.927821624641109 6.668624909167645 5.349911300982495
B 2.760492463113837 6.337233941595321 6.9729977896050155
B 4.866116780346938 4.064879257917044 3.4135889254767044
B 6.42840957509208 4.604545997536679 3.0428731128113915
B 2.527997686777794 4.958407965959489 4.492565735299647
B 6.971886868101954 6.690407828216044 6.943568116590142
B 3.2577080337829454 3.5797356817087898 3.6785427119741407
B 5.492469184405554 7.178020493216957 3.900377662566567
B 6.5253262133196355 6.338321929359338 2.9131134125613394
B 4.656639874839469 6.121565416385836 6.016935422015558
B 5.170746380956081 2.8741254059847177 6.414884267988235
B 6.899554448873612 3.2136541483696908 6.526555114773589
B 2.5948556128510147 3.4403460439975566 5.155983768191348
B 2.8404815487831887 4.760844253421031 6.324161788048979
B 4.072876564845138 7.34307645203592 4.702509353956139
B 5.525440855162083 5.592215184417136 7.545552587965286
B 4.102090940411817 6.737948150742129 7.78916197333585
B 3.8111594133090825 7.58026759468901 6.325875479576782
B 4.4286783321127 3.288566437470612 4.948483279509068
B 7.970746350855409 3.3003936567290824 5.299536838676481
B 3.5069507801035047 5.123669678754382 3.0465537657808914
B 2.721505427953043 6.4139646901354626 3.726057786131968
B 7.711102540151671 5.687830765862937 3.8703765945746245
B 4.5908608156589 4.511128397768095 6.441854761182149
