34
Energy = -195.49674552 eV
B 10.065208335087313 5.536148760223304 9.740625716237956
B 10.18829240813053 4.124033697366249 9.148736559280833
B 8.894129417723311 6.57997945366306 9.503193675659709
B 9.37397781700894 3.3938118864598414 8.036730516350834
B 6.746792139606338 8.57309777741632 10.140568915033057
B 8.982781114813397 5.124577541291677 8.508582039316558
B 5.691902211461802 7.572514036462883 9.671837661615392
B 6.336536000850135 5.521671633046912 7.753611748128457
B 7.966104469480396 5.12908708441725 7.0632440188376115
B 5.067215521075504 6.374210073792031 8.814398432905396
B 4.640848889942274 5.317312096248968 7.784063894053658
B 5.402895842395969 4.236743367218047 6.842518990285049
B 6.87591815175849 3.93357108177288 6.266561692163857
B 8.448006272228834 3.349951320020647 6.742140515055963
B 7.714015790784422 7.662374879836051 9.239202228646821
B 6.512535981868661 8.67730491789261 8.509945499382727
B 7.793362976451188 6.33757070251348 8.124540035075176
B 4.19656189861255 5.187090766854113 6.133181975362169
B 8.382549749970979 4.306377538804777 5.478978115369485
B 5.553865101373168 4.6811012799049285 5.144379151449276
B 6.47833088150737 9.301490969593166 7.0203776202512955
B 3.1775867582087374 6.1833387185552375 5.434446168203549
B 7.193937264613398 4.775615596715242 4.567195700982228
B 4.752051028529529 6.252249134152875 4.66113765592544
B 7.023975659143002 10.285440848648005 5.936686483699632
B 5.981508447955965 5.4338457073694055 3.770284125407862
B 4.920082734781586 8.018946649667877 4.545483590864288
B 3.1295573619678274 7.218860021070725 4.301335815969024
B 5.986878687521228 9.102185553006029 5.291498674948169
B 5.486281577836602 6.8922277985114855 3.2468293855385104
B 7.014393668400776 10.18170074813748 4.417854399485185
B 3.719204443420508 8.026539905413584 3.1016470810633114
B 5.151206932391402 8.39389594171983 2.6164788362238496
B 6.151319894648957 9.314947943783531 3.4415185127781696
