34
Energy = -194.34304845 Dir = /p/work1/plile1/GA_structures/B/34/all_candidates/50/
B 7.623785917632847 7.342051974060882 6.924481579146457
B 7.195334857369158 6.4772811970617665 5.62577668103525
B 7.50209577453369 4.5766967196937 5.998427494834925
B 7.677731509072346 3.2436066993129673 5.056142842210648
B 8.054031958895953 5.738011277406613 6.963353585279267
B 7.166235605395703 6.524765919578427 8.151618932831198
B 6.228776203566562 5.3889554222184595 4.886827993964677
B 5.508400347043711 5.856911981690172 2.325317496792306
B 5.747272613699043 4.659559614217326 3.375379668932632
B 7.3817390095757975 2.024227468233118 4.123198165706369
B 6.527714525837039 3.2717951785026615 3.593280394085841
B 5.611044963763754 7.066597461500842 1.354155517006325
B 5.668669747694263 4.48647283586413 6.334706902574937
B 6.510514347136215 5.175847665484295 7.547941471897965
B 4.025271607900348 7.069576953530428 2.1340650035925695
B 4.682101614218285 8.22946386006092 1.0001360498387033
B 6.098114698805688 2.066842485687924 5.012845648615407
B 3.260754573797673 8.545487173065785 1.5021781092917703
B 4.841530553674674 3.05257540322965 5.832077081023143
B 5.026751455062827 1.4301421154419227 6.2131180876663485
B 5.081599351534751 0.011975372099986744 6.914192061446543
B 4.731607901659939 4.549552989872263 4.873179267272325
B 2.2883215674831745 7.683671286596284 2.393478360722309
B 2.8960862516125503 6.309185941676524 3.245878740250532
B 4.023080322610254 8.545487173065785 7.13071202199089
B 3.2837027410547353 3.5501425738907453 5.152992783542156
B 3.418918556869689 2.159694912044067 6.118944634208628
B 3.46903648135531 0.41522689989572015 6.464495144502892
B 3.1418734834548157 5.0113498084714845 4.387865482629838
B 1.2601556402197693 6.709645869739336 3.05016999561432
B 1.553166049998402 5.3800188172639976 3.8546479001264102
B 2.117199191411299 1.1420384786175988 6.00274677936759
B 1.7844672168574294 4.039509621221213 4.688960043218543
B 1.874210951198191 2.5866563703115535 5.448398396771411
