34
Energy = -192.04914765 eV
B 0.2358863111449611 6.848709767366998 7.88362272580566
B 9.008127239212318 8.445332289130102 6.142442785475583
B 11.025732900354896 6.999865821915395 8.435862488953315
B 9.685379012495883 9.998181275810264 5.752727665632444
B 3.880963046981379 4.687985377268953 6.643139614828217
B 2.468858724037841 5.5486423839687 6.536016919580506
B 1.5399980008695235 5.678000442837115 7.926465760358472
B 12.317724755739913 4.1716995648938795 5.757788422887956
B 7.66880088463611 8.107549417378943 5.213442551135256
B 8.430340668616767 5.387842217844153 8.033877418023932
B 4.916026928472074 6.776389357415681 4.7419768192756235
B 6.835238957424374 5.037225348400706 7.891984615466894
B 3.380027479355874 7.212340355603052 4.38835439720726
B 9.881703373498254 7.654577889235677 7.397091137743638
B 3.7132110477821887 5.992301986932083 5.486279652227606
B 1.1748194341703169 6.6115526496821 6.5532084929638765
B 8.484171410412241 9.521313202576938 4.920148997047105
B 12.317724755739913 6.912047421355962 9.30716490212202
B 11.470679764286116 3.004613732569655 5.290942099104913
B 5.336396228170342 4.850523158071603 7.47230852236804
B 9.896779199406906 5.957090514117914 8.14001679396455
B 11.288150508781477 8.418331065317563 7.94169897184682
B 7.137746368804784 9.150342151218027 4.024869567049315
B 9.580097461229748 4.448373567858372 7.316724561835418
B 8.001319360626601 3.9826119672320375 7.249912664703051
B 6.190539116203579 7.800501885774043 4.476946741283144
B 2.1667167002268575 6.711574223601367 5.316081318698322
B 10.491579760156293 9.278870748536557 6.888954272165262
B 6.4531726635491795 3.6385465984335355 6.979507342698064
B 4.955733118821846 3.5556069294847106 6.45628996906586
B 0.7701300095050374 5.891255155590404 9.274993318718904
B 10.860625832713827 3.954616893670657 6.441119751602296
B 4.615077170481321 8.033193920067252 3.688639371682701
B 5.774073043536716 9.010647461929743 3.3076561095677337
