34
Energy = -196.47872516 eV
B 6.355480279005054 5.251578022954495 3.286230894542188
B 3.5415434135604453 6.4608791955309 3.8201313508608425
B 3.9040162667315728 3.2237373163920275 3.74527457166928
B 7.449456266711629 6.461366768691063 3.3300965350152714
B 5.155041889445018 4.153852607014434 3.2900962731205925
B 3.683843965673985 4.878251728427208 3.6031025826633813
B 9.072464932534746 6.254231256215862 3.909688336247097
B 8.05322365458741 4.9249797713138985 3.43156781015208
B 2.448024557805161 3.716877834722971 4.29294294940667
B 4.669805245010936 7.405218703600547 4.689657906833336
B 6.147002897236117 6.8450903678373525 4.237159606355458
B 8.835854275899443 4.566233726852198 4.738565155688806
B 2.2430105255633053 5.592330714644351 4.422708591800923
B 1.1357406773503684 4.50324613580256 4.873551354280966
B 9.591931753794455 7.289673096778418 4.989008019382271
B 8.830083740895612 7.389728081821402 6.362491656263255
B 5.145230948707073 3.084494843440405 5.004503061290848
B 8.878901647442916 5.72428905868934 5.774022881261102
B 5.103161140187566 5.502615911112139 4.612812538910745
B 7.751367201573909 6.952634371365893 5.009192785187206
B 1.906223558522185 3.942480884304713 6.067528871078649
B 6.279748859116168 3.0125293447057717 6.101479483754688
B 3.1206164712623314 6.831027794641457 5.360383636669657
B 4.297708576143816 7.628410942152752 6.305138855123257
B 4.689957270542924 3.1383347037371436 6.766733134819179
B 5.376782196569314 4.658901146214805 6.025468475888789
B 7.564964653727877 6.487180864790605 6.743229732057535
B 6.237658085616563 5.649591110156615 7.305415164969095
B 3.216493900781326 3.817904351673859 7.045156425161547
B 6.171106717704835 3.9356829219020963 7.400451079454618
B 3.232138923356011 5.42600261239886 7.692267446608874
B 4.676093768862441 6.339714616003348 7.409205222408917
B 3.1047806044250463 6.873996548542546 7.049004630745732
B 4.622597854408829 4.568989366324719 7.797789701083907
