34
Energy = -192.46772351 eV
B 6.644645350573251 5.499341452343885 9.545665546393975
B 8.646779881579507 3.2351503621709967 8.526393832496984
B 8.403685347715562 2.3851893099002215 7.004616297595233
B 8.869908341996188 10.935313198407828 3.3777323361306917
B 3.5414636656101846 5.718374019207913 8.285645306542934
B 7.3928660103771255 10.468897256715254 2.911047784548474
B 6.201947171916517 4.718258279764325 8.035989150927122
B 7.014626893960244 7.846425721084438 11.011705801156793
B 6.436132467012878 4.922712453733304 3.3914425561037795
B 7.006628395361461 4.0641917651928 4.629600660891074
B 4.8031980340757805 8.769039861645613 2.150407292067621
B 4.323515484185257 7.977795261997472 10.16883157414457
B 4.828506716837238 11.562920511702169 2.39013114262974
B 3.610470134746795 6.95330720877971 9.22149282998577
B 5.84245354216819 10.190375006137593 2.4781393340409936
B 5.597235553103406 8.446474895841162 10.880346129323026
B 4.610589106748023 4.755395538006835 7.7287629437829715
B 5.745788688872077 6.452948279396892 3.7441136961204067
B 7.6687948373045 3.291200001004623 5.8634152052532205
B 4.196366978894704 10.194161181625983 2.09697117550759
B 7.608819887454009 3.907385854433383 7.42125172089844
B 6.780318460624742 4.687816951642471 6.249496527306513
B 7.867111214646586 12.068056099513244 3.238105342358582
B 7.604236175403779 6.434936339877552 10.625631579068429
B 5.829145932437425 6.914205773321932 10.154193922498468
B 5.0785717670406685 5.807767628697629 8.97055584578347
B 9.063231034790943 1.6190953547066445 8.223481257248341
B 5.976823261161183 5.853453179429385 2.1983523471722926
B 8.679625023024558 3.5075413302345417 10.255703756389913
B 9.185769550540911 2.1456799134870437 9.686041868894252
B 6.337763625302907 11.87237049310347 2.8024178603336822
B 5.361377672262392 7.28515525885313 2.313289729952114
B 6.270919299315866 5.598222709673823 4.970611556671297
B 7.9547203308389145 4.894877386249847 10.432451927665001
