34
Energy = -192.63452753 eV
B 10.443701648015491 7.980652429596478 2.972375260853625
B 9.81786141250794 9.3564136430955 3.1608699866124095
B 10.280888037742479 6.787990288707859 4.022099362301131
B 9.481604342378306 8.319064664018233 4.342174216488286
B 10.106555605649183 5.665271864828762 5.157157583359503
B 9.317672090430163 7.120638613777465 5.415298443736355
B 10.039592764484253 4.505374676424239 6.327679288378026
B 9.204289003302936 5.955293335186936 6.510443407265715
B 10.077352488771549 3.450505014938086 7.473947355405842
B 9.092467820687064 4.811569906300959 7.721543559914176
B 9.357165285030687 3.5339956406061437 8.863880968086152
B 8.141977268551083 4.769503117102303 9.147494692506239
B 8.520500021433898 3.5484679057793875 10.246637942417218
B 3.477856611493169 6.460247561056577 3.4534273849463966
B 6.025369094879097 8.62246958662249 5.938246105119181
B 7.328457002435084 4.471389279489186 10.578130237375964
B 6.223367731943778 9.542403855457863 7.344160222694833
B 6.092606315461034 8.346215308892635 8.365618176510988
B 4.6777045555055405 8.888092325897935 7.454899800805318
B 6.697970201185558 5.637321703663504 9.766196993926547
B 5.656483393713668 7.204779362517205 5.247322938538522
B 4.947867013348106 6.758701654519041 3.9061110872221234
B 4.691416796063587 7.407945222562871 8.095559696234298
B 5.030740431185673 9.942984743587493 6.265271476118239
B 5.910978211505396 6.791927379580834 9.01440978580502
B 4.546627230929845 6.546656102014347 6.458943709099493
B 4.143296985399657 8.793228254122061 5.657772846780128
B 4.826260701876053 5.81783873762026 8.105597106927403
B 2.190440839434565 6.176343547589994 4.301132815114893
B 3.553781881228793 7.382095909110073 4.9947654161628465
B 3.8679864915859277 4.9820917140800605 7.119485773647542
B 3.0170654728045676 5.965903233390678 5.871595788708379
B 1.6983030855702503 5.059294522849767 5.295371546152727
B 2.554049493110582 4.437586224657403 6.444636354428968
