34
Energy = -193.4193897 Dir = /p/work1/plile1/GA_structures/B/34/all_candidates/33/
B 5.138646982220783 3.9315603850685097 8.64522594169875
B 3.747140964631583 3.701913489048623 7.671542344847241
B 3.6009870866140563 5.513342525744176 7.364749750860251
B 3.6349747098366585 2.941815460984093 4.6587094809718845
B 7.919700483881003 9.010939856135428 5.225141676447004
B 3.8758878004220016 4.940058394549412 8.747074593921118
B 7.316337968362192 6.158729427321107 4.826053013689073
B 3.72409280726577 6.096935190325948 5.835400049863483
B 2.9084886092937574 6.703360341365523 3.229982484348739
B 4.557179280404023 4.452548634943739 4.98901829796844
B 6.442851474431465 3.244379226563738 7.633233478426577
B 3.3560635423001695 5.478369125407509 4.297359118997377
B 7.486532985008547 4.469228183299148 7.1645906315415395
B 7.786042621146161 9.096213441448528 3.5748406597254774
B 4.937241809790348 2.5373487146337537 7.586300126354099
B 5.8454341650543835 2.3554297113950553 6.310945382059724
B 7.926359951911208 10.390743470714865 6.124146497467338
B 7.02685739355636 11.75032710058943 8.251701037071541
B 7.244287535225504 10.301970168108841 7.746764364941072
B 7.878749647376888 7.311561843347336 7.588091978961507
B 7.669793317317389 7.536464709198116 5.946030404197179
B 6.171096632535567 4.910001704760635 4.987090756460227
B 6.932250138771661 3.4281809938814205 5.8059411155888645
B 3.2929639620249507 7.118833962354478 4.698838734701
B 6.757002696428227 4.513791970645833 8.664785885927943
B 7.940092276628766 6.009739060067987 6.528882151787757
B 7.471743308705492 5.861643120609453 8.213388623535606
B 7.6789633543427716 8.858271451065152 7.034861839224295
B 7.697872093433372 11.744088621217461 6.876925528067207
B 7.811408813470998 4.685099287196081 5.4443333441238595
B 4.170964503481237 2.876264088868125 6.123782026188468
B 3.645938464450104 3.9862009028723016 3.4513613476961424
B 3.1649332540841955 5.255629969403137 2.637362355723943
B 7.61530709198299 7.681249406571213 4.236041760092824
