34
Energy = -198.78717274 eV
B 4.146397991052567 4.496730286593019 2.502517180513339
B 5.523894164800196 5.393557637164152 3.0257125177260034
B 7.138941786136141 5.805256587219795 2.8591555132579884
B 4.250291580438838 3.227552682053003 3.489939665133307
B 6.249720474058208 7.077358356887855 3.1719020739833974
B 4.4294829671996085 6.831159004754442 3.717738835870696
B 2.925483083991069 4.413800315387478 3.7736651410878097
B 7.073194645864282 4.583922920472291 3.9038336796679687
B 3.2172869157653223 5.827005862296644 2.9122515285441897
B 5.385874564253663 8.261835117522455 3.817452181271241
B 7.235182646812604 6.13905671543906 4.539345091001267
B 4.438951104260217 5.090910787073089 4.333677618856857
B 6.690097477438836 3.1227489096389416 4.557930997690247
B 4.677472566460859 8.126397877524024 5.2170256423067745
B 6.452776744992462 7.6377143896170265 4.997268378104123
B 2.8667934347184514 6.091907920587314 4.481894169399155
B 3.6208773333764643 3.6387267331405027 5.123342277308165
B 4.235227712602188 7.90717764286439 6.748524844828072
B 5.778486471513843 4.900812444780538 7.096093709359614
B 5.156480588669557 2.3836623899961666 4.588947141481282
B 4.4218948286781234 2.317212997644882 6.0638929293478565
B 6.081581796258949 2.7467927009878426 5.961996028078038
B 3.4727025120799393 6.701921241535792 5.888105259104721
B 3.60927896482262 3.50241683900665 6.766143043080065
B 7.312201170186439 6.8631142918104455 6.097123008641265
B 6.981866577252148 4.400682098707587 5.662487143752031
B 5.892441318111365 7.637601892818479 6.682825720693522
B 4.675078015685093 6.359159544808383 7.0763670025143925
B 5.168568063636533 3.136648688164114 7.4283187552691485
B 7.53911197689793 5.240409578278892 6.958223933433905
B 6.636235444314693 6.511010474073494 7.668482296102264
B 4.207229076612404 5.00229565437531 6.216854421921031
B 6.034693747283935 3.861134487221522 8.544031796122614
B 6.8855963023029325 5.173698978082763 8.538324523077046
