34
Energy = -197.7585865 eV
B 5.604066862507439 5.384284752511406 2.4436136407948017
B 4.364828701466855 6.585223899969773 2.6593328076297396
B 2.826622764607901 7.346010953147384 2.312645783571824
B 3.585356620466277 4.891524503335069 3.362815567039664
B 6.278188847211478 3.9430466919681972 2.6622703372125076
B 5.991449001505147 6.797893055568579 3.270431696008227
B 2.6719959617723936 5.769606432534356 2.443093835773087
B 6.734305866949121 3.5661360822448347 4.149098636538765
B 6.859115839389624 5.342390161363087 3.5945541405483796
B 5.067413889601648 4.275317583206125 3.8991289349923455
B 3.771369634232752 8.14449961078923 3.2610736328421415
B 7.381636442964702 5.48358286399103 5.141457383639088
B 7.206904646839602 3.4446892189497866 5.729981269152346
B 2.748142766271069 6.605689128641332 3.924213960581893
B 5.72306281047881 4.631103600730857 5.532264519687993
B 4.072768259481999 5.014163192566068 5.104990571226578
B 5.068827554188875 7.756206547109522 4.180359042313818
B 4.779702802317578 7.009358423507603 5.7771563874467144
B 7.983657799638016 6.411669550772111 6.387303513067367
B 3.1421355697955784 6.422089603599129 5.492828276525393
B 3.2281924825711514 5.144427303305636 6.593087502123983
B 3.6327039852181153 6.681578152313388 7.106213339757485
B 7.763346891958507 3.2427224529528598 7.240237691520931
B 6.255785442131241 6.2308075201957935 6.213888819020654
B 6.159282879978768 3.923291193928307 7.070953676857339
B 8.218780476965197 4.715152505788963 6.64216026588348
B 6.819728867444231 6.3745003183876054 7.944510184076694
B 5.21821310983762 6.585243543824758 7.579202922924599
B 8.628550630795019 6.107397559830989 7.781419741439396
B 7.244977928597608 4.20690593840139 8.40948988560091
B 4.012071895816456 5.328235688455202 7.974460875171352
B 8.019266158426184 5.774240640188035 9.209246918829193
B 5.479613142642354 4.763109412576898 8.48250663764152
B 6.626533420955915 5.266501868369265 9.592607557584506
