36
Energy = -209.80531352 eV
B 6.211718829143043 5.116758947146348 1.487556093344229
B 7.483193652483918 6.1087195092356765 1.2408871290199603
B 7.759813674031647 4.755337990469437 2.0471807932132777
B 4.735230267246535 4.868922029456777 2.027776738768998
B 6.6683179221792654 3.7682132771755743 2.6323370532581896
B 7.776101384569449 6.518031072894352 2.685141022088394
B 3.550248469752518 4.419441743911908 2.9140253043747077
B 3.6082340769944716 4.265888215046874 4.488285262854788
B 5.939382635539156 3.0420649976424694 3.885944156608807
B 4.590667944974445 5.4724417890724695 3.677795760397376
B 7.401461163857319 6.753789282642063 4.279047916675224
B 5.885265203972517 5.98933755672694 4.705384333962589
B 5.1368945577083025 2.7704881629828426 5.209828754250348
B 7.564555447480089 5.3204065250683055 5.166457368239013
B 6.329637448470504 7.730221979025982 5.271081945660173
B 5.572681197202722 6.565905948967695 6.396070711971887
B 5.7941836045810255 3.7908397071505058 8.28478290421785
B 4.266324005932872 5.79228839278409 5.336534250320368
B 3.438996609787766 7.085709009304625 6.065286888250062
B 4.257231101862024 4.186839063047442 7.620202033777693
B 8.092238368086091 4.079599074851508 6.048410734330244
B 4.968136499450627 8.404223468673562 5.82146523988694
B 3.9868597736580718 3.9282606294488467 5.989580420836968
B 5.333500187357792 3.203808687626032 6.738119657150052
B 3.545385702660479 8.837046985240615 6.273248508877638
B 2.5592187272192226 8.08754871252228 7.21947739004151
B 6.302070863658897 5.566629981671832 7.862262652649068
B 6.628177620680585 3.6560668494026745 5.426605205658983
B 7.428494478691884 6.830159726568208 6.053971229508665
B 4.98118354512204 6.613831118828866 8.197789933460475
B 7.742777446729042 5.518706173505883 6.974977838318462
B 7.055919481578933 3.9506071457791974 7.267822120431418
B 3.5340110995324507 5.475853284431734 8.502306279611087
B 5.019240469558415 5.059190295678648 8.954350208197416
B 4.31484983970531 7.9774315176040735 7.586530691613004
B 2.790987909682347 6.742582359554905 7.914666679315053
