36
Energy = -211.17893215 eV
B 4.758701 4.758896 9.912784
B 4.867921 9.11974 7.974484
B 5.001486000000001 4.861292 8.292434
B 5.078188 2.024086 3.315306
B 4.979192 7.881518 6.839473000000001
B 4.9307680000000005 9.555422 3.3994700000000004
B 5.001592 6.349526 7.472467
B 5.082432 3.4670110000000003 7.427186
B 4.862852 0.5290130000000002 4.113437
B 4.949002 9.748108 4.956392
B 4.862852 0.5290130000000002 5.799347
B 4.979192 7.881518 3.073311
B 4.9307680000000005 9.555422 6.513313999999999
B 4.82443 6.205521000000001 9.318336
B 4.842615 1.9386410000000003 8.275725999999999
B 4.849505 3.3711770000000003 9.129202000000001
B 5.078188 2.024086 6.597478
B 4.773026 0.6258920000000003 2.5371930000000003
B 4.82443 6.205521000000001 0.594448
B 5.096998 2.0523540000000002 4.956392
B 4.871762 7.677893999999999 8.58402
B 5.001486000000001 4.861292 1.62035
B 5.001592 6.349526 2.4403170000000003
B 5.082432 3.4670110000000003 2.4855980000000004
B 4.773026 0.6258920000000003 7.375591000000001
B 4.842615 1.9386410000000003 1.6370580000000003
B 4.871762 7.677893999999999 1.3287639999999998
B 4.758701 4.758896 0.0
B 4.867921 9.11974 1.9383000000000001
B 4.849505 3.3711770000000003 0.7835819999999999
B 5.143483 4.966969000000001 6.579246
B 5.247977000000001 3.5154040000000006 5.769534
B 5.143483 4.966969000000001 3.333538
B 5.076128 6.4668220000000005 5.797172
B 5.076128 6.4668220000000005 4.1156120000000005
B 5.247977000000001 3.5154040000000006 4.14325
