36
Energy = -217.00049488 eV
B 9.619627558197513 10.228241547925537 11.220009633352921
B 9.619627558197513 11.401260452074462 11.220009633352921
B 10.56991208361601 12.232603272690948 11.220018884407848
B 12.009874441802486 11.401260452074462 11.220009633352921
B 12.009874441802486 10.228241547925537 11.220009633352921
B 10.56991208361601 9.39689872730905 11.220018884407848
B 10.56991208361601 13.895338399581984 10.746507088677063
B 13.449794434727172 12.232624891865672 10.746479626199827
B 13.449794434727172 9.396877108134326 10.746479626199827
B 10.56991208361601 7.734163600418015 10.746507088677063
B 8.17970756527283 9.396877108134326 10.746479626199827
B 8.17970756527283 12.232624891865672 10.746479626199827
B 9.60987839590069 8.548624666828468 10.896864743765354
B 8.160180021031017 10.56991208361601 10.896853332386556
B 9.60987839590069 13.080877333171532 10.896864743765354
B 12.019623604099309 13.080877333171532 10.896864743765354
B 13.469321978968983 10.56991208361601 10.896853332386556
B 12.019623604099309 8.548624666828468 10.896864743765354
B 6.89649890115601 8.656048105369774 10.532188089100861
B 10.56991208361601 6.25245785991169 10.53219424204332
B 6.89649890115601 12.973453894630225 10.532188089100861
B 10.56991208361601 15.37704414008831 10.53219424204332
B 14.733003098843989 12.973453894630225 10.532188089100861
B 14.733003098843989 8.656048105369774 10.532188089100861
B 8.192248480174603 13.866332568490392 10.74647962619983
B 9.638508620206256 14.701327300230076 10.746479157912336
B 6.771147963408314 11.40492287139191 10.7464713497124
B 6.771147963408314 10.22457912860809 10.7464713497124
B 8.192248480174603 7.763169431509608 10.74647962619983
B 9.638508620206256 6.928174699769923 10.746479157912336
B 11.990993379793741 6.928174699769923 10.746479157912336
B 13.437253519825397 7.763169431509608 10.74647962619983
B 14.858354036591685 10.22457912860809 10.7464713497124
B 14.858354036591685 11.40492287139191 10.7464713497124
B 13.437253519825397 13.866332568490392 10.74647962619983
B 11.990993379793741 14.701327300230076 10.746479157912336
