36
Energy = -207.85803945 eV
B 7.623406764171442 5.823072568605021 1.905290429782649
B 2.990837372162971 5.395609211056202 2.785669299306541
B 8.241601355606294 5.922627298334147 3.538105062186738
B 8.466105868603407 4.62708783850799 2.471096394982494
B 6.78142451319809 6.841876324314561 2.6838035773768003
B 6.800420595160853 4.402268248856397 2.748590549020666
B 3.886426552383747 4.028996984658983 2.9596553444835823
B 3.9235186643636797 6.794876108018475 3.517848471585096
B 5.453700838049687 3.635523043464779 3.395426708766442
B 5.547918689589481 6.8706371675733315 3.7373634596111303
B 2.2558096308408158 6.481328445496411 3.6896788665800253
B 8.446152734715145 4.194743042767307 3.9656758238001766
B 5.22183101556844 5.104854179332799 4.205609363646728
B 2.685867168980357 3.8587976289461188 4.069142999476768
B 1.8761577713278184 6.336130353852844 5.469386385974248
B 3.0414270701297768 7.320449312975457 4.843496077912087
B 2.1747693372849666 3.89653296704563 5.586339770910712
B 5.42972525876265 3.2423101918087984 5.094745213852865
B 7.950569602884534 5.7979134483308705 5.16629481701728
B 3.3866346284322546 5.435758763862146 4.736576319059264
B 8.438458218458871 3.6653324510424645 5.450195100310065
B 4.80281516668099 5.083502620881838 5.823560640991355
B 6.231195928212686 6.147237800819982 5.239762675977522
B 6.804303501364658 3.222606690648825 6.092655706364721
B 4.056247579319974 3.4354877650641 6.069322907987454
B 0.9627092674033878 5.317853542080938 6.332121134126132
B 1.3329109036448081 4.0777323599572535 7.155585787439301
B 3.53027048419494 6.6332952425497735 6.315816357373785
B 8.357225588490252 5.021119116634529 6.5577764389402855
B 6.9884055198401605 4.469969323041845 7.509335615476994
B 5.628254578355526 5.386957380984203 7.674457672358926
B 8.110676212007757 3.4699178227513667 6.990027181942742
B 2.551547841156375 5.361243115591293 7.120791360552543
B 5.210544005568211 6.639203682163343 6.665451829520816
B 4.144207017204139 4.667589451511921 7.4326213066671185
B 2.852330513452965 3.575966264039951 7.187131106209788
