36
Energy = -209.39231641 eV
B 5.44777317721504 5.766067772558505 3.105046282503503
B 4.623141245513423 7.157620402736079 3.4838218850423104
B 6.723704466721781 5.121080561144657 3.8024638830509483
B 5.1394129675112525 4.302395098954526 3.8912351298775305
B 3.94368402922494 5.528300482620939 3.821674764504188
B 3.0166762189697383 6.905640374087348 3.9728162998611563
B 6.362485692904381 6.90091341682797 3.8429133534089996
B 10.090779675548061 6.388047564494961 4.466249845841581
B 2.7687243919790974 5.494905708825578 5.00465848849471
B 2.659849602646881 7.265343598623048 5.531325643021269
B 7.888218558242805 4.414710987238609 4.688264013430389
B 4.064807118390464 7.900867936775622 4.808581953250833
B 3.774884579858972 5.839740222656557 6.519933295646313
B 9.420160858510537 4.622542493322125 4.92685736932031
B 9.086369429931 7.603535177365621 4.620630999936563
B 7.491458619187361 7.531222888973013 4.897912156592249
B 4.979633697936764 2.921925892191212 4.846631312150831
B 8.527548981010758 6.106300095953848 5.635102618238814
B 6.398366613731999 3.7518751750267665 5.018139209357696
B 2.310309245741483 4.449289109698266 6.166067049758278
B 10.406927380789249 5.485695605714698 5.833549302010824
B 5.214450244338388 3.773303617714746 6.2615793594051485
B 10.194371270654639 7.1560426600719165 5.93191942820304
B 3.7824619248458506 2.7983466252929783 5.926501753751238
B 2.565587891622374 2.8793018732258138 6.9229231262606765
B 2.1350863419771184 5.610906537745904 7.657206260116626
B 4.033117121294859 7.652594649439425 6.492154131282296
B 9.639759251665389 6.292066662688842 7.172368631040097
B 6.544849708463436 5.873751919402652 7.600402209487366
B 2.5976502045896037 7.06911155202711 7.163119547942926
B 6.9847160096186895 6.979051102998688 6.415570628137866
B 5.124886574431159 5.004891260398041 7.409613484559101
B 3.843312447877365 3.9613178015877204 7.365676577575981
B 5.338802033185441 6.611945796455609 6.757828837431828
B 8.096800698384468 6.139538224430182 7.486682137343581
B 2.0813832340164735 4.041960659260043 7.854730540693258
