37
Energy = -213.80997955 eV
B 10.855963716993314 9.884719010258511 7.562055110154693
B 6.563279212742553 8.205191575894963 9.355508199540656
B 9.1782404287548 7.968873772082615 7.333670792484838
B 7.642099386270153 10.346459717351419 6.60606132174822
B 8.609340708027702 6.114857432570264 7.842173277402002
B 10.91033321845893 8.115827029306933 7.620325186043934
B 9.688636515844482 8.782377318730974 8.730863825549978
B 9.126108915659229 6.4767806722956704 6.232062587487796
B 6.697621755018137 6.871055324870515 10.566675973175112
B 9.300788251618451 10.578511281221605 7.092960183871183
B 9.059133113181852 8.689533404351703 11.268347676380063
B 7.166718112158229 9.870225149166464 9.65897791935974
B 7.452066242792367 7.272375913849062 5.771364893962583
B 5.542775266377269 8.045362340614766 7.767034795589006
B 10.268438362312322 6.535086172329297 7.598894349804391
B 6.896591339005867 5.54234001661538 8.067295011431238
B 7.669941860250998 6.869415152478427 9.095175411149201
B 9.495478166221888 7.20008517361821 10.591246508397148
B 7.534590207978995 8.925998703290674 5.636299606374202
B 6.2334455955004495 6.6972335083913235 6.915746772136497
B 6.396643468788063 11.067126911050273 8.7974606500526
B 9.835772815288026 10.636589655122048 8.720166490256203
B 11.276216472207823 9.248131557101932 9.026386625111442
B 10.380012719760463 8.761593962898026 10.345941815561252
B 8.037450811028302 7.454739772967985 11.423588959815962
B 6.580475252498115 9.440231593449859 8.126637547476381
B 6.824826073099155 5.443814500155722 9.738039857686829
B 10.111282640155293 9.1036392266714 6.261129561982738
B 6.116930199321357 8.181400873621945 6.1730107511861085
B 9.448191270140443 6.25221626037018 9.244417695128933
B 5.999518204749199 10.899479836692498 7.268908724572247
B 7.573894269988745 5.729520891623478 6.57805800103157
B 5.227431424433756 9.494581323401729 6.9923269939440855
B 8.890619042217418 9.957657931829994 9.951407343426625
B 8.29231106210362 9.50492452076475 8.156720189178738
B 8.255461144652731 5.972321664921876 10.559107944195302
B 9.04650750487659 8.066968824392161 5.5479051773714705
