37
Energy = -214.29459724 eV
B 4.148702727254343 1.8771180574716293 4.897591918363535
B 6.490670256653943 7.238862607053187 4.289543527855516
B 2.506145192830169 1.6864432468200323 5.456339197901695
B 2.4657306594284862 1.9078463952314764 3.866369733083548
B 3.555757230532263 2.651889885385165 6.405865806151266
B 5.326846895119994 0.7448648989250638 4.624086220548674
B 1.1244985894107375 3.3257863483736676 3.5141657365103987
B 1.3824092699444201 3.096368262740957 5.072400400219612
B 1.8722888778864801 2.642220298022715 6.599289858754754
B 6.613716559506752 1.3358486218789143 3.58677219126921
B 5.0172527713732205 3.0987770516292548 6.018614925458935
B 7.48976278167506 0.1259855974976192 3.2076318951183773
B 1.8909177574924185 4.747734587357154 4.363356523767241
B 2.3013825833131416 4.158124817185843 6.471416825345989
B 2.5341363076239056 2.5939327148962543 2.4700153650702776
B 4.013010067651241 3.0015655111323714 3.3827127813081375
B 2.8874790963086494 5.607040013283442 6.013231127555756
B 1.5948819951025144 4.161480620223445 2.2116414907086273
B 4.286596061235396 4.573024589166388 5.235599545643617
B 5.59480827077949 2.622795120852199 4.08573746525911
B 3.578344239184295 4.704329130059938 3.6399791222678592
B 6.412948934543893 4.311455520188037 3.7111032405584417
B 5.137849670071605 4.291274804666152 0.8858219345730964
B 1.9698448427775932 6.391880874382714 4.657464571281983
B 3.03420121588591 7.21209790190078 5.592128895919586
B 2.4116903762070554 5.864235412439501 3.0889683277845497
B 3.8223456285563757 5.1277679362347595 0.6992616278720747
B 5.923632600433787 5.806189842399104 3.1003694845406278
B 4.391603781179518 6.305593431871845 5.300983570961902
B 2.3816759439621986 5.340556137129181 1.436456425206558
B 6.0842729017215555 3.9809392400329453 5.279393919124296
B 6.269548885380391 4.594500837870936 2.0368324971642084
B 5.15030499941748 5.7817709600342075 1.7099893483597743
B 3.3593124540968797 7.238862607053187 4.0190458684399175
B 5.824040434633163 5.571874195786008 4.764024856140737
B 4.084346666359185 6.38540985197189 2.8541048295131946
B 3.5042636263030422 3.8148433812599847 1.8889100962323848
