37
Energy = -213.591706 eV
B 1.9201694442216373 6.817165926805166 8.241746391391965
B 10.518305970187493 8.602733692841078 3.9040734062206304
B 10.43373690490391 6.8573831690921265 7.738023560986855
B 6.26072506198598 4.622561259266298 9.08274872458422
B 4.625048388832004 6.031664140107576 7.358517168771339
B 6.4298240715179285 8.449264066664743 4.305031996417165
B 9.031943312196148 7.215241739949744 6.7584680098830265
B 3.9746695960513065 4.0737246191464 8.257523068815429
B 10.368398247356842 5.773573886380701 8.911999074767031
B 7.7924968734894176 4.015876702200753 9.648330944938948
B 6.032939814958896 7.14677193652457 6.96115473970902
B 5.218181191022159 8.644021444494816 3.1736847025528805
B 3.779931791380975 6.570860544435773 4.32788675751091
B 4.344910796694101 7.308205242559899 6.143674104107059
B 6.875923970245408 6.6848730952856 3.42673986777527
B 7.573403763912192 6.546771740018898 7.314425025418938
B 3.7494375063679346 4.536537257903078 6.766239574119833
B 6.426634931351421 3.2333332368353234 9.944663960038893
B 1.6477082790946167 5.579144138301002 9.133508373282648
B 4.622018902301265 8.150516070583052 4.7290436141880186
B 3.62314770006868 5.500718781622201 5.496523823685929
B 9.545978316844348 7.593788934375106 3.1958917445354165
B 10.517461950175413 7.998345227329494 6.590896888164051
B 8.362454412796614 6.638403785465959 2.935614242685843
B 5.73521300242383 8.315910250974424 5.9094305066855
B 6.195522772594089 6.008687896092269 8.099614962036409
B 5.037727281287982 3.4676956719222893 9.307394500848638
B 3.1885954883808543 7.065316174610049 7.345586031560195
B 7.662012873474993 5.367123552065931 8.57942695964544
B 9.172853106375593 4.809128574984573 9.269051375039352
B 9.065934093219427 5.8911200858975405 7.8639223999275
B 10.935999727279206 8.84857670984018 5.348252615052153
B 9.429146254150302 8.011829069707936 5.20143120082412
B 8.04031591849875 7.815913665051353 4.133401774262174
B 3.8784521203215436 7.799549574755346 3.2650826435288085
B 3.1321981785348423 5.605637946992295 8.287951578428494
B 5.2977698962248665 6.8492220996389195 3.4902355983322213
