37
Energy = -217.47832956 eV
B 4.381522979575639 4.308989338937364 6.362522685642296
B 2.400204636931895 2.3838959053025577 6.4668693278206675
B 2.792894079882356 4.030502246973986 6.243350259732011
B 5.458535810894424 3.0477197536527187 6.956299273704947
B 1.191896002008463 1.7437922094829523 5.530094243510093
B 4.995693649556839 5.48613525503109 5.224597502529758
B 1.4830458124127062 3.411946902074591 5.4864293614897415
B 0.9570282363638426 0.8407879152721834 4.26554532745683
B 4.78159176235174 5.0679492380879125 3.5492320691837573
B 5.185071329320578 2.3814630458605643 5.486501107808853
B 6.048684154974642 4.055075867825807 5.831056130720511
B 2.042509052487847 5.11239873517071 4.804871779129557
B 3.9746346840944304 2.5347090246291883 6.928834458701815
B 3.5843080248162864 6.188096513623519 4.656356411978911
B 1.3278080707073994 2.484170565140053 3.9890919016513395
B 3.5963807763795645 4.358153821846382 4.688221729237334
B 4.664547757727677 4.528499341102516 1.9891866303686327
B 6.323687099884419 4.7804958357578204 4.377290373588266
B 4.295305193508474 1.7367193028805747 2.479608640741825
B 1.5225032911564655 1.0983093561714887 2.856643784164975
B 5.058458225679622 2.0637040397561663 3.9030021338845295
B 5.974367057030183 2.3665419293723873 2.5171339280218348
B 2.024096989098915 6.7029826461074675 4.2841156725347815
B 1.78190490174112 5.591466874445952 3.0407622339241187
B 2.179546709084447 3.7971449190553996 3.31819565517905
B 3.052015113296551 6.900966089735067 3.1015911435541708
B 5.367220822774823 2.155442576151866 1.0170481348534057
B 2.6385074282650565 1.3424966080077745 1.7177561609675793
B 3.752602685473615 1.9211285358888268 0.8211393964719923
B 2.1225894344926055 4.767562155285527 1.7243883562782083
B 3.1605735574838865 3.3759614111154095 1.834335669153124
B 4.544197888256665 3.592458011420693 0.4385478166756096
B 6.332156543302974 4.1613813430574895 2.841752988802003
B 6.066990590034867 3.6212851288882977 1.3435397245029506
B 3.4822062880242655 4.812132012819242 0.6888875027008402
B 3.62207219725697 5.955426412712258 1.9604367575520512
B 3.9322355928784667 3.391703560567812 3.3743581549932293
