38
Energy = -224.5423259 eV
B 2.7895 0.6442000000000002 4.3686
B 2.0373 5.682799999999999 2.8156
B 4.9155999999999995 4.6720999999999995 1.5568000000000002
B 3.2094 2.8016 0.36870000000000025
B 4.2903 0.4832000000000003 1.8355000000000001
B 4.2863 0.6408000000000003 3.508
B 2.1129000000000002 5.3664 1.197
B 3.5323999999999995 5.890899999999999 3.6881999999999997
B 1.7812000000000001 4.3671 5.2549
B 4.6080000000000005 4.1361 5.7145
B 5.5832 3.0975 1.7933999999999999
B 1.7156 2.1875 0.6090000000000003
B 2.0333 5.8404 4.4881
B 1.4131 0.6336000000000002 3.4899999999999998
B 5.567099999999999 3.4759999999999995 4.5682
B 5.3272 1.7818 4.2328
B 4.9105 5.6899999999999995 2.8336
B 0.7465000000000004 2.8476000000000004 1.7553999999999998
B 4.4957 2.5147 5.5682
B 6.3236 2.7123 3.2513
B 3.3737000000000004 5.0752 5.201499999999999
B 0.9964000000000001 4.5418 2.0907999999999998
B 0.7404 3.2260999999999997 4.5402
B 3.5340999999999996 5.679399999999999 1.955
B 3.51030315925982E-16 3.6113 3.0723
B 5.4366 1.5032999999999999 2.5061
B 1.4079 1.6514000000000002 4.7669
B 0.5977000000000003 2.0320000000000005 3.2676
B 4.7015 3.4791000000000003 0.45080000000000037
B 2.9433000000000002 1.2484000000000002 1.1231999999999998
B 1.6220999999999999 2.8444999999999996 5.872799999999999
B 2.7912 0.4327000000000005 2.6353
B 0.8870000000000003 4.8203 3.8175
B 4.5424 1.9565000000000001 1.0687
B 1.8279 3.8089 0.7669000000000002
B 3.1142 3.522 5.9549
B 5.725899999999999 4.2916 3.056
B 4.210699999999999 0.9572000000000002 5.1266
