38
Energy = -224.5315678 eV
B 4.55488 7.459542000000001 6.647042999999999
B 5.049734000000001 7.424625 8.251554
B 5.200978 6.028715 9.112701
B 4.716026 4.576459 8.254346
B 4.164059 6.0012550000000005 5.766672000000001
B 4.272588000000001 3.0998350000000006 5.775107
B 5.292593999999999 3.1800300000000004 9.042037
B 4.8679310000000005 8.859644 5.7798050000000005
B 4.6297440000000005 3.1523160000000003 7.411391
B 5.24418 8.831724 7.448544
B 5.4503 4.605146 9.72865
B 5.342504000000001 1.7336930000000004 8.224715999999999
B 4.811158000000001 1.7008400000000004 6.605906
B 5.392988 0.2951810000000008 5.774522999999999
B 4.272588000000001 3.0998350000000006 4.128451
B 4.6297440000000005 3.1523160000000003 2.4921670000000002
B 4.811158000000001 1.7008400000000004 3.2976520000000007
B 5.392988 0.2951810000000008 4.129035
B 5.606636 0.4585190000000001 2.570446
B 5.342504000000001 1.7336930000000004 1.678842
B 5.292593999999999 3.1800300000000004 0.8615209999999999
B 4.716026 4.576459 1.6492120000000006
B 5.4503 4.605146 0.1749080000000008
B 5.049734000000001 7.424625 1.6520040000000005
B 5.200978 6.028715 0.790857
B 4.55488 7.459542000000001 3.2565150000000003
B 5.24418 8.831724 2.4550140000000003
B 4.8679310000000005 8.859644 4.123753
B 4.531293 6.0471449999999995 2.5050790000000007
B 4.531293 6.0471449999999995 7.398478999999999
B 4.699933 1.687488 4.951779
B 4.164059 6.0012550000000005 4.136886
B 5.606636 0.4585190000000001 7.333112
B 5.618473 0.20778499999999908 6.562052
B 5.519498 0.29518099999999914 4.951779
B 5.618473 0.20778499999999908 3.3415060000000003
B 4.228017 4.574675 6.59716
B 4.228017 4.574675 3.306398
