38
Energy = -208.77442114 eV
B 7.893976100079798 9.119817083856603 8.989502700138816
B 4.145913760711395 6.775002674514854 3.951857799044837
B 8.89476072912184 8.869278736148301 10.19030003765265
B 4.927485442808422 4.105802098978312 5.222680559965094
B 3.5051235979143285 5.740992427576345 2.6247354290173557
B 6.234239965134907 5.3324231612519775 8.90355815820917
B 10.656518008129243 4.239954332634027 3.9039417114963424
B 3.789748816387034 3.3963801109970277 4.167771135016385
B 9.63439741208302 7.0563733886616085 2.821271132763719
B 5.038824372199371 9.403333093967273 5.776304303386225
B 10.277868992634533 5.940100165991291 3.801840795206877
B 6.232957205578539 3.754362675627928 8.082443874432183
B 7.524505564683452 4.350055827636608 8.730156479224371
B 3.8263243384770718 7.229694341920969 2.3170589595771967
B 10.164034812327515 7.674049648923069 4.35477822579115
B 4.285939943133359 5.021056014597537 4.0426891751163305
B 4.529263662688865 8.038857390653392 4.90388641831197
B 7.616627578585242 5.66416954054939 9.760245876563834
B 11.021541614152468 5.085446083447306 5.154591280266056
B 5.339022611375572 3.3319163538063328 6.612767230690813
B 5.264319154374322 2.4874037337291646 8.075265410854463
B 7.184936020601566 9.422677653853265 7.638222418548647
B 4.269592204643826 8.406901787036318 3.249382839775206
B 9.461964590980232 8.570974809603973 3.14399763480218
B 4.495146899615769 1.8690041638178871 6.885521930491183
B 4.472459624564309 9.273230574122179 8.541012766414815
B 4.263406591257331 2.5529239593405113 5.507420583793623
B 10.794107955162666 6.623623405016051 5.337510517191737
B 8.822039107368957 6.1763409614947715 10.720069983410204
B 3.2302009872974953 4.216275098810771 2.9773201716610704
B 5.571029703255369 9.52943552043483 7.3066641739745855
B 5.216497909234026 8.025398300706428 9.79656062234274
B 6.097152916142906 9.32495616185059 8.8657834358448
B 9.335155531238591 7.602889425858997 10.9460307204776
B 6.311308267018533 6.808645295153554 9.513602348435667
B 4.004872562802933 8.992752588297721 9.998515446326925
B 7.995958341641748 7.423293797240249 9.883389677614456
B 4.66822356561837 9.561654072917653 4.298794497192876
