39
Energy = -247.39231134 eV
B 6.079473999999999 1.9403329999999996 3.110333
B 3.867324 4.6296859999999995 5.494418
B 5.369212 1.7497909999999999 4.5999099999999995
B 0.3710819999999999 3.7367269999999997 2.264824
B 1.2262559999999998 3.3187459999999995 0.703799
B 5.359778999999999 4.663805 1.400204
B 4.546447 1.1881279999999999 3.110333
B 2.9151399999999996 1.4472039999999997 6.011793999999999
B 3.7437079999999994 1.105881 4.5869029999999995
B 3.077747 6.2002939999999995 3.110333
B 2.6150919999999998 5.517109 4.50322
B 0.3710819999999999 3.7367269999999997 3.9558419999999996
B 1.1282769999999998 4.854309999999999 1.3812859999999998
B 5.369212 1.7497909999999999 1.6207559999999999
B 2.306612 4.55467 0.3695410000000002
B 1.1282769999999998 4.854309999999999 4.839379999999999
B 5.801938999999999 3.357615 3.9655149999999995
B 5.359778999999999 4.663805 4.820462
B 4.278900999999999 5.568782 4.005828999999999
B 5.801938999999999 3.357615 2.255151
B 4.278900999999999 5.568782 2.214837
B 2.306612 4.55467 5.851124999999999
B 1.2262559999999998 3.3187459999999995 5.5168669999999995
B 2.6150919999999998 5.517109 1.7174459999999998
B 3.867324 4.6296859999999995 0.7262480000000002
B 3.7437079999999994 1.105881 1.6337629999999999
B 1.3449799999999998 1.715921 5.909672999999999
B 4.945698999999999 3.2548129999999995 5.502985
B 4.945698999999999 3.2548129999999995 0.7176809999999999
B 4.498851 1.7471019999999997 5.994427
B 1.3449799999999998 1.715921 0.31099300000000013
B 4.498851 1.7471019999999997 0.22623899999999986
B 2.9151399999999996 1.4472039999999997 0.20887200000000022
B 0.5703899999999998 2.056997 4.534135999999999
B 2.0700529999999997 1.096272 4.5621339999999995
B 2.913922 0.781957 3.110333
B -0.1411919999999999 2.4414119999999997 3.110333
B 2.0700529999999997 1.096272 1.658532
B 0.5703899999999998 2.056997 1.68653
