40
Energy = -119.3125093 eV
B 0.45244599999999896 2.896388999999999 5.353014999999999
B 0.3519309999999996 4.506797 5.353014999999999
B 0.3520059999999992 6.198100999999999 5.353014999999999
B 0.4523879999999989 7.808536999999999 5.353014999999999
B 1.7799429999999992 1.998229999999999 5.353014999999999
B 1.880572999999999 3.6986069999999995 5.353014999999999
B 1.8860609999999993 5.3523559999999994 5.353014999999999
B 1.880572999999999 7.006141999999999 5.353014999999999
B 1.7797969999999994 8.706624 5.353014999999999
B 3.255571999999999 9.579386 5.353014999999999
B 3.315072999999999 7.826029999999999 5.353014999999999
B 3.3545199999999995 6.158894 5.353014999999999
B 3.354708999999999 4.545659999999999 5.353014999999999
B 3.315242999999999 2.8791589999999996 5.353014999999999
B 3.2562299999999986 1.125989999999999 5.353014999999999
B 4.678398 0.3871039999999989 5.353014999999999
B 4.717332999999999 2.027831999999999 5.353014999999999
B 4.787887999999999 3.7298709999999997 5.353014999999999
B 4.787715999999999 6.975931 5.353014999999999
B 4.716775999999999 8.678052 5.353014999999999
B 4.677254 10.318756999999998 5.353014999999999
B 6.127267999999999 1.0429159999999993 5.353014999999999
B 6.19762 2.8538759999999987 5.353014999999999
B 6.242767 4.541079999999999 5.353014999999999
B 6.242266 6.166023999999999 5.353014999999999
B 6.197322 7.852656999999999 5.353014999999999
B 6.126151999999999 9.663174 5.353014999999999
B 7.569008 1.8823759999999992 5.353014999999999
B 7.693791 3.609567999999999 5.353014999999999
B 7.693791 7.096902 5.353014999999999
B 7.568079999999998 8.824254999999999 5.353014999999999
B 9.040094 2.5021679999999993 5.353014999999999
B 9.254297999999999 4.397071999999999 5.353014999999999
B 9.252213 6.308262999999999 5.353014999999999
B 9.040038 8.208445999999999 5.353014999999999
B 0.35193100000000016 4.566200999999999 5.353014999999999
B 0.35103800000000096 6.141181 5.353014999999999
B 10.463379 7.537177999999999 5.353014999999999
B 7.799256 5.353456999999999 5.353014999999999
B 10.465796 3.169356999999999 5.353014999999999
