41
Energy = -251.32153 eV
B 3.6000235 0.16559749999999995 3.5330065000000004
B 6.0679574999999994 1.5374835 3.7956695000000003
B 3.6952925 2.7583464999999996 6.0520175
B 6.1651275 3.0935975 4.6705665
B 5.2269855 3.4454595 0.9023005
B 2.2348885 4.578749500000001 0.5894764999999998
B 3.9993195 0.8266675 1.8008964999999997
B 2.3830004999999996 2.9093625 0.6850664999999999
B 1.8461124999999998 6.3954745 2.8756215000000003
B 2.6400555 5.4562035 5.8910415
B 0.8731654999999998 5.2750045 3.5326014999999997
B 5.0526865 4.9601265 1.4591054999999997
B 4.946290500000001 6.355202500000001 3.9175585
B 2.3388955 3.8702625000000004 6.0741805
B 1.4931364999999999 1.4762234999999997 4.8274885
B 0.3665774999999999 2.4578955 3.6757655000000002
B 2.2051825 6.0262515 4.4198475
B 2.1565194999999995 2.2504405 6.0683435
B 3.9805195 4.5165575 5.9455694999999995
B 5.1919154999999995 3.4429184999999998 5.9218475
B 1.4053695 5.1922185 1.8877644999999998
B 1.0237214999999995 3.0745044999999998 5.242275499999999
B 0.38731649999999984 3.8191034999999998 2.5922264999999998
B 4.8849235 0.5992144999999998 4.4832624999999995
B 3.3945575 6.531162500000001 3.2697845
B 3.7652675 4.1056605 0.6286364999999996
B 6.189922500000001 3.8263105 2.1500965
B 5.9651975 5.3948955000000005 3.0103835
B 2.0701384999999997 0.1741104999999996 3.9738385000000003
B 4.0227975 2.3465924999999994 0.8786564999999997
B 2.3316765 0.6709194999999999 2.4012685
B 5.1084755 0.5065955 2.9209055
B 0.9241055 1.0149484999999998 3.2897045
B 5.0869955000000004 1.9159745 5.4095775
B 1.0034364999999996 3.7414064999999996 1.1209324999999997
B 4.7397115 6.2827545 2.3483145
B 0.13387950000000004 2.7340945 3.2119195
B 2.7243154999999994 1.3569014999999998 0.9741994999999999
B 3.8933955 6.0199375 5.064808500000001
B 0.13387949999999965 3.9720574999999996 4.1857245
B 0.0737985 4.2414075 3.6363465
