41
Energy = -251.11821958 eV
B -1.23544900 0.67860400 -3.02825300
B 1.23544900 -0.67860400 -3.02825300
B -1.05378100 -2.41372400 -1.09930300
B 1.59938100 -1.99290500 -1.86941600
B 2.48182000 1.73119100 -0.69298800
B 0.67166000 2.84527400 1.68456000
B 0.06361200 1.98483900 -2.50863400
B 0.01850600 3.05996700 0.14961200
B 0.26276300 0.73799100 3.58671500
B -0.67166000 -2.84527400 1.68456000
B -1.25769900 0.45318400 2.92048700
B 2.58384900 0.82880800 0.66672100
B 1.88934400 -1.68150700 1.83666100
B -1.71737900 -2.35143200 0.58173600
B -2.83268800 -0.17836400 -0.92592800
B -2.83268800 0.96081700 0.55365000
B 0.28217100 -1.95638000 2.71458900
B -2.48182000 -1.73119100 -0.69298800
B -0.01850600 -3.05996700 0.14961200
B 0.43313100 -3.02914400 -1.39298400
B -0.28217100 1.95638000 2.71458900
B -2.58384900 -0.82880800 0.66672100
B -1.88934400 1.68150700 1.83666100
B -0.38563200 -0.69159900 -3.41351400
B 1.25769900 -0.45318400 2.92048700
B 1.71737900 2.35143200 0.58173600
B 2.83268800 0.17836400 -0.92592800
B 2.83268800 -0.96081700 0.55365000
B -2.64419300 0.75412000 -2.29195600
B 1.05378100 2.41372400 -1.09930300
B -1.59938100 1.99290500 -1.86941600
B 0.38563200 0.69159900 -3.41351400
B -2.92937400 1.51109200 -0.94371800
B -0.06361200 -1.98483900 -2.50863400
B -0.89708100 2.92485200 1.52218000
B 2.53216000 -0.19808700 1.94978300
B 2.64419300 -0.75412000 -2.29195600
B -0.43313100 3.02914400 -1.39298400
B 0.89708100 -2.92485200 1.52218000
B -2.53216000 0.19808700 1.94978300
B 2.92937400 -1.51109200 -0.94371800
B -0.26276300 -0.73799100 3.58671500