42
Energy = -242.31251641 eV
B 5.279260000000001 4.576265 7.303565
B 5.283474 2.975744 7.2473790000000005
B 5.282919 0.5553340000000004 5.317562000000001
B 5.278356 0.14350900000000064 3.769874
B 5.282919 0.5553340000000004 2.222186
B 5.278596 1.5090160000000004 0.9356500000000003
B 5.283474 2.975744 0.2923690000000003
B 5.279260000000001 4.576265 0.23618300000000006
B 5.2794680000000005 7.036471 2.196953
B 5.2840940000000005 7.337592 3.769874
B 5.284025 5.9939 6.558461
B 3.769874 3.769874 7.539748
B 3.7692780000000004 0.09158100000000029 4.609266
B 3.7692780000000004 0.09158100000000029 2.9304820000000005
B 3.769298 0.8210330000000005 1.4184580000000002
B 3.769542 2.1328110000000002 0.37093900000000035
B 3.769874 3.769874 0.0
B 3.770206 5.406937 0.37093900000000035
B 3.77047 7.448167 2.9304820000000005
B 3.77047 7.448167 4.609266
B 3.770206 5.406937 7.168809
B 5.2794680000000005 7.036471 5.342795000000001
B 3.7704500000000003 6.7187149999999995 6.12129
B 2.255723 1.5458480000000003 6.558461
B 2.261152 6.0307319999999995 6.6040980000000005
B 2.26028 0.5032770000000004 5.342795000000001
B 3.769298 0.8210330000000005 6.12129
B 2.2556540000000003 0.20215600000000006 3.769874
B 2.26028 0.5032770000000004 2.196953
B 2.2613920000000003 7.396239 3.769874
B 2.2568290000000006 6.984413999999999 5.317562000000001
B 2.2562740000000003 4.564004000000001 0.2923690000000003
B 2.255723 1.5458480000000003 0.9812870000000002
B 2.2562740000000003 4.564004000000001 7.2473790000000005
B 2.2568290000000006 6.984413999999999 2.222186
B 2.260488 2.9634830000000005 0.23618300000000006
B 2.260488 2.9634830000000005 7.303565
B 3.769542 2.1328110000000002 7.168809
B 5.278596 1.5090160000000004 6.6040980000000005
B 2.261152 6.0307319999999995 0.9356500000000003
B 3.7704500000000003 6.7187149999999995 1.4184580000000002
B 5.284025 5.9939 0.9812870000000002
