42
Energy = -253.63347852 eV
B 11.324907883999707 13.331051182397765 11.324943184479599
B 9.756478895228796 12.57571681051148 11.324943128791892
B 9.369101139877813 10.878536796984532 11.32494313699984
B 10.45451341310459 9.517470808488264 11.324943111980105
B 12.195340586895414 9.517470808488264 11.324943111980105
B 13.280752860122186 10.878536796984532 11.32494313699984
B 12.893375104771206 12.57571681051148 11.324943128791892
B 11.324907883999707 15.09491920524252 11.325683486021587
B 9.689198559690904 7.928283924647723 11.325683432821645
B 7.649457654556133 10.48604027377204 11.325683441013654
B 8.377433554909068 13.67547066694417 11.325683472476012
B 14.272420445090933 13.67547066694417 11.325683472476012
B 15.000396345443864 10.48604027377204 11.325683441013654
B 12.960655440309099 7.928283924647723 11.325683432821645
B 14.518177676754023 12.053750580884389 11.324219920024419
B 12.746046439549788 14.275934261686086 11.324219759194389
B 9.903807560450215 14.275934261686086 11.324219759194389
B 8.131676323245976 12.053750580884389 11.324219920024419
B 8.764141448141473 9.282772879370736 11.324219949047457
B 11.324907883999707 8.049552588097214 11.32421984470901
B 13.885712551858528 9.282772879370736 11.324219949047457
B 11.324907883999707 16.781338199738414 11.3248309721015
B 7.058942521022097 14.726929515960524 11.32483099529814
B 6.005323996486237 10.110777123281327 11.324831028007594
B 8.95748756007697 6.408878197597474 11.324831040673809
B 13.69236643992303 6.408878197597474 11.324831040673809
B 16.644530003513765 10.110777123281327 11.324831028007594
B 15.590911478977903 14.726929515960524 11.32483099529814
B 6.981982928004154 8.89743572774032 11.32494327275574
B 7.991892448473955 7.631044318987725 11.3249432560624
B 10.515060105412925 6.41594841797967 11.3249431844796
B 12.134793894587078 6.41594841797967 11.3249431844796
B 14.65796155152605 7.631044318987725 11.3249432560624
B 15.667871071995851 8.89743572774032 11.32494327275574
B 16.291042020542243 11.627683524415778 11.324943302102904
B 15.930610455407129 13.206839977971363 11.32494325653813
B 14.18452294668823 15.396365529185639 11.324943270377576
B 12.7251590176138 16.099158575853284 11.324943297700154
B 9.9246949823862 16.099158575853284 11.324943297700154
B 8.465331053311772 15.396365529185639 11.324943270377576
B 6.719243544592871 13.206839977971363 11.32494325653813
B 6.358811979457759 11.627683524415778 11.324943302102904
