44
Energy = -246.094318 eV
B 5.987593 1.7570370000000002 4.812039999999999
B 7.183744999999998 2.782944 4.271037999999999
B 6.045447 5.398492000000001 5.0593249999999985
B 5.198643000000001 4.8233609999999985 6.274224999999999
B 3.4170760000000002 1.991261 5.983185
B 2.6115 3.628215999999999 6.211959999999999
B 4.293466 5.951662999999999 5.387595999999999
B 6.897965 3.1586250000000002 2.6445760000000003
B 5.328416999999999 0.8288839999999997 3.3637729999999997
B 4.378856 3.3605769999999997 6.390451
B 3.628921 4.858849000000001 6.462170999999999
B 7.000555999999999 4.358897999999999 4.039294999999999
B 6.714478999999999 1.631505 3.294733999999999
B 5.036844 1.9133359999999993 6.107219
B 1.8274979999999996 2.1746019999999993 5.715467999999999
B 4.456160999999999 0.9550080000000002 4.927825
B 5.140022 6.505130999999999 3.982595999999999
B 6.6152560000000005 5.879134999999998 3.622335
B 6.632856999999999 4.839596 2.355605
B 2.6497359999999994 1.8522150000000002 1.5113939999999995
B 3.27524 3.048552999999999 0.5382729999999996
B 1.2579010000000002 5.515237999999998 2.5146929999999994
B 0.3736870000000002 4.456169000000001 3.4654349999999994
B 1.2698930000000002 1.794832 2.326521
B 0.15122100000000016 5.007032 5.0960529999999995
B 2.369044999999999 6.371166 3.425730999999999
B 4.944721999999999 3.2692779999999995 0.7743759999999998
B 4.077873 0.8538679999999998 2.142948
B 7.183744999999999 3.5857629999999996 4.655645
B 0.9225899999999998 5.945135 4.066037999999999
B 3.6176469999999994 4.594865999999999 0.788736
B 4.199051 1.792942 0.8507050000000005
B 0.3382350000000001 2.1822919999999995 4.982072
B 2.4806259999999996 0.8403349999999997 2.913173
B 3.9064180000000004 6.616340000000001 2.7253060000000002
B 4.180158 6.048225999999999 1.2293879999999997
B 2.6655339999999996 5.712956999999999 1.7750890000000004
B 5.334053 4.904918999999998 1.1349409999999998
B 3.6116659999999996 6.938368999999999 4.296164
B 0.9878689999999994 3.6436709999999994 5.690875999999999
B 3.843035 0.2201799999999998 3.6126460000000002
B 6.436977999999999 3.7103879999999996 1.1997699999999998
B 1.4927309999999994 1.66383 3.984713999999999
B 0.2945569999999995 2.655555 3.325713
