44
Energy = -246.154318 eV
B 0.9099600000000001 2.5856300000000005 3.2204990000000002
B 0.36068700000000004 4.16091 3.111368
B 2.5493460000000003 5.35815 1.5069000000000004
B 3.026241 3.976799 0.8893890000000001
B 3.129492 1.002314 2.4228590000000003
B 4.656490000000001 1.842927 1.878594
B 4.358863 4.9072960000000005 1.3668790000000004
B 0.9052779999999998 5.0724610000000006 4.437106
B 1.22528 2.232021 5.015701000000001
B 2.980497 2.4390560000000003 1.4933290000000001
B 4.428663 3.2425340000000005 1.1110860000000002
B 1.2260730000000004 5.426729 2.643004
B 0.35889599999999994 3.496045 4.544342
B 1.687256 1.682522 2.140893
B 4.598580000000001 0.47436300000000026 2.8037520000000002
B 1.861963 1.225899 3.6913070000000006
B 3.851065 6.406413000000001 2.125435
B 2.2457480000000003 6.664987000000001 2.3991450000000003
B 1.8560800000000002 6.434167000000001 3.9695899999999997
B 4.3525480000000005 2.757952 6.302656000000001
B 4.418008 4.422852 6.558688
B 7.426480000000001 5.744222 4.532183000000001
B 0.24500099999999964 2.6417690000000005 4.540139
B 5.418100000000001 1.654622 5.770286000000001
B 7.432834 1.9274039999999997 3.147993
B 6.531086 5.91383 3.062421
B 2.9695120000000004 5.223328 6.171430000000001
B 2.544467 2.303344 6.156378
B 6.532711 1.75593 4.6146460000000005
B 0.24494699999999947 5.030844 3.1416850000000003
B 4.645588 5.822932000000001 5.791965
B 3.016355 3.6856790000000004 6.775531000000001
B 5.029639 0.9917849999999998 4.314155
B 3.850493 1.257785 5.542357
B 5.025402 6.674854000000001 3.3577070000000004
B 4.588045 7.191377000000001 4.866608
B 6.021050000000001 6.487278 4.810480999999999
B 3.118745 6.660377000000001 5.242416
B 5.420274000000001 6.012832000000001 1.9029310000000002
B 6.029921000000001 1.1814310000000001 2.8648360000000004
B 2.2466730000000004 0.9958820000000004 5.263092000000001
B 1.6769540000000003 5.977179 5.519393
B 0.35543800000000053 4.222755 4.608006
B 0.35889599999999994 3.450091 3.074205
