44
Energy = -246.0381291 eV
B 6.460165 2.474346 4.249911
B 7.072134999999999 4.022394 4.416581
B 4.898701 5.22416 6.007175999999999
B 4.465771999999999 3.872425 6.733547999999999
B 4.1525490000000005 1.0067310000000007 4.998329
B 2.6770720000000003 1.8233260000000002 5.8063970000000005
B 3.120777 4.773587 6.241002999999999
B 6.591037999999999 4.941593 3.0794020000000004
B 6.20993 2.149957 2.463708
B 4.421444 2.330594 6.111496
B 3.061058 3.151492 6.644946
B 6.199685 5.29634 4.846121
B 7.116981 3.365589 2.97935
B 5.626206 1.5993920000000004 5.31743
B 2.634178 0.5185510000000004 4.793886
B 5.4193109999999995 1.1877020000000007 3.747869
B 3.552615 6.199313 5.357375
B 5.133068 6.505936 5.045903
B 5.564439 6.262010999999999 3.484912
B 3.322433 2.6737480000000002 0.5857700000000005
B 3.3553590000000004 4.342830999999999 0.4346770000000004
B 0.5407960000000005 4.414269 2.925809
B 0.3224460000000006 2.7778340000000004 3.1488140000000002
B 2.18971 1.628416 0.9902440000000005
B -0.15058300000000002 2.34402 4.757646
B 1.1489340000000003 5.1270489999999995 4.314591
B 4.728007000000001 5.071683999999999 1.0944150000000004
B 5.105028 2.1889070000000004 1.0999640000000004
B 0.06284800000000067 1.1894630000000002 3.696731
B 0.06648500000000057 3.881313 4.407934
B 2.9433700000000003 5.548833999999999 1.4116670000000004
B 4.747872 3.582955 0.3806030000000004
B 1.5379500000000002 0.3962200000000005 3.5124690000000003
B 3.7195169999999997 1.1641710000000005 1.3361730000000003
B 2.3465990000000003 6.331143 4.0672820000000005
B 2.793868 6.692464 2.548795
B 1.6492700000000002 5.519421 2.620096
B 4.343979 6.328854 2.1950700000000003
B 2.012401 5.727779 5.543077
B 1.3074160000000001 1.445055 4.943211000000001
B 5.136465 0.9666510000000004 2.157083
B 5.8713049999999996 5.828435 1.94087
B 2.474128 0.6426380000000007 2.2284740000000003
B 1.0647090000000003 1.4855850000000002 2.2714800000000004
