44
Energy = -245.9381291 eV
B 4.977056 0.08560599999999956 3.1586209999999997
B 4.879509 3.233698 0.2071469999999997
B 4.572085 0.7140419999999997 1.679509
B 1.4903399999999998 6.3817900000000005 3.1586209999999997
B 3.233698 6.25018 5.843629000000001
B 5.527681 2.436984 5.433903000000001
B 0.9791879999999998 4.096738 1.4318579999999996
B 1.078936 1.2928019999999998 4.26172
B 1.4903399999999998 0.08560599999999956 3.1586209999999997
B 1.5878869999999998 3.233698 0.2071469999999997
B 1.895311 0.7140419999999997 1.679509
B 5.773238 5.067904 2.678976
B 4.572085 5.753354 1.679509
B 1.895311 5.753354 1.679509
B 2.365663 6.467396 4.492645
B 4.101733 0.0 4.492645
B 0.9791879999999998 2.3706579999999997 1.4318579999999996
B 4.101733 6.467396 4.492645
B 3.233698 5.957828 0.7924239999999999
B 5.773238 1.399492 2.678976
B 5.488208 2.3706579999999997 1.4318579999999996
B 5.488208 4.096738 1.4318579999999996
B 1.078936 5.174594000000001 4.26172
B 5.38846 1.2928019999999998 4.26172
B 5.38846 5.174594000000001 4.26172
B 2.3550679999999997 4.654478 0.4105329999999998
B 4.112328 4.654478 0.4105329999999998
B 4.977056 6.3817900000000005 3.1586209999999997
B 4.4316770000000005 5.153842 5.703444999999999
B 0.939715 2.436984 5.433903000000001
B 2.365663 0.0 4.492645
B 2.3550679999999997 1.8129179999999998 0.4105329999999998
B 4.112328 1.8129179999999998 0.4105329999999998
B 4.4316770000000005 1.3135539999999997 5.703444999999999
B 0.6941579999999995 5.067904 2.678976
B 3.233698 0.5095679999999998 0.7924239999999999
B 2.035719 5.153842 5.703444999999999
B 3.233698 0.21721599999999971 5.843629000000001
B 0.6941579999999995 1.399492 2.678976
B 2.035719 1.3135539999999997 5.703444999999999
B 4.085939 3.233698 5.800926
B 5.527681 4.030412 5.433903000000001
B 2.3814569999999997 3.233698 5.800926
B 0.939715 4.030412 5.433903000000001
