44
Energy = -265.04095175 eV
B 7.024854573244795 8.717313926449831 9.374110370194883
B 6.508681356748499 10.01300060921259 9.248941380853175
B 8.700486384417074 11.22216663283618 7.65307204629071
B 9.164982133528506 9.831233120309063 7.037693251353324
B 9.268124093531904 7.148600810468057 8.56319508174779
B 10.503370671433142 7.965682032673961 8.009124550795164
B 10.20748447501081 10.77417350220881 7.471417999516126
B 7.020167672931976 10.940717502494168 10.28339169286415
B 7.371012774060019 8.371570662058323 10.875295819006526
B 9.129543444123307 8.565618828900753 7.598542099066018
B 10.288626492516071 9.384823006380081 7.260427289963253
B 7.371808905099629 11.287184298364688 8.783412337715516
B 6.506857699996721 9.643961627098657 10.406777411980663
B 7.824417337654545 7.838267356508922 8.280723605631508
B 10.446262051344807 6.613445694319033 8.95847617171112
B 7.991528844174982 7.355895815977988 9.825723015591937
B 9.70923033422945 12.268798857478169 8.272135910821914
B 8.394548009975477 12.532097376950452 8.552668738129867
B 7.985572219073727 12.304140777100239 9.835122440016123
B 10.201056194171558 8.89105788810681 12.19810934245698
B 10.277982094832195 10.28057365493078 12.409357082800588
B 13.284846781027053 11.596708890538576 10.393054817768796
B 13.76193081168308 8.788238435071086 10.402133710119719
B 11.278171896045517 7.79860503966853 11.631843559275424
B 13.291211610663844 8.074919166870467 9.287124155766527
B 12.396638688770523 11.79119419397112 9.209952209645847
B 9.11838042613123 11.096771750629186 12.06623058496325
B 8.695629110979146 8.439340740905678 12.01023362305873
B 12.398320838515772 7.878585949097776 10.467152238431884
B 13.761901971390753 10.884374943096935 9.279680596600477
B 10.492373896226308 11.700160250365904 11.661407919330486
B 9.155107279732425 9.831233120309063 12.62721084224044
B 10.903465656193568 7.09527779163589 10.190689166262167
B 9.708679018526643 7.395408031527484 11.395672331131903
B 10.89921563720147 12.571402208363638 9.481240244805045
B 10.435749512549007 13.052279321358558 10.711860957184772
B 11.871432676035209 12.336591697722941 10.654469064730874
B 9.257362389280694 12.514076247058924 11.102055900225913
B 11.280364008229279 11.868861174500722 8.04139199332675
B 11.880251583026892 7.3321042877454214 9.020827647639155
B 8.395528009684137 7.128781842744772 11.109585337384726
B 7.8141166579854255 11.821419005628018 11.379535746799109
B 13.898937361439984 10.085773729013628 10.457429715802308
B 13.902385954484972 9.587125201347536 9.224865998998274
