46
Energy = -261.4893125 eV
B 1.4694720399999999 8.58749661 4.9735799400000005
B 4.238173059999999 10.282227200000001 4.90215689
B 0.2746416099999997 7.6018069100000005 4.69717796
B 7.1608319 8.838764900000001 5.711577879999999
B 2.9335774599999995 7.87176146 5.85579193
B 5.70174946 9.605190050000001 5.56308788
B 7.3446798 5.56046101 6.153614899999999
B 3.03824442 4.483847519999999 6.22525896
B 0.2287025299999993 6.01111789 4.88279997
B 4.47873491 5.36752935 6.0499509399999996
B 5.924019339999999 4.63273319 6.09680493
B 0.30704548000000004 4.36863293 4.90579899
B 3.14498736 2.85519858 6.073463970000001
B 6.04070831 2.9410272500000003 6.23835494
B 2.8714335599999994 9.42443542 5.18104691
B 4.32346399 8.69894126 5.730559909999999
B 2.97064044 6.18050348 6.13619394
B 1.6122930199999999 6.90450069 5.36792895
B 5.84674638 6.300607139999999 6.38661591
B 3.2930492499999997 1.2988626600000002 5.47122799
B 1.8223128499999999 1.9916448099999995 5.24755799
B 0.5129703699999998 2.8101280499999994 4.873891
B 8.72863529 6.4332788 5.8247678800000005
B 8.89837226 4.7699889 6.0578529
B 7.492524779999999 3.85559409 6.20674492
B 4.65671183 2.0433484499999994 6.08304596
B 8.66923433 8.11116477 5.8030808700000005
B 7.28195585 7.20288897 6.13891989
B 8.80897013 3.2419078400000005 5.27134491
B 7.475447679999999 2.2850610799999997 5.51547493
B 6.04048409 1.5701412399999997 5.17797295
B 4.69205268 0.5524064699999999 5.12440398
B 6.110516990000001 -0.0013657200000002942 4.651095969999999
B 7.47549855 0.75939707 4.64457695
B 8.87029303 1.66548587 4.611216929999999
B 1.84173088 3.67255482 5.34960098
B 4.37833693 7.071036299999999 6.20553592
B 5.623669710000001 10.888618 4.4844358699999995
B 7.0705490399999995 10.31590384 4.80366886
B 8.534268449999999 9.61840868 4.99254586
B 1.5910019599999996 5.27164668 5.71247197
B 10.130372490000001 2.6113996 4.5198139
B 10.26656262 4.12321968 4.994067889999999
B 10.22245172 5.691810660000001 5.4535038700000005
B 10.18196778 7.308240630000001 5.2677698600000005
B 9.88953892 8.790070459999999 4.85126885
