46
Energy = -261.18133412 eV
B 5.037766 3.637331 1.0397330000000002
B 3.669023 4.440929 0.4895110000000002
B 3.238027 6.732534 2.279697
B 4.754282000000001 6.977859 2.655119
B 7.045420000000001 3.284682 3.096206
B 7.072866 4.231599 4.624935000000001
B 3.817146 6.811160000000001 4.043553
B 2.2351080000000003 3.650757 1.0432179999999998
B 4.621244000000001 1.8441379999999998 1.171457
B 7.2773 4.962997 3.02807
B 6.747351 5.803908 4.315108
B 2.651383 5.444598 1.179721
B 3.6026450000000003 2.8504050000000003 0.48624599999999996
B 6.270924 4.2418890000000005 1.906888
B 7.1560559999999995 2.5953480000000004 4.568967000000001
B 6.028204000000001 2.554094 1.9281039999999998
B 2.122959 6.550206 3.709444
B 1.7003780000000002 6.306014 2.147174
B 1.2460250000000002 4.729576 1.9355720000000003
B 3.4607740000000002 0.47040499999999996 4.033152
B 0.5306990000000001 1.4730709999999998 4.313883
B 2.219571 3.6834390000000004 6.796647
B 3.617898 2.8012289999999997 6.849130000000001
B 4.510556 0.8435059999999999 5.19766
B 5.068284 3.579653 6.7969669999999995
B 2.409773 5.234138000000001 6.271568
B -9.399999999999556E-4 2.31827 3.030738
B 4.035594 0.5531390000000003 2.267684
B 4.878785 2.031142 6.2662450000000005
B 3.6697070000000003 4.461322 6.85304
B 0.20258100000000046 3.0441490000000004 4.628863000000001
B 2.521288 0.30356899999999987 2.6467320000000005
B 5.935459 1.5843510000000003 4.954026
B 5.154317 0.728786 3.695708
B 1.3463150000000002 5.688823 4.966512
B 0.12471600000000027 4.679768 4.580265000000001
B 1.0606150000000005 4.069763 5.769804000000001
B 0.23251599999999975 3.995879 3.104317
B 2.7719180000000003 6.429304 5.208985
B 6.225431 3.1982480000000004 5.766118
B 5.574293 0.977635 2.133366
B 1.003744 3.04143 1.909013
B 1.8274650000000003 0.511453 4.099145000000001
B 1.2859060000000002 1.424649 2.750909
B 5.451706 6.7678519999999995 4.1054330000000006
B 5.986443 5.854524 2.754885
