46
Energy = -260.81294585 eV
B 9.34525 2.2255229999999995 5.119384
B 6.487813 0.6294169999999999 5.080308
B 10.609074 3.1286139999999993 4.935721999999999
B 3.618304 2.202439 5.799608
B 7.898159000000001 3.00239 5.855029999999999
B 5.025132 1.4156039999999999 5.643743
B 3.5607369999999996 5.539539 6.423517
B 7.936157 6.395086 6.180881
B 10.736934 4.72258 5.128794999999999
B 6.435942999999999 5.538331 6.054571999999999
B 5.03028 6.4186499999999995 6.389832999999999
B 10.738361000000001 6.349707 5.13118
B 7.902538000000001 8.073015 5.856133
B 6.484494000000001 7.211066 6.332266
B 7.876457 1.4281479999999998 5.294614
B 6.4920219999999995 2.1902 5.831433
B 7.9360729999999995 4.679513 6.182626
B 9.245778 3.909277 5.4231549999999995
B 5.029517 4.659272 6.389161
B 7.880574 9.646609999999999 5.293686
B 9.349375 8.848218 5.120931
B 10.612615 7.943948 4.938534
B 2.1337069999999994 4.713816 5.91634
B 2.1349229999999997 6.366521 5.915893
B 3.561479 7.1919569999999995 6.214663
B 6.495448 8.885167 5.8294429999999995
B 2.239632 3.0904910000000005 5.547535
B 3.560029 3.8870519999999997 6.213961
B 2.241079 7.990363 5.549953
B 3.6215229999999994 8.876634999999998 5.799127
B 5.029295 9.661066 5.642334
B 6.4925880000000005 10.446238000000001 5.079486
B 5.051673 4.4999999999766906E-5 4.753373
B 3.6551169999999997 10.419505000000001 5.015897
B 2.208739 9.59238 5.025096
B 9.247274 7.164091 5.422563
B 6.482881000000001 3.8654279999999996 6.333617
B 5.046295 4.4999999999766906E-5 4.754046
B 3.650544 0.6592269999999996 5.016002
B 2.204997 1.488069 5.024495
B 9.418503000000001 5.536766 5.9095320000000005
B 0.918055 8.709851 4.86922
B 0.7327589999999993 7.162564 5.159701
B 0.7690209999999993 5.540877 5.349337
B 0.7314220000000001 3.919602 5.158811999999999
B 0.9153289999999997 2.371866 4.868359
