46
Energy = -260.9113155 eV
B 4.768960000000001 0.7732350000000001 4.292763
B 2.7567969999999997 0.20198900000000036 2.34206
B 2.175294 6.340266000000001 2.941126
B 6.549526999999999 4.823759 3.118465
B 0.43106100000000025 3.504188 3.038513
B 4.034351 1.14547 1.7402889999999998
B 0.6211679999999997 1.8160840000000003 3.4469429999999996
B 4.251348 -0.04526399999999971 2.912864
B 4.7151879999999995 6.852136 4.1395740000000005
B 5.503513 1.6264319999999999 5.526839
B 3.919869 4.343965 6.2328280000000005
B 6.374892 3.5218819999999997 1.9872290000000004
B 6.188428 1.7413059999999998 4.050088
B 5.443919 4.4732449999999995 5.61304
B 0.13358900000000004 4.634479 4.286958
B 0.70559 5.274795999999999 2.941744
B 3.229909 2.743586 6.207965
B 1.0727550000000001 4.521422 5.607763
B 6.915585 3.1936380000000004 3.615253
B 1.52125 2.827739 5.949600000000001
B 1.3038429999999999 0.8889859999999999 2.316878
B 5.007992 3.8524719999999997 0.966503
B 4.254645 5.4887060000000005 5.049804
B 3.056509 6.293578 1.5201509999999998
B 5.862858 5.743741 4.472756
B 4.374586 5.4072700000000005 0.9400099999999998
B 2.354371 1.3133940000000002 5.716299
B 2.2701070000000003 3.255331 0.8275679999999999
B 3.951864 1.2855060000000005 5.760908000000001
B 5.536074 0.8391990000000004 2.586986
B 1.53478 5.708293 1.604036
B 5.819744 5.074863 1.705485
B 6.290739 3.025539 5.238696
B 1.0196840000000003 4.1075859999999995 1.5848430000000002
B 2.660086 5.394346 5.594981
B 3.564887 4.051786 0.3404540000000001
B 0.912511 1.5505700000000002 5.082784
B 6.698717 1.996761 2.492424
B 3.680611 6.965202000000001 2.952927
B 6.908976 4.472128 4.732657000000001
B 0.324077 3.014262 4.650507
B 3.0472270000000004 6.523395000000001 4.47477
B 2.450437 1.5684900000000002 1.3372709999999999
B 3.801728 2.506661 0.9037350000000003
B 2.2464790000000003 4.136011 6.583636
B 0.9941890000000001 2.4622870000000003 1.8117420000000002
