46
Energy = -261.3023553 eV
B 7.019077165 6.1806435650000005 3.5533358749999997
B 8.321943845 3.4217484149999997 3.4620498549999996
B 5.713128724999999 2.4783797149999995 2.2205818849999996
B 5.122841875 3.8200707849999995 1.6001488949999998
B 4.458717245 6.998173855 2.5197879049999994
B 3.1330661049999997 5.814178005 2.1252889249999996
B 3.8536877549999997 2.7535409249999994 2.012254905
B 7.9417077549999995 2.485363455 4.727659855
B 6.512578245 6.697460614999999 5.258859875
B 4.903326065 5.443319805 1.9079618949999997
B 3.6138139349999996 4.358543955 1.6294849149999995
B 7.259395705 2.2264605349999997 3.058846865
B 7.753541135 5.728952475 5.012065864999999
B 6.015977195 6.550040674999999 2.3494038849999996
B 2.8997262849999994 7.319480035 2.763737924999999
B 5.689271294999999 7.257435715 3.781184895
B 4.482827595 1.3080768549999993 2.7661308949999994
B 6.082477585 1.1182186749999996 3.0392448749999996
B 6.511613655 1.6114856149999992 4.570806875
B 3.4809681349999995 5.5705299649999995 6.464059915
B 3.7441229549999995 3.9644029349999994 6.930305915
B 0.8708787049999993 1.9750952649999993 5.151658945
B -0.09436396500000037 4.925580375 4.763625955
B 2.2204712149999994 6.403462105 5.868228934999999
B 0.31471308499999967 5.511141325 3.2917619549999997
B 1.7613016549999994 1.6912501649999991 3.6951159349999996
B 5.314655885 3.411295755 6.457244895
B 5.153566225 6.367912774999999 6.293885895
B 1.1462441549999995 5.981632235 4.742825945
B 0.3024577349999993 2.4093973249999996 3.6796659549999995
B 3.6995697749999996 2.4722299349999997 6.350868905
B 4.987043065 4.954149795 6.997699894999999
B 2.530047255 6.9169660749999995 4.3315529249999996
B 3.684312295 7.075405944999999 5.595635915
B 3.371032605 1.1953569749999997 4.091690914999999
B 3.875242605 1.0226499149999995 5.6382629049999995
B 2.3644376549999997 1.4996310949999996 5.511443925
B 5.276113694999999 1.8560487549999993 5.752442885
B 2.8892566249999994 1.5616170349999998 2.551080914999999
B 1.6079941849999995 6.398229185 2.910539944999999
B 5.199087355 7.638918765 5.297818895
B 6.669336805 2.817713605 5.771874875
B 0.03565686499999962 3.3692573549999993 5.032030955
B -0.07006609500000088 3.9324833749999994 3.4163869549999997
B 7.740403945 4.056292475 4.980590865
B 8.211876035 5.024855424999999 3.6479408549999994
