46
Energy = -260.5935294585 eV
B 4.9257525 8.3892325 6.6306804999999995
B 3.4016035 7.938751499999999 6.597094499999999
B 2.0184514999999994 7.140344499999999 6.504909499999999
B 1.2327484999999998 5.797112499999999 6.3045415
B 0.7977174999999992 4.2073595 6.0773515
B 1.9698964999999993 3.0905204999999993 6.473383499999999
B 3.3361464999999995 2.3638504999999994 6.7521984999999995
B 4.925855499999999 2.1988124999999994 6.802700499999999
B 6.5155104999999995 2.3636334999999993 6.752072499999999
B 7.881720499999999 3.0903525 6.4732075
B 9.0537015 4.2073335 6.0774444999999995
B 8.618689499999999 5.7971295 6.3046394999999995
B 7.8330965 7.140412499999999 6.5049515
B 6.4499125 7.938756499999999 6.5971275
B 0.6410604999999994 5.404189499999999 4.711605499999999
B 1.2533845 6.8996805 4.937324499999999
B 5.7656884999999996 8.565902499999998 5.130220499999999
B 7.254084499999999 7.8940575 5.043403499999999
B 8.5981515 6.8996315 4.937403499999999
B 9.8515335 3.9178904999999995 4.552732499999999
B 9.2106165 5.4040665 4.7118575
B 1.2254304999999992 2.9263054999999993 4.9373295
B 2.4779854999999995 1.9332204999999993 5.2809045
B 7.373588499999999 1.9331504999999995 5.2806595
B 5.7362965 1.5724534999999993 5.408775499999999
B 4.115179499999999 1.5722944999999997 5.408974499999999
B -1.9500000000660038E-5 3.9179424999999997 4.552744499999999
B 4.0858585 8.565978499999998 5.1301975
B 2.597536499999999 7.8939465 5.0432955
B 8.6263285 2.9261014999999997 4.9370975
B 4.925824499999999 8.579960499999999 3.5606194999999996
B 3.3449394999999993 8.3830005 3.5816594999999998
B 2.002506499999999 7.510365499999999 3.4349854999999994
B 1.0236764999999997 6.285673499999999 3.2488044999999994
B 0.4910404999999993 4.763857499999999 3.1481944999999993
B 0.8029134999999996 3.1469505 3.2809934999999992
B 1.9567344999999998 2.0571654999999995 3.5508874999999995
B 3.3435684999999995 1.3604584999999998 3.8559265
B 4.9257035 1.1002274999999995 3.9656424999999995
B 6.5078015 1.3604384999999994 3.8555574999999997
B 7.894701499999999 2.0571054999999996 3.5508044999999995
B 9.0485285 3.1470054999999992 3.2807984999999995
B 9.3604285 4.7639214999999995 3.1482344999999996
B 8.8279855 6.2857145 3.2489964999999996
B 7.849139500000001 7.5103895000000005 3.4350794999999996
B 6.5067185 8.383070499999999 3.5817024999999996
