46
Energy = -251.678239 eV
B 3.36435200 -1.24368100 0.60133400
B 3.91499500 0.32509000 0.71996200
B 1.68544800 1.48832700 2.32408300
B 1.19265600 0.09423000 2.90530500
B 1.17064700 -2.87921700 1.37282100
B -0.37859800 -2.05964800 1.84519300
B -0.13879000 1.03372700 2.40830300
B 3.36482100 1.24287200 -0.60085900
B 3.03162600 -1.56983900 -1.21033400
B 1.28159700 -1.43094100 2.30091300
B -0.19640500 -0.63655600 2.58708800
B 3.03188300 1.56926300 1.21075500
B 3.91509500 -0.32602300 -0.71934600
B 2.59678700 -2.17021200 1.66495800
B -0.26474800 -3.46834400 0.98348800
B 2.41052900 -2.59632400 0.10776600
B 0.39982000 2.55529500 1.71569800
B 2.01529300 2.80221400 1.46337500
B 2.41126100 2.59579000 -0.10751100
B -0.13869200 -1.03350300 -2.40861900
B -0.19573100 0.63675100 -2.58756900
B -3.23401900 2.39277200 -0.64555800
B -3.81680100 -1.76898000 -0.73942300
B -1.18184800 -2.14379600 -1.87180300
B -3.23514800 -2.39284000 0.64509100
B -2.34357600 2.39465900 0.76279400
B 1.28242900 1.43058300 -2.30084600
B 1.68558400 -1.48871400 -2.32420900
B -2.34394900 -2.39350400 -0.76283700
B -3.81645900 1.76984000 0.73916700
B -0.37777300 2.05984500 -1.84557300
B 1.19316100 -0.09448600 -2.90555900
B -0.74958600 -2.98868600 -0.53792400
B 0.39948000 -2.55504200 -1.71561700
B -0.74925600 2.98876000 0.53793400
B -0.26363600 3.46829700 -0.98356300
B -1.74406100 2.87597100 -0.96201300
B 1.17168000 2.87890300 -1.37275600
B -1.18186100 2.14465100 1.87226200
B -1.74514400 -2.87561700 0.96194700
B 2.01482500 -2.80254500 -1.46321800
B 2.59767700 2.16956100 -1.66464400
B -4.33592500 1.15224300 -0.71691600
B -4.33659400 -1.15184900 0.71660000
B -4.68181300 -0.38005900 -0.73943200
B -4.68123300 0.38076200 0.73929500
II 
B -2.87786400 1.73790600 -0.35870400
B -1.44492900 -2.49962300 -0.38415800 
B 0.00000000 3.34962300 -0.35295000 
B -4.28636900 0.86218500 -0.15972400 
B -1.44492900 2.49962300 -0.38415800 
B -2.89687400 0.00000000 -0.61233700 
B -4.26435700 2.55239800 0.23010600 
B 1.44492900 2.49962300 -0.38415800 
B 2.87786400 1.73790600 -0.35870400
B -2.84416000 3.34208600 0.06691600 
B -2.87786400 -1.73790600 -0.35870400 
B -4.26435700 -2.55239800 0.2301060 
B 4.28636900 -0.86218500 -0.15972400
B -1.42081300 -0.81497100 -0.72515100
B -1.42589900 4.19389500 0.17677900 
B 1.42081300 -0.81497100 -0.72515100
B 0.00000000 -1.68686200 -0.77226000
B -1.42589900 -4.19389500 0.17677900
B 4.28636900 0.86218500 -0.15972400 
B -4.28636900 -0.86218500 -0.15972400 
B -2.84416000 -3.34208600 0.06691600 
B 2.87786400 -1.73790600 -0.35870400 
B 1.44492900 -2.49962300 -0.38415800 
B 0.00000000 1.68686200 -0.77226000 
B 1.42081300 0.81497100 -0.72515100 
B 0.00000000 -3.34962300 -0.35295000 
B -1.42081300 0.81497100 -0.72515100 
B 0.00000000 4.84119500 0.34465900 
B 1.42589900 4.19389500 0.17677900 
B 2.84416000 3.34208600 0.06691600 
B 4.26435700 2.55239800 0.23010600 
B 5.63349200 1.73403000 0.57365600 
B 5.63349200 -1.73403000 0.57365600 
B 4.26435700 -2.55239800 0.23010600 
B 2.84416000 -3.34208600 0.06691600 
B 1.42589900 -4.19389500 0.17677900 
B 0.00000000 -4.84119500 0.34465900 
B 5.61361800 0.00000000 0.35911800
B 6.82692200 0.78554100 1.09716500 
B 6.82692200 -0.78554100 1.09716500 
B -5.63349200 -1.73403000 0.57365600 
B -5.61361800 0.00000000 0.35911800 
B -5.63349200 1.73403000 0.57365600 
B 2.89687400 0.00000000 -0.61233700 
B -6.82692200 -0.78554100 1.09716500 
B -6.82692200 0.78554100 1.09716500
III
B -3.97551982 3.14250475 -0.47141192 
B -1.20681880 4.83723534 -0.54283497 
B -5.17035025 2.15681505 -0.74781390 
B 1.71584004 3.39377304 0.26658602 
B -2.51141440 2.42676960 0.41080007 
B 0.25675760 4.16019819 0.11809602
B 1.89968794 0.11546915 0.70862304 
B -2.40674744 -0.96114434 0.78026710 
B -5.21628933 0.56612603 -0.56219189 
B -0.96625695 -0.07746251 0.60495908 
B 0.47902748 -0.81225867 0.65181307 
B -5.13794638 -1.07635893 -0.53919287 
B -2.30000450 -2.58979328 0.62847211 
B 0.59571645 -2.50396461 0.79336308 
B -2.57355830 3.97944356 -0.26394495 
B -1.12152787 3.25394940 0.28556805 
B -2.47435142 0.73551162 0.69120208 
B -3.83269884 1.45950883 -0.07706291 
B 0.40175452 0.85561528 0.94162405 
B -2.15194261 -4.14612920 0.02623613 
B -3.62267901 -3.45334705 -0.19743387 
B -4.93202149 -2.63486381 -0.57110086 
B 3.28364343 0.98828694 0.37977602 
B 3.45338040 -0.67500296 0.61286104 
B 2.04753292 -1.58939777 0.76175306 
B -0.78828003 -3.40164341 0.63805410 
B 3.22424247 2.66617291 0.35808901 
B 1.83696399 1.75789711 0.69392803 
B 3.36397827 -2.20308402 -0.17364695 
B 2.03045582 -3.15993078 0.07048307 
B 0.59549223 -3.87485062 -0.26701891 
B -0.75293918 -4.89258539 -0.32058788 
B 0.66552513 -5.44635758 -0.79389589 
B 2.03050669 -4.68559479 -0.80041491 
B 3.42530117 -3.77950599 -0.83377493 
B -3.60326098 -1.77243704 -0.09539088 
B -1.06665493 1.62604444 0.76054406 
B 0.17867785 5.44362614 -0.96055599 
B 1.62555718 4.87091198 -0.64132300 
B 3.08927659 4.17341682 -0.45244600 
B -3.85398990 -0.17334518 0.26748011 
B 4.68538063 -2.83359226 -0.92517796 
B 4.82157076 -1.32177218 -0.45092397 
B 4.77745986 0.24681880 0.00851201 
B 4.73697592 1.86324877 -0.17722200 
B 4.44454706 3.34507860 -0.59372301
IV
B -1.37347097 -3.38396172 -2.24894896 
B -1.51869195 -2.17510114 -3.26869228 
B -1.63292793 -0.66279886 -3.75998142 
B -1.74936392 0.92342102 -3.54401852 
B -1.75837593 2.32546459 -2.78559973 
B -1.30723599 -4.03057554 -0.79300833 
B -1.30723599 -4.03057554 0.79300833 
B -1.37347097 -3.38396172 2.24894896 
B -1.51869195 -2.17510114 3.26869228 
B -1.63292793 -0.66279886 3.75998142 
B -1.74936392 0.92342102 3.54401852
B -1.75837593 2.32546459 2.78559973 
B -1.61076398 3.31199714 1.52924384 
B -1.48870696 3.72162901 0.00000000 
B -1.61076398 3.31199714 -1.52924384 
B 0.19793702 -3.75719008 -1.62246115 
B 0.10124605 -2.82015131 -2.98454562 
B -0.04256794 -1.36509286 -3.77340380 
B -0.17275992 0.25026227 -3.99074688 
B -0.24375592 1.80754897 -3.47377900 
B 0.24501200 -4.14674100 0.00000000 
B 0.19793702 -3.75719008 1.62246115 
B 0.10124605 -2.82015131 2.98454562 
B -0.04256794 -1.36509286 3.77340380 
B -0.17275992 0.25026227 3.99074688 
B -0.24375592 1.80754897 3.47377900 
B -0.21287699 3.07502762 2.43430072 
B -0.02790797 3.81184149 0.89854614 
B -0.02790797 3.81184149 -0.89854614 
B -0.21287699 3.07502762 -2.43430072 
B 1.66674003 -3.05603672 -2.26469873 
B 1.56242406 -1.92806609 -3.38110009 
B 1.42171307 -0.43302378 -3.93231125 
B 1.31708408 1.16659920 -3.88785834 
B 1.24666908 2.60752981 -3.21060853 
B 1.73939201 -3.68223856 -0.79352109 
B 1.73939201 -3.68223856 0.79352109 
B 1.66674003 -3.05603672 2.26469873 
B 1.56242406 -1.92806609 3.38110009 
B 1.42171307 -0.43302378 3.93231125 
B 1.31708408 1.16659920 3.88785834 
B 1.24666908 2.60752981 3.21060853 
B 1.33327302 3.76897080 2.09562414 
B 1.68715806 4.47264343 -0.77500546 
B 1.33327302 3.76897080 -2.09562414 
B 1.68715806 4.47264343 0.77500546
V
B 2.81092326 1.97248966 -0.65481803
B 4.11378994 -0.78640549 -0.74610405
B 1.50497482 -1.72977419 -1.98757202
B 0.91468797 -0.38808312 -2.60800501
B 0.25056334 2.79001995 -1.68836600
B -1.07508780 1.60602410 -2.08286498
B -0.35446615 -1.45461298 -2.19589900
B 3.73355385 -1.72279045 0.51950595
B 2.30442434 2.48930671 1.05070597
B 0.69517216 1.23516590 -2.30019201
B -0.59433997 0.15039005 -2.57866899
B 3.05124180 -1.98169337 -1.14930704
B 3.54538723 1.52079857 0.80391196
B 1.80782329 2.34188677 -1.85875002
B -1.30842762 3.11132613 -1.44441598
B 1.48111739 3.04928181 -0.42696901
B 0.27467369 -2.90007705 -1.44202301
B 1.87432368 -3.08993523 -1.16890903
B 2.30345975 -2.59666829 0.36265297
B -0.72718577 1.36237606 2.25590601
B -0.46403095 -0.24375097 2.72215201
B -3.33727520 -2.23305864 0.94350504
B -4.30251787 0.71742647 0.55547205
B -1.98768269 2.19530820 1.66007503
B -3.89344082 1.30298742 -0.91639195
B -2.44685225 -2.51690374 -0.51303797
B 1.10650198 -0.79685815 2.24909099
B 0.94541232 2.15975887 2.08573199
B -3.06190975 1.77347833 0.53467204
B -3.90569617 -1.79875658 -0.52848795
B -0.50858413 -1.73592397 2.14271500
B 0.77888916 0.74599589 2.78954599
B -1.67810665 2.70881217 0.12339902
B -0.52384161 2.86725204 1.38748201
B -0.83712130 -3.01279693 -0.11646299
B -0.33291130 -3.18550399 1.43010900
B -1.84371625 -2.70852281 1.30329002
B 1.06795979 -2.35210515 1.54428898
B -1.31889728 -2.64653687 -1.65707299
B -2.60015972 2.19007528 -1.29761396
B 0.99093345 3.43076486 1.08966499
B 2.46118290 -1.39044030 1.56372097
B -4.17249704 -0.83889655 0.82387705
B -4.27822000 -0.27567053 -0.79176695
B 3.53225004 -0.15186143 0.77243696
B 4.00372213 0.81670152 -0.56021305
VI
B 1.39864600 -0.00178900 -2.59938700
B 0.02990300 0.80180900 -3.14960900
B -0.40109300 3.09341400 -1.35942300
B 1.11516200 3.33873900 -0.98400100
B 3.40630000 -0.35443800 -0.54291400
B 3.43374600 0.59247900 0.98581500
B 0.17802600 3.17204000 0.40443300
B -1.40401200 0.01163700 -2.59590200
B 0.98212400 -1.79498200 -2.46766300
B 3.63818000 1.32387700 -0.61105000
B 3.10823100 2.16478800 0.67598800
B -0.98773700 1.80547800 -2.45939900
B -0.03647500 -0.78871500 -3.15287400
B 2.63180400 0.60276900 -1.73223200
B 3.51693600 -1.04377200 0.92984700
B 2.38908400 -1.08502600 -1.71101600
B -1.51616100 2.91108600 0.07032400
B -1.93874200 2.66689400 -1.49194600
B -2.39309500 1.09045600 -1.70354800
B -0.17834600 -3.16871500 0.39403200
B -3.10842100 -2.16604900 0.67476300
B -1.41954900 0.04431900 3.15752700
B -0.02122200 -0.83789100 3.21001000
B 0.87143600 -2.79561400 1.55854000
B 1.42916400 -0.05946700 3.15784700
B -1.22934700 1.59501800 2.63244800
B -3.64006000 -1.32085000 -0.60838200
B 0.39647400 -3.08598100 -1.37143600
B 1.23966500 -1.60797800 2.62712500
B 0.03058700 0.82220200 3.21392000
B -3.43653900 -0.59497100 0.98974300
B -1.11783200 -3.33555100 -0.99238800
B 2.29633900 -2.05476900 1.31490600
B 1.51519700 -2.91033400 0.05658800
B -2.29280500 2.04970300 1.32739200
B -3.51440400 1.04064800 0.94114500
B -2.57850500 0.43064300 2.13068400
B -3.40660400 0.35675900 -0.53480300
B -0.86720200 2.79018400 1.56986500
B 2.58631100 -0.44087200 2.12699800
B 1.93517300 -2.66148500 -1.50575400
B -2.63537600 -0.59769000 -1.73010700
B -1.81165500 -3.12766700 0.46002500
B -2.35321400 -2.21447100 -0.88821100
B 1.81258600 3.12873200 0.46631300
B 2.34732300 2.21540400 -0.88423500
VII
B 4.34628700 0.03158300 0.57329500
B -0.91290700 1.88684400 -2.00961600
B 1.08357400 3.12722500 0.53723400
B -2.56812100 -2.76386100 -0.54086400
B -0.03407900 -2.67708100 0.81458500
B 2.36372800 -1.47980900 -1.54468700
B 0.47097700 1.09656300 2.55478500
B -3.18907500 2.13224800 0.49997900
B -0.01963400 2.29941200 1.59268800
B -0.39060200 -0.95655000 -2.17395800
B -1.52133500 0.16778800 -2.08254200
B -4.61455300 -0.03137700 -0.53400600
B -1.00603300 -3.11776600 -0.63641600
B 3.07069000 -0.03301200 1.65914700
B 0.51289400 -3.56516800 -0.53668400
B -3.11182800 0.04856000 -1.58239300
B 1.75436700 2.51906000 -1.09329700
B 0.69488000 2.13347800 -2.24458400
B 0.20029200 0.60677100 -2.41368000
B 3.94168700 -0.89982500 -0.89908700
B 1.17972700 -0.74094000 -2.29308400
B -3.90029900 1.42003200 -0.77683600
B -2.42621800 1.47968300 -1.69058100
B 0.56263600 -2.10319600 -1.41873900
B 1.94993500 -3.02269500 -0.82541300
B 1.53456900 -0.07140100 2.30723200
B -1.68575900 2.50170200 1.13045300
B 0.07306900 2.86544000 -0.92777800
B 3.43079700 -2.39982200 -0.69147200
B -0.51246100 3.42280200 0.50399300
B -0.77850800 -1.86261600 2.04949800
B 2.37606600 -1.46908600 1.94246800
B 0.82241500 -1.80457300 2.02050000
B -3.71299400 0.56384800 0.81915500
B -2.67202900 1.32319900 1.81606800
B -1.14551800 1.13154300 2.26885000
B -3.39815900 -2.23202900 0.75068800
B -0.22615500 -0.36644400 2.36751300
B -1.75325500 -2.40499200 0.88012600
B 3.47981600 -1.44464300 0.72085800
B 4.21982000 0.75910900 -0.84510200
B 2.64466000 2.81305800 0.31387600
B 3.33652000 2.12424100 -0.95977800
B 3.47447900 1.37701300 0.58447100
B -4.40373700 -0.99605200 0.72388800
B -3.54062500 -1.38826700 -0.71075300
VIII
B -1.42593400 2.04024700 -0.64201300
B 0.19747500 2.23022600 -0.51800500
B -3.02642700 1.92449000 -0.28488100
B -3.76949700 0.37092400 -0.51242700
B -2.06720000 0.45575900 -0.50877000
B -0.44881900 0.68172900 -0.77764500
B -2.84819500 -1.04429300 -0.79806000
B 2.10759600 -0.49687400 -0.81294100
B 0.46576400 -0.68070200 -0.99403100
B 3.64554800 -0.38053400 -0.11837300
B 2.69619700 0.96831900 -0.16537500
B 5.06038600 2.70152900 0.36805300
B 3.45709100 2.50717000 -0.26945000
B 1.75776900 2.29261200 -0.04247800
B 5.96537900 1.29872900 0.61729500
B 4.36586200 1.16430800 -0.01445000
B 5.31456200 -0.21544100 0.10150300
B -1.88557400 -2.38687200 -0.83378500
B -3.27756700 -2.39481900 0.21540500
B -0.22450000 -2.22121800 -0.81797900
B 1.36799900 -2.01111000 -0.46731500
B 3.00725300 -1.94527600 -0.31533900
B 4.45676700 -1.66343100 0.53677800
B 4.05152300 3.92408100 0.35300600
B 2.49887900 3.90635900 0.09142100
B 0.84585100 3.70664600 -0.01800600
B -0.75457000 3.63469000 -0.14381700
B -2.38496300 3.45826000 -0.20496400
B -3.93960900 3.30323900 0.16266200
B -4.33648200 -1.16717600 0.05180200
B -5.13816100 0.21596600 0.50093900
B -4.74685500 1.70983900 -0.29521100
B 3.90164500 -3.32142700 0.23755400
B 2.30697600 -3.44450700 -0.05745900
B 0.70976000 -3.62987500 -0.36972100
B -0.88795500 -3.71683500 -0.47780300
B -2.42546200 -3.85803800 0.07835100
B -5.86835600 -1.28883600 0.84884200
B -4.87618400 -2.64576400 0.78978000
B -3.88563600 -3.86031100 0.67364200
B -5.38725200 2.91358400 0.69135500
B -6.19823000 1.55462200 0.77748400
B -6.69737700 0.03993800 1.00688200
B 5.44288500 -2.98919800 0.56203900
B 6.18648800 -1.58283900 0.79570500
B 6.69115300 -0.05789100 0.99980300
IX
B 1.26372700 -2.73199800 0.78753000
B -0.74843600 -3.30324400 -1.16317300
B -1.32993900 2.83503300 -0.56410700
B 3.04429400 1.31852600 -0.38676800
B -3.07417200 -0.00104500 -0.46672000
B 0.52911800 -2.35976300 -1.76494400
B -2.88406500 -1.68914900 -0.05829000
B 0.74611500 -3.55049700 -0.59236900
B 1.20995500 3.34690300 0.63434100
B 1.99828000 -1.87880100 2.02160600
B 0.41463600 0.83873200 2.72759500
B 2.86965900 0.01664900 -1.51800400
B 2.68319500 -1.76392700 0.54485500
B 1.93868600 0.96801200 2.10780700
B -3.37164400 1.12924600 0.78172500
B -2.79964300 1.76956300 -0.56348900
B -0.27532400 -0.76164700 2.70273200
B -2.43247800 1.01618900 2.10253000
B 3.41035200 -0.31159500 0.11002000
B -1.98398300 -0.67749400 2.44436700
B -2.20139000 -2.61624700 -1.18835500
B 1.50275900 0.34723900 -2.53873000
B 0.74941200 1.98347300 1.54457100
B -0.44872400 2.78834500 -1.98508200
B 2.35762500 2.23850800 0.96752300
B 0.86935300 1.90203700 -2.56522300
B -1.15086200 -2.19183900 2.21106600
B -1.23512600 -0.24990200 -2.67766500
B 0.44663100 -2.21972700 2.25567500
B 2.03084100 -2.66603400 -0.91824700
B -1.97045300 2.20306000 -1.90119700
B 2.31451100 1.56963000 -1.79974800
B 2.78550600 -0.47969400 1.73346300
B -2.48554900 0.60235300 -1.92039000
B -0.84514700 1.88911300 2.08974800
B 0.05965400 0.54655300 -3.16477900
B -2.59272200 -1.95466300 1.57755100
B 3.19348400 -1.50847200 -1.01280900
B 0.17537800 3.45996900 -0.55230600
B 3.40374300 0.96689500 1.22742400
B -3.18115600 -0.49097100 1.14527400
B -0.45800600 3.01816200 0.96953700
B -1.05479600 -1.93674300 -2.16796200
B 0.29649500 -0.99857200 -2.60149800
B -1.25875400 0.63077800 3.07840300
B -2.51104400 -1.04294600 -1.69349100
X
B 3.80668700 -3.31304000 -0.41917900
B 0.94925000 -4.90914600 -0.45825500
B 5.07051100 -2.40994900 -0.60284100
B -1.92025900 -3.33612400 0.26104500
B 2.35959600 -2.53617300 0.31646700
B -0.51343100 -4.12295900 0.10518000
B -1.97782600 0.00097600 0.88495400
B 2.39759400 0.85652300 0.64231800
B 5.19837100 -0.81598300 -0.40976800
B 0.89738000 -0.00023200 0.51600900
B -0.50828300 0.88008700 0.85127000
B 5.19979800 0.81114400 -0.40738300
B 2.36397500 2.53445200 0.31757000
B 0.94593100 1.67250300 0.79370300
B 2.33789400 -4.11041500 -0.24394900
B 0.95345900 -3.34836300 0.29287000
B 2.39751000 -0.85905000 0.64406300
B 3.70721500 -1.62928600 -0.11540800
B -0.50904600 -0.87929100 0.85059800
B 2.34201100 4.10804700 -0.24487700
B 3.81081200 3.30965500 -0.41763200
B 5.07405200 2.40538500 -0.60002900
B -3.40485600 -0.82474700 0.37777700
B -3.40364000 0.82795800 0.37733000
B -1.97708400 1.65339400 0.67610000
B 0.95688500 3.34660400 0.29088000
B -3.29893100 -2.44807200 0.00897200
B -1.97853400 -1.65151100 0.67539800
B -3.29748400 2.45180000 0.01139000
B -1.91704000 3.33807200 0.26056400
B -0.50926800 4.12250300 0.10377100
B 0.95402500 4.90767500 -0.45907700
B -0.48689000 5.53860800 -0.78519000
B -1.88344600 4.88094200 -0.52266600
B -3.32982400 4.05381700 -0.51346700
B 3.70871100 1.62552800 -0.11600000
B 0.94431800 -1.67313500 0.79505400
B -0.49226800 -5.53851800 -0.78451700
B -1.88801900 -4.87933600 -0.52256100
B -3.33356600 -4.05049400 -0.51406800
B 3.87994000 -0.00179700 0.37096900
B -4.62050800 3.17128800 -0.66934300
B -4.80580400 1.62400100 -0.37886200
B -4.76954200 0.00231400 -0.18922600
B -4.80714100 -1.61896100 -0.37975100
B -4.62323400 -3.16669700 -0.67020400
XI
B -0.00002400 3.46345600 1.70490400
B -1.52417300 3.01297500 1.67131800
B -2.90732500 2.21456800 1.57913300
B -3.69302800 0.87133600 1.37876500
B -4.12805900 -0.71841700 1.15157500
B -2.95588000 -1.83525600 1.54760700
B -1.58963000 -2.56192600 1.82642200
B 0.00007900 -2.72696400 1.87692400
B 1.58973400 -2.56214300 1.82629600
B 2.95594400 -1.83542400 1.54743100
B 4.12792500 -0.71844300 1.15166800
B 3.69291300 0.87135300 1.37886300
B 2.90732000 2.21463600 1.57917500
B 1.52413600 3.01298000 1.67135100
B -4.28471600 0.47841300 -0.21417100
B -3.67239200 1.97390400 0.01154800
B 0.83991200 3.64012600 0.20444400
B 2.32830800 2.96828100 0.11762700
B 3.67237500 1.97385500 0.01162700
B 4.92575700 -1.00788600 -0.37304400
B 4.28484000 0.47829000 -0.21391900
B -3.70034600 -1.99947100 0.01155300
B -2.44779100 -2.99255600 0.35512800
B 2.44781200 -2.99262600 0.35488300
B 0.81052000 -3.35332300 0.48299900
B -0.81059700 -3.35348200 0.48319800
B -4.92579600 -1.00783400 -0.37303200
B -0.83991800 3.64020200 0.20442100
B -2.32824000 2.96817000 0.11751900
B 3.70055200 -1.99967500 0.01132100
B 0.00004800 3.65418400 -1.36515700
B -1.58083700 3.45722400 -1.34411700
B -2.92327000 2.58458900 -1.49079100
B -3.90210000 1.35989700 -1.67697200
B -4.43473600 -0.16191900 -1.77758200
B -4.12286300 -1.77882600 -1.64478300
B -2.96904200 -2.86861100 -1.37488900
B -1.58220800 -3.56531800 -1.06985000
B -0.00007300 -3.82554900 -0.96013400
B 1.58202500 -3.56533800 -1.07021900
B 2.96892500 -2.86867100 -1.37497200
B 4.12275200 -1.77877100 -1.64497800
B 4.43465200 -0.16185500 -1.77754200
B 3.90220900 1.35993800 -1.67678000
B 2.92336300 2.58461300 -1.49069700
B 1.58094200 3.45729400 -1.34407400
XII
B -1.81387800 -3.24752900 1.28747500
B -0.24672400 -3.36023900 1.53133600
B 1.27427900 -2.92218300 1.71329300
B 2.58857300 -2.00282400 1.82940500
B 3.52709700 -0.73239800 1.73821700
B 4.09067900 0.82804500 1.49885400
B 2.87581500 1.99799300 1.58881500
B 1.47655700 2.73798800 1.62448400
B -0.08228400 3.11125100 1.51723200
B -1.68381300 3.07510100 1.46860500
B -3.16692600 2.53190300 1.44200000
B -4.48057300 1.60424900 1.37309700
B -4.96178500 0.03768700 1.26571200
B -4.32567700 -1.43164600 1.20662500
B -3.26573400 -2.59335600 1.15054800
B 3.66247100 -1.89534800 0.44335900
B 2.30590700 -2.85258000 0.30772700
B -2.32570100 -2.83908600 -0.30481200
B -3.68875000 -1.89381700 -0.44714900
B -4.43107400 -0.45422700 -0.26136100
B -3.78076700 2.00397800 -0.13183000
B -5.08798200 1.02400000 -0.10777900
B 5.10160400 1.00065700 0.10495100
B 3.79422600 1.98362700 0.12607600
B -0.79484900 3.21190000 -0.04199900
B 0.81691300 3.21269200 0.03830700
B 2.44031900 2.85709100 0.15856000
B 4.43824600 -0.47361100 0.27984200
B -0.83813100 -3.47345100 -0.14440000
B 0.81068800 -3.45665100 0.14113100
B -2.42214800 2.87557600 -0.16289600
B -1.29368400 -2.91885100 -1.71460400
B 0.21976300 -3.37770200 -1.53001700
B 1.78828400 -3.24497700 -1.28955900
B 3.24891700 -2.60810500 -1.14515000
B 4.31391900 -1.45137200 -1.20102200
B 4.97041100 0.00921400 -1.25692300
B 4.48932900 1.57375200 -1.37497900
B 3.18169000 2.51042300 -1.44550100
B 1.70353700 3.06554700 -1.47429700
B 0.10389900 3.10621600 -1.52135700
B -1.45856800 2.74685200 -1.62865200
B -2.85624600 2.00835300 -1.59074400
B -4.07546800 0.84374900 -1.49501600
B -3.52693800 -0.71987100 -1.73477700
B -2.61542300 -2.00801900 -1.83082700
XIII
B 1.58384000 3.51709200 0.05917100
B -1.58140700 3.51753100 0.05905800
B -0.83750300 1.37672700 2.72936900
B 0.83718500 1.37640300 2.72894600
B 3.53655600 1.14351900 1.01776100
B 1.54697200 -0.18819800 2.62987900
B -1.54730600 -0.18784000 2.62966000
B -2.08489900 2.43907000 -1.18705700
B 2.08665500 2.43796600 -1.18704900
B 2.26636200 1.43320000 1.99392700
B -0.00025700 0.01203100 3.02538200
B -2.59911700 2.38727100 0.57248500
B -0.79045300 3.42970200 -1.37800100
B 2.60037500 2.38582500 0.57322600
B 2.94433600 -0.24529700 1.61533500
B 3.20871300 1.20174200 -0.57445000
B -2.94425200 -0.24347300 1.61471000
B -3.53601200 1.14564900 1.01729200
B -2.26647500 1.43499400 1.99402600
B -3.20834100 1.20376900 -0.57508400
B 0.82125200 -1.57884900 -2.75935200
B -0.82194400 -1.57850800 -2.75961500
B -0.85647200 -3.60381800 -0.03694300
B 0.85403100 -3.60365500 -0.03720100
B 3.37243600 -1.77485000 -0.87697200
B 1.56673700 -2.74500300 1.17902300
B -1.56868800 -2.74439500 1.17867600
B -1.60546500 -0.09335800 -2.54519500
B 1.60578600 -0.09418100 -2.54477300
B 2.09273400 -2.75932200 -0.52857000
B -0.00105300 -3.17445700 1.26170300
B -2.17871600 -1.79520700 -1.95236200
B 0.00016900 -0.17604200 -2.89114200
B 2.17784200 -1.79647900 -1.95179400
B 2.95626000 -1.70239200 0.68781100
B 2.99369200 -0.26279700 -1.42785900
B -2.95792200 -1.70082300 0.68725000
B -3.37338100 -1.77306400 -0.87752800
B -2.09396400 -2.75809100 -0.52906300
B -2.99231000 -0.26111700 -1.42726900
B -2.20030300 -1.57866500 2.12763700
B 2.19893400 -1.57986100 2.12827100
B 2.53527000 1.15199000 -2.06956300
B -2.53419100 1.15342600 -2.06984600
B 0.00141400 3.82254100 0.05409600
B 0.79287700 3.42929300 -1.37800800
XIV
B -2.86631100 2.08234400 0.80360800
B -3.78768300 -1.57940400 -0.54923200
B -0.42263200 -1.55537200 2.26865800
B -1.33005800 -2.94880800 0.24649600
B -1.20900600 -0.00046600 -2.44860500
B 1.77027000 1.42186500 -2.37806900
B -2.44367600 2.38183400 -0.97458500
B 0.36528900 2.40278800 -1.85136900
B 3.79498300 -0.00177700 -0.82797700
B 2.59328900 -1.68440400 1.93606000
B 3.19013500 0.84476000 0.55695900
B 0.19228700 -0.81910300 -2.60938100
B 1.85167400 -2.62412400 -1.20108900
B 1.14280600 -0.82312200 2.35079800
B -0.42130300 1.55738600 2.26752400
B 1.18139500 2.47496500 1.77646000
B 3.18929400 -0.84650600 0.55756400
B -0.23815200 0.00116500 2.73368400
B 1.17940700 -2.47414200 1.77838100
B -0.28215000 -3.10703400 1.56818300
B 2.70137400 1.26640900 -1.00152000
B 1.14388800 0.82409500 2.35092200
B 2.16869800 2.23793700 0.33977000
B -3.87627900 0.78410300 0.87194300
B 2.69982600 -1.26877000 -1.00058600
B 0.19308500 0.81659000 -2.60977500
B -1.22697600 -1.56320700 -1.96392300
B 0.36283900 -2.40535600 -1.84922700
B -1.72972700 2.55997200 1.84005700
B -1.22562800 1.56273500 -1.96505600
B -1.32726100 2.94984400 0.24476700
B -3.78597900 1.58168800 -0.55009700
B -0.27964900 3.10887300 1.56656500
B -1.73185000 -2.55689800 1.84142100
B 1.85390600 2.62204000 -1.20292300
B 1.76900700 -1.42477000 -2.37717300
B -2.44623800 -2.38112000 -0.97342000
B -1.03642200 3.08191700 -1.35346900
B 2.16636600 -2.23901800 0.34133600
B 2.59454600 1.68402800 1.93477800
B -1.03967600 -3.08272600 -1.35192800
B -2.86801100 -2.07970700 0.80454600
B -4.15479700 0.00140100 -0.57799300
B -3.87722100 -0.78086700 0.87233800
B 2.68141000 -0.00019400 2.00214100
B 2.82091200 -0.00184500 -2.23756200
XV
B -3.43202200 0.08130400 0.45569800
B -2.55022200 -2.20890100 -0.79587400
B -0.95916800 -1.85958600 2.23743300
B -1.16165600 -3.06683800 -0.20568500
B -0.83264700 -0.12487000 -3.02110900
B 0.51919700 2.60578800 -1.83230000
B -3.22170600 0.57063200 -1.32948300
B -1.09484600 2.41074000 -1.68858600
B 3.07045700 1.83056800 -0.49045500
B 1.96779300 -1.65987700 2.10696300
B 2.03223700 1.76938100 0.91849800
B 0.72913100 -0.30563400 -2.73855300
B 2.44999700 -1.37142200 -0.68100200
B 0.56400300 -0.99415200 2.60411100
B -1.56638700 1.04379900 2.36550500
B -0.42306100 2.44247200 2.09214800
B 3.12652400 -1.12415100 0.94706300
B -0.96470900 -0.40891200 2.93141300
B 0.63343000 -2.54504100 1.83809400
B -0.78395800 -3.24288700 1.37459200
B 1.54086800 2.57485100 -0.55410900
B 0.16395000 0.70033900 2.76892100
B 0.69418100 2.81461900 0.97337900
B -3.36137700 -1.56850900 0.55101700
B 3.46978200 0.34670700 -1.35880100
B -0.04424900 1.24738000 -2.50734000
B -0.40936000 -1.57729900 -2.37213700
B 1.26221700 -1.67260600 -1.77365800
B -3.00933300 1.15368600 1.57914300
B -1.81732100 0.95268500 -2.34001000
B -2.95423800 1.67985700 0.03228600
B -3.58739000 -0.92691900 -0.88172700
B -1.99158500 2.38612000 1.32245500
B -2.15801800 -2.46253000 1.12568900
B -0.11967800 3.36301200 -0.54701600
B 2.22874800 -0.30845400 -2.02778000
B -1.43278400 -2.73962100 -1.80048000
B -2.67808700 2.07768700 -1.53402700
B 1.96253500 -2.50932200 0.74213100
B 1.14414700 1.86029200 2.23653700
B 0.11332000 -2.92396400 -1.38590600
B 4.47340400 -0.44993000 0.29065900
B 4.52284600 1.00338800 -0.32324200
B 3.12095100 0.55426300 0.58801400
B -0.86838300 3.47432100 0.87684500
B 1.63246800 -2.89246800 -0.76931300
XVI
B -1.71241700 2.95175400 -0.75204700
B -0.32097700 2.74708200 -1.67803600
B -0.93794300 0.06885700 -2.81965500
B -2.29193600 -0.24638700 -1.82920800
B -4.29306300 -0.44233100 0.32145000
B -2.72863000 -2.02404800 -1.47625900
B 0.16873000 -1.24634900 -2.76812400
B 1.11061200 3.08853700 -0.76777300
B -1.51072100 2.91798200 0.89601200
B -4.03813400 -1.14091400 -1.06455600
B -1.31201200 -1.42900600 -2.25216600
B 1.16885900 2.04611400 -2.37301800
B -0.30547400 3.41292600 -0.15196200
B -2.83337700 2.05381600 -0.00517000
B -3.03494700 -1.64653400 0.25001100
B -2.40838400 1.63979300 1.64434500
B 1.79706400 -0.78176300 -2.89401100
B 0.82392100 0.46100700 -3.04424100
B 2.44821600 2.27113700 -1.44220500
B 1.27745600 -0.09388000 3.01780900
B 2.74695000 0.27509300 2.27651200
B 2.24383500 -2.75294000 0.79290600
B 0.83280700 -2.60943700 1.68655000
B -0.58760200 -3.06217700 0.68727300
B 1.98476700 -2.73648100 -0.87351300
B 2.77916200 1.64234100 1.29960300
B 0.19808500 1.31251500 2.93885600
B -0.72290900 -2.01827200 2.22228400
B 0.91206000 -3.40489000 0.22161400
B 3.40214200 -0.02673400 0.85207500
B 1.75774400 1.46384500 2.61575800
B -0.43873600 -0.40044900 2.99436000
B -1.98223400 -2.35939400 1.29134900
B -1.41044100 0.85535200 2.77996800
B 2.76014500 -1.39433400 -1.62791100
B 3.58896900 -0.31352100 -0.72638100
B 3.15367800 -1.66584900 0.04669600
B 3.23028200 1.22641200 -0.34132700
B 1.43527100 -2.19331400 -2.27060100
B -1.89137700 -2.77715500 -0.28744900
B -0.95936200 2.27285700 2.22621500
B 2.45217300 2.65269200 0.09703800
B 0.67241000 -1.59343300 2.93257000
B -0.30266100 1.59515500 -2.84338300
B -3.23946300 0.47529800 -0.68347700
B -3.68253900 0.92902200 0.88121900
