46
Energy = -261.09132134 eV
B 8.826707 4.512003 5.053715
B 3.5675130000000004 6.3672640000000005 2.4708040000000007
B 5.563994 7.6076450000000015 5.017654000000001
B 1.9122990000000004 1.7165590000000006 3.9395560000000005
B 4.446341 1.803339000000001 5.295005000000001
B 6.844148000000001 3.0006110000000006 2.9357330000000004
B 4.951397 5.576983 7.035205
B 1.2913450000000006 6.612668000000001 4.980399
B 4.460786000000001 6.779832 6.073108
B 4.089818000000001 3.5238700000000005 2.3064620000000007
B 2.9590850000000004 4.648208 2.397878
B -0.1341329999999988 4.4490430000000005 3.9464140000000008
B 3.4743870000000006 1.3626540000000003 3.8440040000000004
B 7.5511099999999995 4.447408 6.139567
B 4.993314000000001 0.9152520000000005 3.9437360000000004
B 1.3685920000000005 4.52898 2.898027000000001
B 6.234787 6.999480000000001 3.3871230000000008
B 5.175300000000001 6.613898000000001 2.2358360000000004
B 4.680712000000001 5.087191000000001 2.066740000000001
B 8.422107 3.5805950000000006 3.5813330000000003
B 5.660147 3.739480000000001 2.1873360000000006
B 0.5801210000000007 5.9004520000000005 3.7035840000000007
B 2.0542020000000005 5.960103000000001 2.7898390000000006
B 5.043056 2.377224000000001 3.0616810000000005
B 6.4303550000000005 1.4577250000000006 3.6550070000000003
B 6.014989 4.409019000000001 6.7876520000000005
B 2.7946610000000005 6.9821219999999995 5.610873000000001
B 4.553489000000001 7.34586 3.5526420000000005
B 7.911217000000001 2.0805980000000006 3.7889480000000004
B 3.9679590000000005 7.9032219999999995 4.984413000000001
B 3.7019120000000005 2.617804000000001 6.529918
B 6.856486 3.011334 6.422888
B 5.302835000000001 2.6758470000000005 6.500920000000001
B 0.7674260000000004 5.044268000000001 5.299575
B 1.8083910000000003 5.803619000000001 6.296488000000001
B 3.3349020000000005 5.611963000000001 6.749270000000001
B 1.0822610000000001 2.248391000000001 5.231108000000001
B 4.254265 4.113976000000001 6.847933
B 2.7271650000000003 2.0754280000000005 5.360546
B 7.960236 3.035777000000001 5.201278
B 8.70024 5.239529000000001 3.6353180000000007
B 7.1250800000000005 7.293478 4.794296
B 7.8169400000000016 6.604661 3.520642
B 7.954899 5.857433 5.064891
B 0.0766830000000012 3.4843680000000004 5.204308000000001
B 0.9397950000000007 3.0921530000000006 3.7696670000000005
