46
Energy = -261.41324153 eV
B 2.936221245 0.9257304949999999 2.060743255
B 2.791000265 2.134591075 1.0409999350000003
B 2.676764285 3.646893355 0.5497107949999999
B 2.5603282949999997 5.233113235 0.765673695
B 2.551316285 6.635156805 1.524092485
B 3.002456225 0.27911667499999976 3.5166838850000004
B 3.002456225 0.27911667499999976 5.102700545
B 2.936221245 0.9257304949999999 6.558641175
B 2.791000265 2.134591075 7.578384495
B 2.676764285 3.646893355 8.069673635000001
B 2.5603282949999997 5.233113235 7.853710735
B 2.551316285 6.635156805 7.0952919450000005
B 2.698928235 7.621689354999999 5.838936055
B 2.820985255 8.031321225000001 4.309692215
B 2.698928235 7.621689354999999 2.780448375
B 4.5076292350000005 0.5525021349999998 2.687231065
B 4.410938265 1.4895409049999997 1.325146595
B 4.267124275 2.944599355 0.5362884149999999
B 4.136932295 4.559954485 0.3189453349999999
B 4.065936295 6.117241185 0.8359132149999999
B 4.554704215 0.1629512150000001 4.309692215
B 4.5076292350000005 0.5525021349999998 5.9321533650000005
B 4.410938265 1.4895409049999997 7.294237835
B 4.267124275 2.944599355 8.083096015
B 4.136932295 4.559954485 8.300439095
B 4.065936295 6.117241185 7.7834712150000005
B 4.096815225 7.384719835 6.743992935
B 4.281784245 8.121533705000001 5.208238355
B 4.281784245 8.121533705000001 3.4111460750000004
B 4.096815225 7.384719835 1.875391495
B 5.976432245 1.2536554950000003 2.044993485
B 5.872116275 2.381626125 0.9285921250000001
B 5.731405285 3.876668435 0.37738096499999957
B 5.626776295000001 5.476291415 0.4218338749999997
B 5.556361295 6.917222025000001 1.099083685
B 6.0490842250000005 0.6274536549999998 3.516171125
B 6.0490842250000005 0.6274536549999998 5.103213305000001
B 5.976432245 1.2536554950000003 6.574390945000001
B 5.872116275 2.381626125 7.690792305
B 5.731405285 3.876668435 8.242003465
B 5.626776295000001 5.476291415 8.197550555000001
B 5.556361295 6.917222025000001 7.520300745
B 5.642965235 8.078663015 6.405316355
B 5.996850275000001 0.1629512150000001 3.534686755
B 5.642965235 8.078663015 2.214068075
B 5.996850275000001 0.1629512150000001 5.084697675
