46
Energy = -260.99135131 eV
B 5.268331 8.734512 6.052252
B 6.8917399999999995 8.924491 6.176259999999999
B 3.6678379999999997 8.618755 6.409384
B 2.924768 7.065188999999999 6.181838
B 4.627065 7.150023999999999 6.1854949999999995
B 6.245446 7.375994 5.91662
B 3.8460700000000005 5.649972 5.896205
B 8.801860999999999 6.197391 5.881324
B 7.160028999999999 6.0135629999999995 5.700234
B 10.339813 6.313731 6.575892
B 9.390462 7.662584 6.52889
B 11.754650999999999 9.395793999999999 7.0623179999999985
B 10.151356 9.201434999999998 6.424815
B 8.452034 8.986877 6.651787
B 12.659643999999998 7.992994 7.31156
B 11.060127 7.858573 6.679815
B 12.008827 6.4788239999999995 6.795768
B 4.8086910000000005 4.307393 5.86048
B 3.416698 4.299446 6.909669999999999
B 6.469764999999999 4.473047 5.8762859999999995
B 8.062263999999999 4.683155 6.22695
B 9.701518 4.748988999999999 6.378926
B 11.151031999999999 5.030834 7.231043
B 10.745788000000001 10.618345999999999 7.047270999999999
B 9.193144 10.600624 6.785685999999999
B 7.540116 10.400910999999999 6.676259
B 5.939695 10.328954999999999 6.550447999999999
B 4.309302 10.152524999999999 6.489301
B 2.754656 9.997504 6.856927
B 2.3577830000000004 5.527089 6.746066999999999
B 1.5561039999999997 6.910230999999999 7.1952039999999995
B 1.94741 8.404103999999998 6.399054
B 10.59591 3.372838 6.931819
B 9.001241 3.2497579999999995 6.636806
B 7.404024999999999 3.0643899999999995 6.3245439999999995
B 5.80631 2.97743 6.216461999999999
B 4.268803 2.836227 6.772615999999999
B 0.8259089999999999 5.405429 7.543106999999999
B 1.8180809999999996 4.048501 7.484045
B 2.8086290000000003 2.8339540000000003 7.367906999999999
B 1.307013 9.607849 7.38562
B 0.49603500000000017 8.248887 7.471749
B -0.0031120000000001294 6.734203 7.701147
B 12.137149999999998 3.705067 7.256304
B 12.880753 5.111426 7.4899700000000005
B 13.385418 6.636373999999999 7.694067999999999
