49
Energy = -289.20549638 eV
B 6.67147658132021 3.7429333936293285 7.174533376725138
B 5.383537313516476 1.2847454818878075 7.167169258687978
B 5.0857754544834455 7.956708309712975 3.6493563879436843
B 5.012939519545342 1.7975197004503811 3.013479634495081
B 4.928008960397722 2.8891981177438315 6.526596702886754
B 3.6895776287800124 1.7058667842153947 7.0421931811839
B 6.108199435982373 6.9210422892191374 4.719564000736731
B 3.7571845192348174 6.990282267620458 6.584499902881388
B 2.6391761085115384 6.143854783251612 2.753109726103133
B 4.596028055306061 2.7025733814971016 4.717861590460158
B 4.237880388337423 4.019205972954549 1.6834602592075643
B 5.613400148461995 5.425073792725871 5.521634027847164
B 7.282577988054861 4.741617701987778 5.940511965869969
B 7.572121765700083 3.821855464963556 4.262044707937865
B 1.715214355804802 2.9783770711324586 4.962648071422652
B 7.564281716177873 2.8899857987030706 5.503583970290059
B 5.119539934846094 3.871483860927895 3.5765449099668234
B 3.508227671357023 6.751261599288576 1.3833452827778048
B 1.7126059655196528 3.780888614898913 3.555312894860739
B 1.6435517648112268 4.6996390010920575 5.111688575915756
B 7.0005224833430955 6.370054606390725 6.112072904497556
B 4.578886930896282 7.920216376909857 5.263461038323994
B 3.405271649008271 3.297032127132419 7.457783532598477
B 5.436783135728808 5.593584495429961 3.7521101384071605
B 4.753774042728932 5.639059807175625 1.0370774787087147
B 3.548223890729936 8.447925101060266 4.087844866926667
B 2.219631325326895 6.281986589420429 4.387441007496677
B 6.668099874442475 4.290672075246701 2.8770691046991548
B 4.236824887904016 1.0451308183851666 4.15667527015585
B 4.93503316037328 6.922981478380494 2.231836784350971
B 4.565079962995764 5.621800056720114 6.991828294477505
B 5.57009404545896 3.0447985846750085 2.1260868701303304
B 6.802825931313132 2.041184581190172 6.746380105613535
B 4.405542705786199 0.9388954847506654 5.768227783544419
B 2.84910300793487 7.569979174500737 5.36757950217536
B 4.832027832150426 4.131013297952309 7.818603284776409
B 5.809513450081955 4.424101684450347 1.2014136688089456
B 6.2956172478971295 5.848988029025078 2.0089973272007877
B 5.849095004448037 2.646738129901515 8.031654331132168
B 3.0069945121869814 1.8176144416131086 5.0976537136061175
B 2.8108615823861776 4.371597167039258 2.4888855847960136
B 3.773690887452224 5.246699612133896 3.805242453877589
B 3.2576883538602663 5.398304314313337 5.585346904841984
B 5.9397353480663115 3.700089956916734 5.260657679991615
B 3.242202735024419 3.782064401548458 4.519872417766542
B 3.4915474608015997 7.840016882716625 2.5540825018963234
B 2.355158798877493 3.9644921830115654 6.34835295777613
B 5.569381796830458 7.066963308256928 6.436580347749465
B 6.404810607390293 7.077199286979298 3.08537164304706
