49
Energy = -290.47235828 eV
B 2.3324354392829627 6.228267077204937 1.9882193888123343
B 5.0355702947754954 7.1532019140387515 1.6151893641396113
B 3.4981166172877334 7.189066857123368 1.4348411623910142
B 4.070062049865202 5.607013079120054 2.090709956662329
B 6.137998412582992 7.334263310350907 2.791052214907435
B 2.564694304758448 4.7852242680841615 2.7211078398693256
B 7.176543215325079 6.259481676982851 3.6893835429181525
B 5.807152346049151 3.3988851672603526 3.498722143082284
B 4.497189410691258 4.057983770116423 2.579322645089462
B 2.9723625300428314 7.382296174666197 4.040823113728623
B 4.406431289257392 2.5745547107747764 3.2790513128450627
B 4.463665421662504 7.206039764819502 3.3085677831097535
B 7.045312602073319 4.664155324766725 3.9361248938950206
B 3.6914582308891983 5.657343000373201 3.9045034402651098
B 2.8895485644427814 3.295357179722759 3.333918858625495
B 1.8645909126934745 6.154700438025325 3.652135771132994
B 8.495877791760565 7.184316024664635 4.514988137082258
B 7.281837302900348 3.0933279362097896 4.334205604669642
B 4.414728600535243 4.747384024098002 5.168950368723236
B 4.808838566014768 2.92810933461805 4.946331718381024
B 7.543832224434482 4.259227029767714 5.523418197126135
B 3.215447527450806 2.1562240974164912 4.487402200725387
B 7.281102855958199 7.99090277006759 3.8675570151531224
B 5.7029306368918755 8.250761456143735 4.240910403707173
B 2.929516862314471 7.860908449956518 5.71073957468301
B 8.698844654760004 6.698638345205553 6.005235498606303
B 7.213084192577147 2.570477235194611 5.839845245841207
B 3.6490592097384558 1.8429175804105575 6.0140676080818185
B 6.920826354784267 7.087129122174163 5.385444914462082
B 3.21770482814456 3.5867135240159866 5.450000005114229
B 1.8287468148489905 6.6622755864588985 5.13490334898773
B 6.074682468137659 5.429586019496029 5.314403096280775
B 4.24015513957555 8.365152948666527 4.88619892089419
B 5.084313508197403 4.913810527769605 6.711644172978798
B 4.29168906170401 7.417227645671915 6.439263601400439
B 5.5690268125810105 2.3324920191192646 6.471098089953914
B 2.8090589168655096 6.453666312334054 6.497372708000933
B 7.056578927685225 2.2875442586080132 7.4554638527060595
B 8.36811270040906 5.226461267274404 6.788061450330235
B 4.146851167921876 2.021292800895196 7.514989847516898
B 5.818983211614635 6.746595903454255 6.73426292478591
B 3.2793404472895173 4.8683014779379326 6.665592330045592
B 7.490318352295637 6.776610187246521 7.071466450554358
B 7.853624235449872 3.7713441901441103 7.2150123227531
B 6.6484194424800584 5.22681433385133 7.256181062723091
B 5.710407847069471 2.0079059545460036 8.259133451926923
B 4.575967021626026 2.9797283539966934 8.912460662307517
B 3.8041917852076037 3.8709695301452367 7.853029753607675
B 5.822854931306682 3.737436081221773 7.766778070625523
