49
Energy = -291.51856619 eV
B 4.6677096738151045 4.224402855242096 3.135125374201745
B 8.229217809740675 7.5517768953533615 3.1225843239874185
B 6.031016759743031 5.3626535431419535 3.11328536555642
B 7.116550986391851 6.525306404418926 2.638254795731959
B 6.728679491661267 8.21505245115733 3.4313540221716714
B 3.3360054455238255 3.1367678311931724 3.65181668700958
B 8.773148488187825 6.05584682157281 2.9876909173292012
B 4.506507518758536 5.775232796826261 3.981978311407803
B 6.220419458199375 3.6065335017868914 3.478979194448887
B 7.156785675274073 4.4196964921886694 4.64489249474775
B 5.170138484906779 8.498872058417026 3.9163595914622045
B 9.126740907709397 5.030368887408568 4.201658994548989
B 3.8784414139955485 7.523189603998261 4.059493605090182
B 3.1193888321139043 4.699752158039784 3.6287999591986972
B 2.82395855903983 6.205705153298342 4.280435724973039
B 7.912395903646719 8.290086656867217 4.648091560011787
B 3.6451068841630274 1.8557737588177032 4.558365358882435
B 5.055027866192358 2.633632225705353 3.9479956817717285
B 6.344054557766474 7.723982561565227 5.083175469993698
B 4.900617405032412 5.2627220607447525 5.728676513548323
B 8.928457102794926 6.859371463191109 4.509250877675675
B 2.4138441137093403 4.243620794498636 6.466968547277434
B 5.783485236766939 3.6210635981031976 5.350043508505737
B 2.970319831392398 3.182359546814391 5.379751765354347
B 4.804330444232804 2.1033004800587727 5.672746280372027
B 3.1061736622469414 7.427931087606708 5.543710874329813
B 5.62755514557386 6.7147253763065295 6.284939103423559
B 4.703226890458161 8.151025041973586 5.587774446708248
B 8.304551776051609 7.4941249816025985 5.9769719461745625
B 6.177161814184326 5.908457621514851 4.8184953698153805
B 7.336602116812413 3.4095146330814483 6.261295889434382
B 8.713681787789863 4.055928917260813 5.460040158816384
B 5.8911383445363725 2.559341326937669 6.810307317265021
B 2.2788360704403146 5.960733059960513 5.857056647605968
B 2.3096363974690464 5.519477964598886 7.458465868433886
B 3.805390791366591 8.139847153734776 7.070130105342996
B 4.751582875068408 5.292389774420512 7.480846518791227
B 8.139218602169786 5.732210026798002 5.582323935176661
B 7.854938288732423 6.436751015487696 7.177845962560541
B 8.208198908540263 4.755062697929438 6.963929798741889
B 5.425775095313295 3.7001333403115 7.971984675724235
B 2.390043708640724 7.124198403508829 7.0320093677420195
B 4.466274673207724 3.853278531092897 6.535082459722001
B 7.398464347941604 5.21797680518907 8.256316560163382
B 4.853193725918496 7.69654541316463 8.249722025764777
B 3.5670896562717407 6.509012160209086 8.110176636690504
B 6.23198264671819 6.533268906111857 7.894710071325981
B 5.914568836755022 4.953257047202581 8.933659135202477
B 4.90305077755557 6.24842390410511 9.065115990305738
