5
Energy = -21.02335391 eV
B 5.820159106883295 6.394986444776706 5.86021135921371
B 4.987929059266421 7.650200992967378 6.2859589438225925
B 8.245102776519873 4.9523707312634215 6.5223696051838695
B 7.160270470426123 6.1281940702805295 6.710508887216101
B 6.286538586904369 7.374247760712162 7.120951204563695
