5
Energy = -15.58706104 eV
B 6.022765281539289 5.711966773027812 10.092614614337931
B 7.231884879066057 5.515427848338044 4.289155164761713
B 6.150487484126268 7.053841770695321 9.315054702178173
B 6.0310051009044825 5.781804718800138 3.384814961856046
B 5.3634782098765905 5.865781171965256 8.690894252650954
