5
Energy = -19.11514419 eV
B 7.755318164139492 5.048858391721865 5.611836561720127
B 6.829951321024319 6.039517221718985 6.368376522008491
B 5.212068349708534 6.810917030823045 6.199224020344959
B 6.770975688367937 7.802420772658247 6.723434223193047
B 5.93168647675965 6.798286583077678 7.597128672733198
