5
Energy = -19.20242909 eV
B 6.507675420214068 6.514897079465414 6.447616996958591
B 5.371050202928494 5.83488188587715 5.615009562659095
B 4.221915701737141 5.150448557988579 4.84262611180717
B 7.630329313688736 7.163891749039811 7.324066378928812
B 8.719795971525828 7.786647337723187 8.221447559740595
