5
Energy = -20.78791346 eV
B 5.255199539391497 6.387447007047993 5.941451682764076
B 4.672177955905388 4.819561211170884 4.874628228030232
B 5.676151915427626 6.00814692994703 4.419563452895696
B 5.152639693359856 4.839922610732036 6.422497849346965
B 6.351570432962439 5.05266177814921 5.449598324009954
