5
Energy = -19.1989391 eV
B 7.178665173677458 5.240266998918165 6.769500392284348
B 4.812762364101611 5.462634095504278 4.687922497076824
B 5.364871516195116 5.2655350185039875 3.2374527124199712
B 4.209036916513171 5.673375875207532 6.068483612258466
B 5.6917037287546215 5.432725542103872 6.324974967143456
