5
Energy = -15.58882694 eV
B 7.68891685320982 4.463262311143167 3.503019616266677
B 7.177529278570225 4.9584794897310145 4.85553783224827
B 6.662315022754462 8.11192000020113 7.808645644149894
B 5.12252811249355 7.936166339918004 7.678488625892093
B 5.915072923496702 7.096534049531711 8.720670471967956
