6
Energy = -28.55632157 eV
B 7.512316884205728 6.9904604132558665 5.63642927502493
B 6.227389192296774 6.050161153406324 5.711629512986719
B 4.9366466291799105 5.225539909337807 6.174953987424102
B 8.065864200116295 7.771175343841766 6.827315907929755
B 6.770870924741939 6.9507003936087095 7.286219590117931
B 5.486912169459171 6.011962786549801 7.36345172651638
