6
Energy = -25.79508092 eV
B 5.661152564140503 6.152194318470042 5.004335635933759
B 4.966781897214171 7.139745541571164 5.987948503360567
B 4.281471721281101 5.7498970920478545 5.86849375190699
B 4.610510727758052 2.0310531002729344 3.2113283480853085
B 4.9472906977420195 4.714616034580924 4.812725070433436
B 4.819285923700815 3.32219814143838 4.034664069588385
