6
Energy = -28.40336484 eV
B 4.601362202476537 3.765379372410944 5.125548458319007
B 5.238355310332097 6.103208101258873 4.7307631224438165
B 6.155047432041918 4.8128183344940165 4.907453993541015
B 3.768079485248978 6.586894029860182 4.745996729085961
B 6.074841852441306 3.282536970475232 5.132207374805763
B 3.688993303920723 5.064312935751747 5.004138596466079
