6
Energy = -24.68498695 eV
B 6.250675705946603 9.706515120740839 4.391685436375669
B 6.449271855835455 8.4785763408521 5.310400856417859
B 6.65406784578326 7.202975835182428 6.160253257000528
B 6.703763101402845 5.876632257540286 6.957915448786327
B 6.576909700576259 4.535396766965486 7.715307202005306
B 6.360870303101989 3.1954621913652668 8.459996312061136
