6
Energy = -27.74702316 eV
B 6.202861992792611 5.498039218052696 4.604164588452539
B 4.582729118037089 5.232085413591624 4.3066395072683195
B 5.28399788821599 4.691224654067696 5.712563905999679
B 6.773908776570127 5.275066019675342 6.156118668057753
B 4.260054902813572 6.063971836636465 5.600707703325836
B 5.534981719107986 6.088646180554439 6.677645239050103
