6
Energy = -28.12046897 eV
B 5.973266296503536 5.327425365731068 7.9608287143642835
B 7.082807807316334 5.219764748526022 6.9206377162441886
B 7.415995155836923 6.276420021378394 5.795620040309585
B 6.042761549113865 6.6493572386333994 6.9091590649225925
B 6.908292368663744 7.662581495365001 5.289550061182218
B 5.753621329501775 8.060349089735219 6.202025178121347
