6
Energy = -24.92772371 eV
B 6.6916772621784055 8.593344229588203 5.951917909658668
B 5.469170728436989 5.734788227491596 5.563566127899488
B 5.273912182598607 4.2375721873086025 5.230772836779467
B 5.712988235862152 7.269809112202115 5.896622926487476
B 5.17336223463642 2.7419909763821404 4.873943004773168
B 5.248694537537929 8.704393620734301 6.422302830098147
