6
Energy = -27.55783394 eV
B 6.195238442370752 5.246971357618178 5.699373257016138
B 4.673687203283515 5.76509186401609 5.284167437743586
B 7.618293662012148 5.285704845913731 6.321652484540219
B 6.9491767746181745 6.595010680187952 6.757443926337038
B 3.767936217999365 4.8773387497860075 4.404728625505707
B 5.508571284890906 6.7742497975421685 6.190910775190554
