7
Energy = -31.6554853 eV
B 3.5079342227306625 6.519963866847164 3.817375419629284
B 4.245099117167158 6.602446873628855 5.162354715002691
B 5.598082052420426 5.642903693849633 5.288341460286408
B 7.1115195858481295 5.457254105752387 8.028923860264232
B 4.802053630479775 5.63216771558968 3.9300749686918794
B 6.6456524526652 5.334182365049498 6.491070870721391
B 7.957396263576725 4.615357112275197 7.095943055018461
