7
Energy = -27.55148011 eV
B 5.974222478524999 6.019710035077371 6.081202771953875
B 5.529931300766196 5.064677120985693 7.271467177709587
B 6.461937833899171 4.265636717142165 6.288323989982966
B 7.052590231501657 4.985648021094817 5.027830529082865
B 3.3481245819787273 4.859194767531126 3.3825520292485294
B 2.150682652570237 5.371990233353605 4.278160865719473
B 6.719802906603196 6.500558974426732 4.762096813245272
