7
Energy = -34.57169878 eV
B 4.893258512570111 5.773663249535266 3.911725368835826
B 4.155744220557764 5.441336832316866 5.429383759169176
B 5.578928014794813 6.390354425434049 5.264025930643853
B 5.954428529288379 4.77127942996431 4.8102218750254835
B 4.838461479366479 3.901610139268431 5.7829667549472035
B 4.4211166489446 4.239669219701366 4.236116722752515
B 5.546817268234169 5.231694335526017 6.416088303853747
