8
Energy = -41.31725573 eV
B 6.674709520183806 7.149612031800207 4.708120743868296
B 5.386668395512825 7.135041404674027 5.567363359398131
B 7.788316883824449 7.079806460643647 5.783760751630077
B 6.539951137661823 5.793516558393258 5.874333898216881
B 5.425263247821981 6.72608340733052 7.107502014054179
B 7.463421652543992 6.667152902200956 7.287868871668074
B 6.392530445286583 5.142927923371764 7.305958198845667
B 6.329138717165049 6.30585931158589 8.365092162319199
