8
Energy = -40.63619774 eV
B 3.2704789283836395 7.383568381334676 6.160540542319353
B 5.667731145161756 6.254484613383439 5.324660378675098
B 4.84334439773727 4.693101825791055 5.255009764036095
B 3.98413818334802 5.968684249139609 5.717845713439947
B 7.252562949463224 3.560084911638229 4.459474663930475
B 4.747666674545964 7.480156802962758 5.7745171730393245
B 6.534126644474456 4.977816113227795 4.877021889464454
B 5.761677247090943 3.470902669945557 4.790419289115124
