8
Energy = -38.80273841 eV
B 4.099474665986914 5.378353671013132 4.519723455596131
B 5.027962413296013 4.131777478671924 5.379239063474748
B 4.100342489100849 5.378324903686069 6.23986479117577
B 5.0265695477261065 6.626077408707304 5.3792599808696195
B 5.717080551346934 5.379248638577307 4.337022495769922
B 6.6719321443924136 4.405768682056586 5.378423462882955
B 5.718135534465322 5.379232939263038 6.420836977102598
B 6.671078364100111 6.353534675580848 5.37846279640064
