8
Energy = -40.23305845 eV
B 5.738503096196953 6.181909876244035 5.877520134777055
B 3.5384607132213093 3.816769009841478 5.498455705736815
B 4.728002138997033 3.8491248430324245 4.549062759090925
B 6.995049887684254 6.086599185788788 4.713051088242115
B 4.587233854641902 5.031444963009281 5.768862876232334
B 6.127261586885332 7.553353809655384 6.902104022487818
B 7.065699832047359 7.248900006562225 5.7171006118349945
B 5.888413851104227 4.939869105516149 4.5917000318863375
