8
Energy = -37.27020376 eV
B 8.208672230000001 7.604678106632771 6.374027945106819
B 6.049295633134408 6.653289756501636 6.374027945106819
B 7.604678106632771 6.049295633134408 6.374027945106819
B 6.653289756501636 8.208672230000001 6.374027945106819
B 8.208672230000001 6.653289756501636 7.883939918027587
B 6.049295633134408 7.604678106632771 7.883939918027587
B 6.653289756501636 6.049295633134408 7.883939918027587
B 7.604678106632771 8.208672230000001 7.883939918027587
