8
Energy = -38.37079522 eV
B 3.4065316794017697 4.670788390588395 4.159674679016948
B 4.821443654883362 5.809321362351485 4.376725615221607
B 4.056655927312718 5.297002667054386 2.784805573541736
B 4.1162676178171145 5.010764002281023 5.653529434564968
B 5.741889509200867 4.608157517962697 5.0644780809135925
B 4.410473401970918 3.355452972852905 4.750520943111094
B 5.18669037336681 4.277158014938488 3.5307221992327213
B 4.876015583167965 3.5873228190918574 6.29551122151871
