8
Energy = -40.07200061 eV
B 2.942843474277951 4.696575908351181 6.793338836554163
B 6.569911261115527 5.00324270659409 4.421756893190433
B 7.588649452107882 6.193859695441436 3.932920907542385
B 3.8813378333200936 5.817911076216941 6.360058401437702
B 6.372593339610497 6.639926035359589 4.739488043170894
B 5.21375650068732 5.7062418030387505 5.415395423003273
B 5.496088245007161 3.987868658265242 4.973878102883041
B 4.214447192721551 4.255565565013088 5.849762059000034
