8
Energy = -37.44469327 eV
B 6.162137038561685 4.889774438340943 4.702702835229984
B 5.724337328098273 6.249140679486679 3.851546151284937
B 5.315520888269613 4.263285428914972 5.909815999496735
B 5.7240200486461985 4.83349297201548 3.1066850298328332
B 4.2865619006376585 5.4369413518861744 3.6679760375887693
B 3.875122504358123 3.4706686056664613 5.741153726116466
B 3.8837184800527 4.897858052037078 6.469199574621767
B 3.4364118717683207 4.803308967903227 4.8689966020116335
