8
Energy = -33.93397308 eV
B 7.110039814301752 5.018220651503659 2.7816699075850786
B 5.406306169287206 2.790135372523892 5.541808906657179
B 5.19020906083306 4.32778215573251 5.243761687518569
B 2.7793423837488263 6.125032235255644 6.164667231023327
B 4.041591633185075 5.122174759586927 6.1193365541331985
B 3.3558502576669342 5.65170287410873 7.477838035251684
B 6.67720635281595 6.337703993148454 3.380693705147794
B 6.117374307429822 4.986750438656372 4.056813874276856
