8
Energy = -42.37612062 eV
B 7.344293269205431 6.9885070352608185 4.988077281367044
B 4.951149191534959 7.412685876383132 6.40657684165282
B 6.338989617192371 5.5963884764834635 8.046491827508707
B 8.121599678878368 5.993671265678153 5.90634049566606
B 7.675344495296867 5.377544247488179 7.2709824183251275
B 5.123931074235012 6.498706783461806 7.660049962377331
B 6.497581116781299 6.496722622514845 6.497925685563285
B 5.9387584020817075 7.627420537935271 5.215202332745409
