8
Energy = -37.99328984 eV
B 6.282144375441983 5.973301149750335 4.358785149265707
B 5.239150849073009 6.494394359280513 6.386488474090113
B 4.723774247694479 6.24244804962738 4.8380901409333115
B 6.444342423394189 5.582408825732176 6.814756894644521
B 4.153750087548124 4.695066973353073 4.884888047187768
B 7.173523629516478 5.251643633037928 5.431500952274547
B 5.581323502852508 4.718153452163159 5.6574114121749535
B 2.9801416956778715 3.771822408087368 4.418901815277391
