8
Energy = -38.89460985 eV
B 4.871810259965216 6.659087116318615 4.369814271305671
B 5.27108542479085 7.394751788590762 3.06539916037215
B 5.400932765130784 5.245425862512607 5.223161911079726
B 6.4334436224313265 3.9952255802569057 5.206360365777874
B 6.567586726961693 2.881864986204271 6.25196927430418
B 5.4235827025693135 3.981042583688178 6.6028455804445825
B 4.141871063075598 6.329568023311703 5.67508951827976
B 4.380235312846316 5.155855001333768 6.676164534501224
