9
Energy = -43.08448726 eV
B 4.587997514733213 7.170824765945826 5.620566096877401
B 6.007268418293355 3.2189387545386206 4.42264997881298
B 6.950109491234924 4.44816572726088 4.6553468177276995
B 4.529297399790492 2.750510629771831 4.4456290953996955
B 3.181420308998699 3.4141288700125796 4.758027408873017
B 7.03698459504168 5.954915910773124 5.044885363803042
B 2.762769836436935 4.840112795330348 5.184404102007972
B 6.116581038620733 7.117393243311315 5.450126365117901
B 3.3199541604226863 6.265112051465236 5.509748187975065
