9
Energy = -43.54258138 eV
B 7.615076270892466 4.137643976313609 6.658464827659928
B 5.999202766263117 4.3664595202237715 6.339783579433476
B 4.615153742818526 4.87124126161739 5.769391699447327
B 6.1081528783385926 5.153720468603411 4.577601373194593
B 7.360058255034558 5.328052627094707 5.714573538305423
B 4.806311976691821 6.255698325334347 4.648095828687249
B 5.963937481958919 6.261924270753352 5.893174517142099
B 3.283647252882672 5.52432231010799 5.069299679168635
B 3.263549796364072 6.709282595597884 4.108527673643191
