9
Energy = -46.78768608 eV
B 6.31756487865709 3.746855627519036 6.562048137685584
B 6.06222343483915 5.1021692042880336 5.581328760653217
B 6.17529677287883 6.625555962629801 6.467159993951072
B 6.540623868032113 5.185412527665336 7.19467119029153
B 5.347156315064219 3.583237519888543 5.349236625757948
B 6.395117879993001 8.296618487154788 6.5872131887282706
B 5.473481643728867 7.844419937861863 5.44444716556247
B 4.62317533087082 4.8470393031439025 4.733953045218293
B 5.021710818920648 6.4029206495297375 5.011324113591853
