9
Energy = -44.89040533 eV
B 5.992006434480754 5.361620359876886 4.457125492578215
B 5.114988047342702 5.138713580876853 3.0248398072645815
B 5.553929085265261 3.9635699721203177 5.565290296411249
B 6.020129126654841 5.763806912703071 6.000320659203496
B 5.290700837235353 3.8795006056674644 3.9570165464360887
B 4.485508970267158 5.356192480067799 6.0958321876194175
B 3.9334585639082236 3.868575741360593 5.447575660715
B 3.8594128430718926 5.220448258718968 4.025065303216183
B 2.974354119366035 5.11727617865051 5.362562601596696
