9
Energy = -46.60424536 eV
B 6.231744355893832 6.3743423987877454 6.290910009312255
B 6.260306971732535 5.6012281343503645 4.895380908680658
B 5.111825171234857 6.1456086380190875 7.348444632392446
B 5.475901154050872 4.713169808424674 6.501740915240427
B 5.61079651223611 4.360380010464362 3.783140829954598
B 4.084633794469966 5.903931209918975 6.200634435794401
B 5.656860484276984 3.8157652527676684 5.254437023876394
B 5.318567513783227 5.872597397629152 3.442017770522491
B 4.429873130241713 5.25228644807539 4.7876164994927715
