9
Energy = -43.79433832 eV
B 4.463477780113189 5.5272114790421885 7.354781680591824
B 6.236402561357448 5.400585098292755 3.8272166931587326
B 6.103240267727207 5.494156908090521 7.104946951182354
B 3.6904063498714463 5.425814655655331 5.890547869970831
B 4.812828723896157 5.349311149092834 4.681981563308235
B 6.9874329792457734 5.58521135263304 2.4754213094782855
B 5.063183696862342 6.371346065926345 6.113469667726126
B 6.409048687626754 5.395380940657732 5.486169981426707
B 5.0600603134365 4.506210162866402 6.228364300251914
