9
Energy = -46.59586624 eV
B 4.47575538082554 7.625216969373627 5.505207357264595
B 8.466325772922817 5.032023578596346 5.9293307459149975
B 5.8032182692396646 6.791152836993503 5.602429895556603
B 7.172258110354283 5.902705405186103 5.747563636019842
B 3.805886616690112 8.273688836613779 6.74760622695737
B 7.88216532385267 5.8106126727449405 7.358621082159559
B 5.18289585019169 7.527352335916378 7.080004892777363
B 6.544436403299492 6.685430568745062 7.211449182662213
B 9.156520795179228 4.841279318385758 7.3072495032432165
