9
Energy = -48.01143669
B 5.229312383657246 4.4043790446842275 5.9962570063181015
B 6.762643438882231 4.404313056446885 5.9962570063181015
B 7.377781344746102 7.097798964236681 5.9962570063181015
B 5.996470531900988 7.763289977139289 5.9962570063181015
B 7.718917162957023 5.602908839074749 5.9962570063181015
B 4.614887337422334 7.098177020162314 5.9962570063181015
B 4.273569565593227 5.603383962422439 5.9962570063181015
B 5.996365645851829 5.9960310963482755 5.144478997080133
B 5.996365645851829 5.9960310963482755 6.8480350155560705
