19
Energy = -24.39607661 eV
Ba 12.478155723245404 8.273278387987315 16.194718026948077
Ba 8.700808185019882 8.383332665884907 13.743988423231164
Ba 15.021724158416967 11.800231871305733 15.045133282883675
Ba 12.031240973968613 7.538784951580377 12.535436218944147
Ba 12.473709417702084 9.743847829730427 12.330220844114015
Ba 10.515772623035048 12.253285837967407 15.248069611618057
Ba 15.954436617903756 7.74430482934007 13.343757281601347
Ba 14.295407191744086 7.5387849515803795 9.221658979057167
Ba 9.806416758976141 8.066777320936799 9.354341680005719
Ba 16.079332258529636 11.453247437632776 10.645599719761117
Ba 9.060786798760374 11.909733145475224 11.17532659048952
Ba 12.77170122686079 13.91744309881339 11.944878190643738
Ba 12.359163299065546 11.494580042044445 8.320332043966372
Ba 8.10609961141084 11.782414412233727 7.092849898893365
Ba 14.627744915576502 15.30415573034569 8.459375220662569
Ba 9.046215140839783 15.87569856657597 12.843074437128976
Ba 7.808994986725542 14.3853821687259 9.955200763404763
Ba 10.191015419340388 15.350407169114169 8.697801750866626
Ba 12.719590753340746 15.87569856657597 11.37138265625983
