14
Energy = -16.83077363 eV
Ba 5.040738133361972 5.648001457722185 5.520146145740525
Ba 8.00666763555564 2.408785921160031 6.602293316131088
Ba 1.1466993579594578 4.821404307577402 6.819074686921446
Ba 6.5474322911646725 9.509125674044647 6.096062228135904
Ba 8.883983641968634 5.623537171962893 3.962641212070536
Ba 7.960632383176357 6.1828364849229605 8.57365730749807
Ba 2.0131298067768677 5.243450106746815 2.5474505204063065
Ba 3.78200331331149 7.629189834047028 9.036828417526355
Ba 4.605659879729546 3.272924865060657 9.026504725206195
Ba 4.332291856432493 1.673854984258332 4.587214821343277
Ba 2.2522365722807 8.80702911889402 5.19035287904415
Ba 5.369768481303918 8.155214351531802 2.0906324282212427
Ba 5.922041942809943 3.98419759808243 1.384016909912933
Ba 8.421659836669528 1.3253939354637465 2.8480702133161238
