17
Energy = -21.29911803 eV
Ba 14.98076786865278 9.84149223853603 10.200573859136597
Ba 13.502325218485604 14.047144448799767 10.311125340511753
Ba 12.147177500490288 11.498221363129833 6.860769415032722
Ba 14.980767868652778 8.528639631756153 14.233247764541538
Ba 8.446560516994603 12.94909712490727 6.205429985736251
Ba 13.588974327244832 11.602405288678344 14.02550899907827
Ba 11.604707686796722 7.389390940553473 8.504387241724714
Ba 9.229072156252549 14.118045669384891 8.811952074218082
Ba 8.086903560245425 10.015487160766252 7.7785774058603385
Ba 10.859983688656973 10.800326207499033 10.885406706833356
Ba 10.01204584342071 14.24405244384018 13.21082341143251
Ba 12.536069782147791 7.472919063606133 12.958723107724579
Ba 6.728750360571828 13.23970459306111 7.581237303643555
Ba 13.254737307261607 8.51664588343696 15.480754821758385
Ba 6.728750360571827 11.735086363503934 11.572703571832315
Ba 9.559877905702487 10.104770809834422 14.926499507348263
Ba 8.297233374653795 7.495307989238914 11.508887257463343
