15
Energy = -18.04456381 eV
Ba 6.209361879531306 8.365059909666154 2.6365707661026745
Ba 5.136268552257434 5.515488963090623 5.440814419092031
Ba 6.360018190752769 1.4174776516740863 4.405831517340918
Ba 10.61059416900753 7.415415139906425 5.0586528183866255
Ba 8.81495646818228 3.978380710198909 6.580100963847637
Ba 3.264111052136641 9.420106321516492 6.149145906551021
Ba 2.28014338345888 2.4523106807680866 4.928424453763305
Ba 7.3464692108791825 8.747064409854431 6.839436900266921
Ba 4.755565310725605 7.330460521302857 9.65576870262664
Ba 1.4306332326588773 5.72064023303572 7.628604479036532
Ba 8.847123748177264 6.249832866673995 9.801305160733186
Ba 5.2106683959577325 3.041375462323981 8.748865100733628
Ba 8.583931798540604 4.701409145545155 2.5411890130401202
Ba 4.5529290558609805 4.062921995239501 1.4040927961428713
Ba 1.6754862629369502 6.660316466588526 3.2594579470790253
