10
Energy = -10.3472189 eV
Ba 7.9409836542172965 6.155194806877566 7.299422692298106
Ba 6.81831652510451 8.5724599346405 4.169643812268557
Ba 6.070373152411541 4.547742137683621 3.142120137506993
Ba 4.1708263475515555 8.11232638194325 7.570932724312353
Ba 4.582777997489837 3.9296176832897785 7.217554010095607
Ba 0.5673305222906211 5.300435909809578 7.0386616454760285
Ba 2.9016612093816274 6.932749577568004 3.8417242626386905
Ba 2.2230696841968625 2.6123135216217612 4.087939843144076
Ba 10.179552842679744 5.461509260387563 3.7111934399201574
Ba 8.276736462730499 2.1072791842330556 5.652435830393819
