13
Energy = -15.36357663 eV
Ba 9.006850340271743 3.458887416403905 6.01020311541691
Ba 4.707850306107441 3.833684172522026 5.070859015679222
Ba 7.631906857662103 6.3792120657302664 3.0072491105101866
Ba 6.147211561849868 7.397011203544453 11.293777816966728
Ba 9.959125123108036 5.589743605231978 9.817430158562589
Ba 4.732220884975963 10.316265057163305 8.204485793360783
Ba 6.919596704924115 6.860797518685134 7.220151921873236
Ba 3.9080346555630596 8.059156385516856 4.3870012103646205
Ba 2.9339270979233363 6.276395909321796 8.37154393767564
Ba 7.663274583905877 10.331023140077441 4.930564563224382
Ba 6.085843495970428 3.347144015615977 9.297998943441035
Ba 10.878781569368057 7.477358775257027 5.883148727541702
Ba 3.925376818369863 5.173320734930218 1.0055856853833511
