13
Energy = -15.16671314 eV
Ba 6.894899636118764 9.883665112312887 5.075170704477947
Ba 7.969278487982286 6.2288612330320445 2.8638748706344574
Ba 6.816394648330032 6.242793223369987 6.863128507539798
Ba 10.668988892293848 7.368340494833023 6.299140834642362
Ba 7.961733388153223 9.159813970669466 9.501874480194783
Ba 2.7844332435938886 10.739524723483122 4.009282379630337
Ba 5.100727651597066 6.044288008555665 10.842581882253985
Ba 3.7688743775401745 6.47776452178767 4.3485052318258655
Ba 3.790483872888375 8.90128848426035 7.897762091955293
Ba 9.093274204677323 4.7268265642269665 9.819066499118577
Ba 9.131082161132946 3.0999396841476066 5.754341750151981
Ba 5.510002802118367 2.673067414867233 3.4737128239205424
Ba 5.008717396713538 2.9527173275938066 7.750448706793899
