18
Energy = -22.72536055 eV
Ba 8.296396446363186 8.84774239209399 15.521422522700627
Ba 6.9152380803414175 6.161783956737051 13.727935000133657
Ba 10.720613803044055 12.173282225505002 14.790122441412835
Ba 8.543504988549318 14.659129312195878 11.708533421411307
Ba 7.056047610749772 10.530483085126912 12.931665470136796
Ba 10.253002433392716 6.16178395673705 11.767039817827614
Ba 10.631976600068802 8.015651283541237 13.45065310792652
Ba 12.973186082826741 14.585074510622047 11.409926699464378
Ba 14.266188340621243 10.412995774388389 12.611173188325264
Ba 10.602248342127885 11.137839195258115 10.615932668417882
Ba 8.256717399883723 7.6790377196268675 9.772371890105138
Ba 14.102774950892826 11.682814449295178 8.307573595643047
Ba 6.872386546799692 11.797599060561083 8.632721749275671
Ba 14.430786761085391 14.659129312195878 7.407725915837555
Ba 12.663345064828261 7.446628920320602 9.629889300645445
Ba 10.54070768049697 14.214574446611433 7.766477464084537
Ba 10.442873182148928 9.979836356782757 6.466066952912025
Ba 12.992749408436657 13.154575565417023 6.33383935395101
