15
Energy = -16.38880127 eV
Ba 13.395652295920843 12.928469755758496 8.462006756309922
Ba 8.981767579990228 11.450761466775216 8.23942196547161
Ba 12.239705407499386 10.731842595917712 15.713147752071892
Ba 5.466164651852176 10.081082058870898 7.8322310903312395
Ba 6.834234522376448 9.841840889564368 11.505382011180743
Ba 10.521692699815924 12.3173020694486 12.178791249034813
Ba 8.626125224154054 7.470586581809677 8.130265690955696
Ba 15.44868163768815 10.298180377020392 9.034096610719459
Ba 10.73519203887479 8.248375711606597 12.306968962296786
Ba 14.48604908077221 10.70601458978913 12.239481308315742
Ba 12.987766418438603 8.961500149758391 8.689681769903785
Ba 7.2607746234945285 9.533558305023941 5.090888506046667
Ba 8.369430696056217 10.00458504302037 15.34783452253983
Ba 15.44868163768815 10.712022049799758 5.214573573606238
Ba 11.329801860216405 10.136843839178223 5.090888506046666
