11
Energy = -11.50774451 eV
Ba 11.170238079708307 9.575999685416662 7.963743278559741
Ba 6.856153832283084 10.216935712927846 8.041587150441794
Ba 6.10013625348871 6.0569293029563385 8.378719395145984
Ba 8.44954284458288 7.490071619583456 5.224030077439671
Ba 11.344242740223194 11.25984553166911 11.802542233165148
Ba 7.194258881660889 12.092583630722716 12.062660681135613
Ba 10.42507647364819 5.326170895564236 8.417398017523888
Ba 8.724088149529907 8.021358488992687 11.310961981467834
Ba 4.2280114133834905 8.22281389268762 5.188406545793256
Ba 9.587857084852812 13.64859997189229 8.781119863744
Ba 13.09279953858193 7.3089408914184775 11.21203373620649
