17
Energy = -21.57514875 eV
Ba 13.85596960867633 9.612071246868851 8.768352300415671
Ba 13.855969608676329 5.694199559308913 10.313675260426912
Ba 13.279067194065046 6.1331699500343975 5.972888782729801
Ba 10.09277049481075 7.979061437745001 7.922150986765215
Ba 10.197915196812104 12.23482129965897 8.467233878323526
Ba 11.905590667013215 10.207653484290676 4.812329158863942
Ba 10.642543568991005 9.532788444015404 11.90370830879766
Ba 9.781681998752266 4.731499437178803 7.342589274455884
Ba 7.483967199292754 10.410155169771732 5.516011893952519
Ba 8.215821207346254 13.358496122498012 12.14705767782385
Ba 8.230762200577804 5.801666735014837 11.030074106500214
Ba 6.021044557667961 13.71318408774005 8.188538721127554
Ba 9.191895108565241 6.673744960209838 4.8123291588639425
Ba 6.1495606004008465 6.514707897342799 7.092249601454401
Ba 6.760999472143736 9.884137139460917 9.872821374122646
Ba 4.364735375636602 10.044616018209148 6.8382737623116325
Ba 5.755278335312831 7.7846322514385 4.053237807043912
