12
Energy = -11.11062738 eV
Ba 8.350927530000002 5.433487066631001 8.350927530000002
Ba 8.350927530000002 8.350927530000002 5.433487066631001
Ba 5.433487066631001 8.350927530000002 2.5160466032619997
Ba 2.5160466032619997 5.433487066631001 2.5160466032619997
Ba 5.433487066631001 2.5160466032619997 8.350927530000002
Ba 2.5160466032619997 2.5160466032619997 5.433487066631001
Ba 2.5160466032619997 8.350927530000002 5.433487066631001
Ba 5.433487066631001 8.350927530000002 8.350927530000002
Ba 2.5160466032619997 5.433487066631001 8.350927530000002
Ba 5.433487066631001 2.5160466032619997 2.5160466032619997
Ba 8.350927530000002 2.5160466032619997 5.433487066631001
Ba 8.350927530000002 5.433487066631001 2.5160466032619997
