14
Energy = -16.11744857 eV
Ba 3.604939694390901 4.603100381150736 7.5558441447260325
Ba 7.9953233735988505 5.280672240166834 8.334301768137264
Ba 1.7740190149062094 0.7316236619322107 8.334770220328057
Ba 6.184651460638646 1.1975361957886392 7.736885367217095
Ba 9.739697452160192 3.6580123683519137 5.511805688576913
Ba 3.3370809890569633 1.6197361042687928 4.320115417802016
Ba 6.840153742537346 4.184378213544094 4.5710753666732185
Ba 2.957954948715956 5.938690340237405 3.479926833523449
Ba 9.739697452160192 7.1386582740901385 4.7930670129705515
Ba 5.790207776416824 8.194850309648873 5.982938667725069
Ba 6.592244638290174 7.388224553807885 1.6493770443004998
Ba 2.8707676201568733 6.644459754002964 9.32264074042868
Ba 0.798428659613216 3.3353885652967703 1.0443285036032872
Ba 4.989740381422147 3.330414911772927 0.5778309902420732
