16
Energy = -18.71026132 eV
Ba 11.91304904065232 3.546133854270434 9.916615143841803
Ba 14.211560670267296 7.162226902180581 8.620332110450326
Ba 11.884664300497198 6.909793413569467 12.35622308057114
Ba 10.038583720191825 6.863896880834625 7.939881243512801
Ba 12.15135249461255 10.041168015049232 5.797265277771754
Ba 11.332079310299749 10.398640812693719 10.101036162248901
Ba 8.075408751581483 2.7563600264134633 8.062270748656061
Ba 8.820531414937296 9.577377034370702 13.696576747221611
Ba 8.233615015689217 13.447804158803487 11.542965760892153
Ba 8.005376132855469 5.77480886580489 11.312056227287519
Ba 9.7141680833205 13.211903084731405 7.44752211636875
Ba 7.61985536025078 10.022058401823706 5.6865490180402185
Ba 5.690668855568851 6.312108564648339 7.496281269912514
Ba 7.066237592704034 9.817154455710641 9.741154025758084
Ba 5.627681387682646 13.454440796633799 7.987209956593222
Ba 3.3352751174118045 9.899669326201304 7.34444863115522
