12
Energy = -14.08453812 eV
Ba 8.34149761469189 5.468296916714387 8.699456835770983
Ba 5.531366204627247 5.555452323217402 5.750688915834828
Ba 5.389384190168871 8.695958859641294 8.332706885272422
Ba 6.7334341542178215 1.7660057115231065 6.682329998275625
Ba 8.240266699755571 7.878757248798628 4.397585067150884
Ba 6.946920028795859 3.5070916566063306 2.5426682567921812
Ba 3.9844847477688274 6.723145103064867 2.1763780686167893
Ba 2.7802174573767764 2.914573296829338 4.671549625770945
Ba 3.7914077145898033 4.3309348013196045 9.091229178152972
Ba 1.7987215231016382 7.16219119791784 6.091057373031345
Ba 4.595194430996208 10.046196952918711 4.53002119329528
Ba 10.030241551856586 4.114531782037481 5.197465621020213
