17
Energy = -20.99193781 eV
Ba 10.563507297865257 6.4409909869193545 13.648919486949499
Ba 13.566003477313677 8.173067931662748 12.521283625917794
Ba 15.697133781754879 11.803728348534511 11.043093081024892
Ba 9.508742332510076 9.40333017718543 13.890030484496661
Ba 6.656449501216413 6.440990986919355 12.047552992209976
Ba 12.95208292032214 12.002960470577703 14.642574277465982
Ba 13.88502621456286 9.201826201574859 8.096810287510072
Ba 10.216789852484647 7.40312952397209 10.015874695070252
Ba 13.406965756542524 15.32624962348559 11.907361699816553
Ba 11.483145182691635 11.513312902305389 10.680152133694337
Ba 9.27142203122308 14.25257360419748 12.810716928756424
Ba 6.6498249791417825 7.200415808058285 7.705173807445505
Ba 12.990953674860531 13.86391792733869 7.73223431504868
Ba 10.64555228049511 15.32624962348559 9.711134740589442
Ba 7.206440575256662 10.592060178526758 10.435841582656847
Ba 8.65906666560902 14.050897112866718 8.289921089565256
Ba 9.79600953875614 10.241317891379051 6.8112145379359195
