16
Energy = -20.25113932 eV
Ba 14.16831597974304 8.301576128854949 6.762652302540139
Ba 14.28367081343071 11.30761504811101 9.93316638785826
Ba 11.538066208488674 9.549101956239578 3.502885394451238
Ba 7.295559067939259 9.777497245255338 5.22820379910692
Ba 10.87127452510377 10.767664258340353 7.495319499448645
Ba 11.739048748923485 7.626346096755335 10.426866911787535
Ba 10.066801595507043 6.573386179553318 6.491510358455137
Ba 10.036895501636089 11.492846407242135 11.695425562835156
Ba 7.674427655119215 8.690446746742571 9.395846298823788
Ba 3.8278615711877464 9.82862234036013 8.225547481099111
Ba 7.111580481649644 12.80789320637078 8.546313310361286
Ba 5.613101019124492 5.958129325073883 6.955219015407968
Ba 8.3447005780924 7.65578324588714 13.405867366284678
Ba 8.400315997695847 4.58587453688297 10.170783435802491
Ba 4.551439692257408 6.672464385744531 11.235979874163185
Ba 5.517154212377065 10.88386255676529 12.212337572689728
