15
Energy = -17.46504168 eV
Ba 3.1485253262252377 9.436899829692909 11.053438671770735
Ba 4.948275788949346 12.264946364983093 8.231384575423434
Ba 7.616139207011641 11.05235838711987 4.941761246717126
Ba 6.436898849158661 12.052331615374515 12.361962544889188
Ba 5.744121743904119 8.208023854176993 7.738507773401721
Ba 9.05927231734748 10.647686989786022 8.996379541754607
Ba 11.974810047368457 10.84391208322206 5.623631823613774
Ba 13.464911567252111 10.593336573220261 9.783577294236304
Ba 9.753731408590287 7.294684479387922 6.243113795682874
Ba 10.532199240473677 10.591862973220033 13.073475576198405
Ba 7.205880030095087 7.990505489259057 11.819197050926745
Ba 14.00397775262667 7.330725551130387 7.040135755149961
Ba 11.219091518147856 7.0527659948162285 10.33961469539748
Ba 7.807799717928531 4.620326472682444 9.102199406196195
Ba 11.762513521097183 3.5585222960956213 7.628177467529752
