13
Energy = -16.39613726 eV
Ba 10.108593828176742 8.255992027620943 10.026898962569028
Ba 6.81954359478828 11.01741656608475 8.902662396018592
Ba 10.020123538789438 10.06398072597872 5.9807174772227
Ba 5.924728393236534 7.334223046507432 11.208827075457059
Ba 8.579092324623206 4.107004176392525 9.71292111330672
Ba 11.102977410564113 5.791192785215252 6.473052332915939
Ba 4.349568524871154 4.2904729858014585 8.387482468432736
Ba 7.185091422123295 7.183042191638801 7.183024452426548
Ba 3.2552683805567932 8.567996694587924 7.883885819482565
Ba 7.547901124326067 3.3493627945060553 5.463691061789984
Ba 5.788614375422221 10.266625704853473 4.658172084050172
Ba 8.43259014074917 7.03714822134894 3.1540172324040663
Ba 4.256377981666685 6.106013119356952 4.335118563817585
