19
Energy = -23.4350424 eV
Ba 14.417909467450388 9.141254663199312 8.580761440083556
Ba 14.417909467450391 7.235112024532948 12.36232512830142
Ba 10.78320676350323 5.371560115213769 12.113834096190425
Ba 12.138854090964447 11.613160717489697 7.109101809479004
Ba 11.537647354188373 8.020434563376917 9.3356811398735
Ba 14.656150943714527 13.510532754481543 8.794630184479692
Ba 13.315689762030116 11.425914704059144 11.451909469320938
Ba 8.300245907882386 9.332447034756449 6.552423033130341
Ba 10.444543404671753 8.96597016187008 13.483569021262065
Ba 7.50076673906361 7.289621949140801 10.448877490274192
Ba 11.762726873653925 14.97899342291417 9.72330762021628
Ba 8.890468541221537 11.517223335401273 10.27237861743422
Ba 4.9220945461212215 10.863996095908584 9.113298611946387
Ba 6.33929997428781 9.979757313465772 13.594106273374024
Ba 8.081906207612027 13.753256639587468 6.87750046457294
Ba 9.607500629161612 13.517824787670135 13.699571164336508
Ba 5.30160246078614 13.77816037898126 12.256200628547585
Ba 7.842485762497267 16.195176112430204 10.38446485073008
Ba 4.922094546121224 14.993782784302226 8.372314564671669
