16
Energy = -19.50445084 eV
Ba 3.7941076600786987 3.7837308769971814 4.247468222150886
Ba 1.6273673155813702 5.184647121425529 7.613055715690715
Ba 3.723151333854556 1.2399988780431255 7.626779422645964
Ba 6.06299214501784 5.012689925350368 7.567429677028309
Ba 3.8889812692558654 7.981396609602635 4.948072089620397
Ba 0.17367697568696436 5.926160567221279 3.4292616208421096
Ba 0.1157950605563855 1.8546261912307425 4.945440372253632
Ba 3.7514886178524756 11.17051473036547 3.4684162486296555
Ba 7.341952532185885 1.5518818231622644 4.908635927815668
Ba 7.449927295376035 5.853638948222895 3.4072303203181353
Ba 3.8815821083485726 6.417981433418446 0.8838785726229563
Ba 1.4836629756812971 2.5335857381535183 0.8863845984938291
Ba 6.036847414902154 2.3224927828553383 0.8805132100707859
Ba 6.438087223768498 9.93740011349655 1.9889107298646433
Ba 7.598379344198604 9.937400113496553 1.8860467125546692
Ba 8.82171105211667 3.1014126592616003 1.8823387072614952
