11
Energy = -12.15577867 eV
Ba 12.05319212510842 13.070139174332946 11.151397326320279
Ba 11.47275121396359 12.784801861211355 6.833247731374218
Ba 11.972323042994518 8.938557084848318 12.82248089159944
Ba 9.750561345070821 10.069354125829404 9.452258254404056
Ba 11.37082967657702 6.15303059606101 9.425758707061524
Ba 7.443662299566409 11.0636641953362 6.084331618730823
Ba 10.905358267067527 8.520984498396002 5.714636079376006
Ba 8.492343142909148 11.438265078204381 13.22495735116157
Ba 5.579945434317675 10.391935826063076 10.059982387795447
Ba 7.340475538288643 7.022965884703099 7.752263296471413
Ba 7.99784269457605 7.2662251860493035 12.097589067906373
