14
Energy = -16.31799011 eV
Ba 8.545508967819414 1.1632910882471015 4.374352792974493
Ba 8.342115829053757 4.32180375678795 1.0500908153118056
Ba 4.460037082015654 1.394034530785932 1.6769766773063317
Ba 4.4991628940770045 0.5865645452517421 5.899596632795251
Ba 6.095954785480136 4.276005068002698 4.316098722563929
Ba 4.177120162235475 5.557998386280041 0.6394149883307282
Ba 0.42234265424715106 0.5925864754462824 4.331934110588826
Ba 0.2258396225205727 3.73689457811765 0.9751688440587153
Ba 1.9840022655146035 3.152600964292732 8.181580394596397
Ba 6.646979281001335 3.488688125252777 8.181580394596399
Ba 4.031443439568665 6.947382069830997 6.953722349571567
Ba 2.388909495578804 4.031331195008154 4.289276246674139
Ba 6.323938753805693 8.115672987860538 3.289944615938824
Ba 1.6472066461433534 7.806774192302673 3.2273153393221374
