17
Energy = -21.2176873 eV
Ba 14.522457646672686 11.055882760276202 9.515825120273226
Ba 14.287796051436874 7.513230200575728 6.453811903859432
Ba 11.485850491460106 8.496711500879682 8.99312738098301
Ba 14.287796051436874 6.624613986298588 11.005857009665458
Ba 11.051252530488469 4.72703929621548 7.867776125847404
Ba 9.017168240056717 8.566611803233318 6.020175527086996
Ba 11.351318409572587 10.121596928759358 12.811399409517001
Ba 12.345851016174233 11.322592887840061 5.722456785759576
Ba 9.878395219760515 12.326779972171057 9.024316166235915
Ba 6.684192320061636 5.892484511934158 8.674232045722349
Ba 10.006557471313366 5.75662216340601 11.978590397007647
Ba 8.259105786475883 12.82002317748264 4.995598843082184
Ba 7.579314387425992 8.43390381292363 14.604166077403965
Ba 6.73004106864861 12.193137203036619 12.414765377149743
Ba 8.0726342235363 8.945367150862463 10.628650334323014
Ba 5.701473186577378 8.38425697802826 11.640401433801468
Ba 5.70147318657738 10.741374780519621 8.030216614392796
