18
Energy = -22.282667 eV
Ba 7.185676266668302 10.363853666681061 12.46934183995536
Ba 7.185676266668302 14.354060822629272 13.677120523658557
Ba 10.955670263365613 13.6771906973214 15.988104341971068
Ba 8.459974913477174 7.276677986532364 13.98405902356964
Ba 11.157438128332506 14.999822271063408 11.632734363649998
Ba 11.843092994576265 9.304796804816407 0.08670335032492198
Ba 9.738739872321759 11.10472144692877 12.914252368138108
Ba 8.67209300724128 8.512744202957602 9.587734606747079
Ba 7.853312732529392 12.908289079633194 9.438536988932887
Ba 12.42822238179085 7.873368541943337 11.857469047833742
Ba 14.023856294227109 11.911561012101405 13.101858215401707
Ba 11.84959352640188 11.361282425260123 9.359752397740312
Ba 9.756273634395642 10.873989417179867 5.814157590918051
Ba 11.256851868553824 14.889554265806131 7.171140248331592
Ba 12.657154858832241 7.810883025344736 7.358746616685582
Ba 15.048481482202119 14.139178405737583 9.44419712938013
Ba 15.890421408726535 9.918966986688899 9.718721039498515
Ba 15.890421408726535 12.778211145208749 12.193125929565475
