18
Energy = -22.3692232 eV
Ba 8.888680714292333 5.486503368726886 9.104207728287609
Ba 5.575539310452873 7.477943476286507 8.40271043654668
Ba 11.878545064817281 6.397808812441576 11.797239891020949
Ba 8.166215827558176 5.486503368726885 5.33050210488303
Ba 7.370822999647102 6.432524768974386 12.705296399817566
Ba 14.48274130222408 8.867780640681124 14.445910208542411
Ba 11.777961967491887 7.319250428857179 7.127698766892855
Ba 10.073968057511355 9.738287048277966 13.95397310351363
Ba 9.063723217827508 8.981410620268045 9.741002497274891
Ba 12.999689501093304 13.069191461825147 14.082999211458178
Ba 5.903958816747185 10.440195874791236 12.08847925224617
Ba 8.082375934900957 9.442121980118568 5.434414344958833
Ba 9.535370127364002 13.06463169360723 11.311080432787765
Ba 6.674990244422625 12.3253879855376 8.171745957718022
Ba 13.018199855612087 10.405445055747103 10.697621318049569
Ba 11.029579431716325 12.070084591651378 7.247063942013813
Ba 13.125809362223448 14.86717796935439 9.965182849569853
Ba 9.217800082057893 14.867177969354392 8.202911641905798
