16
Energy = -17.73892992 eV
Ba 11.665343315036752 13.631492613063116 9.9847123399264
Ba 15.019905618229343 12.719720933191056 7.395625892924855
Ba 8.683896064272025 15.306567687105415 9.724470357300538
Ba 12.231137337383212 12.221858396642999 13.982132086049328
Ba 13.987325365556346 10.074518740858831 10.522545379310213
Ba 7.7156351152896665 12.759630615839736 8.23001820323606
Ba 7.469548606951823 8.089912101067513 8.198444656267451
Ba 15.321078683864421 8.655753387505928 6.69863148538974
Ba 5.230208581940171 15.306567687105417 10.548747216053673
Ba 5.799198825111006 7.06063624838638 12.0372148068443
Ba 11.275246339341013 10.491663974450569 6.922123443072778
Ba 8.9494764048847 5.3744446282138165 10.883453918430682
Ba 8.294308990035647 13.703762760432696 12.629705114715069
Ba 11.932401627582678 6.769602453925512 8.593224139171165
Ba 5.230208581940172 11.03188839562728 11.070801750474946
Ba 9.610860211329136 9.672239152062849 11.27513098201796
