10
Energy = -10.05857371 eV
Ba 5.465907431124702 4.456784774429933 7.819228040805823
Ba 7.520782431704555 7.970581897848916 8.780455184353437
Ba 5.249440672671784 6.114698087989102 8.780455184353434
Ba 5.81443596169419 2.694773121767704 3.792885519405097
Ba 8.552607091994751 5.633379577851541 5.0113117752094425
Ba 9.266977692584003 3.272219591064479 1.4393293396677989
Ba 3.0522735365842246 5.741916293360655 4.635393037028463
Ba 3.3839866780697445 8.117901791201955 8.46029333399518
Ba 5.866068821046926 8.848343001647924 5.027652544388127
Ba 6.080340727628937 6.1313622538317984 1.5212709350344855
