15
Energy = -17.23128251 eV
Ba 4.670905867301816 4.670905867301816 4.670905867301816
Ba 2.291717465656769 2.291717465656769 7.050094268946862
Ba 2.291717465656769 2.291717465656769 2.291717465656769
Ba 7.050094268946862 2.291717465656769 2.291717465656769
Ba 7.050094268946862 2.291717465656769 7.050094268946862
Ba 7.050094268946862 7.050094268946862 7.050094268946862
Ba 2.291717465656769 7.050094268946862 7.050094268946862
Ba 2.291717465656769 7.050094268946862 2.291717465656769
Ba 7.050094268946862 7.050094268946862 2.291717465656769
Ba 4.670905867301816 4.670905867301816 9.667406759999999
Ba 9.667406759999999 4.670905867301816 4.670905867301816
Ba 4.670905867301816 4.670905867301816 9.667406759999999
Ba 9.667406759999999 4.670905867301816 4.670905867301816
Ba 4.670905867301816 9.667406759999999 4.670905867301816
Ba 4.670905867301816 9.667406759999999 4.670905867301816
