11
Energy = -12.00303389 eV
Ba 7.540244184382181 7.504436864142884 7.449375488598603
Ba 1.8158600827756466 5.329431293693705 3.426016836954435
Ba 5.301813736719302 8.106196613108569 3.561940681591369
Ba 9.080336688962264 5.644137175322076 3.782708026816615
Ba 7.88077902586561 1.4301264574251205 3.875043936292673
Ba 3.43594652338594 1.2274528865438519 3.5272793090359382
Ba 5.629711869944219 4.295211220311971 1.282026148929451
Ba 5.51592506954573 4.42772028534774 5.4952598192574875
Ba 3.034386314768257 7.288791592364402 7.288093104060645
Ba 1.6983889132417629 2.9738877812181546 6.997669253937758
Ba 9.080336688962264 1.941458090527904 3.680163976336407
