19
Energy = -25.12968247 eV
Ba 7.9080082950115305 4.099543325632527 7.88821393490062
Ba 7.9080082950115305 4.099543325632527 0.3108727163644284
Ba 4.098462595382589 4.099543325632527 2.0242101809087267
Ba 2.9181805794713345 0.4628029370519371 4.099543325632527
Ba 5.276220511823517 0.4748876862226522 0.31121843694881457
Ba 5.276220511823517 7.724198965042397 7.887868214316241
Ba 4.098340640919378 4.099543325632527 10.362896399999999
Ba 7.197034319620179 6.351305601056642 4.099543325632527
Ba 4.098462595382589 4.099543325632527 6.174876470356327
Ba 5.276220511823517 0.4748876862226522 7.887868214316241
Ba 7.197034319620179 1.8477810502084075 4.099543325632527
Ba 0.27187674338193857 4.099543325632527 4.099543325632527
Ba 2.9181805794713345 7.736283714213108 4.099543325632527
Ba 1.0186278838829932 1.8564566027232725 7.886821645879712
Ba 1.0186278838829932 6.342630048541784 7.886821645879712
Ba 5.276220511823517 7.724198965042397 0.31121843694881457
Ba 4.098340640919378 4.099543325632527 10.3628964
Ba 1.0186278838829932 6.342630048541784 0.3122650053853442
Ba 1.0186278838829932 1.8564566027232725 0.3122650053853442
