14
Energy = -16.32690114 eV
Ba 10.226383861628396 13.808821396199031 9.43872387010421
Ba 12.518779121798309 10.589869945665942 7.248925308539991
Ba 10.31334437959099 9.72104335387565 10.849171519244745
Ba 8.210815712553952 10.70998722011759 7.179444015070989
Ba 6.516388083222395 11.780045931909429 11.006622414389378
Ba 13.791899446372513 7.262599157704548 10.041759691132459
Ba 7.516925113446326 8.530974410504962 13.943762705929691
Ba 10.15368861781609 8.986591367798155 3.7262301408171976
Ba 10.27788127363968 6.917567877529964 7.5406465663050755
Ba 9.941072447340277 5.5008669310224025 11.615118879488167
Ba 6.6490422234605715 7.621081177380345 9.807437851947212
Ba 3.9390215582398036 10.226730023144684 7.660028809077176
Ba 6.458419303455558 7.122957547275625 5.540543137118659
Ba 7.537866014621911 3.660971037572847 8.270195663658452
