15
Energy = -18.435506 eV
Ba 4.463258147330413 8.372646651424027 2.6123721528811004
Ba 4.744507805757034 9.378023173674027 6.972685154197896
Ba 1.3569895699622303 6.948915989365774 5.459189590534756
Ba 8.48731468597415 8.198125566101735 4.5853338416508045
Ba 9.539344425791509 5.941357573055302 2.3449078621919224
Ba 7.358059587594882 4.98269335642394 1.8101572168151736
Ba 2.9331368296041296 4.226680520594107 2.276238901124153
Ba 3.388890699678502 5.994662386232999 9.313842009209237
Ba 5.279499931397513 5.419237386595985 5.524407835560517
Ba 9.28436830315508 4.0258974157143586 5.550754167234542
Ba 2.2682380791835848 2.6667925515191415 6.478739716434093
Ba 7.689395127966477 6.79447353426883 8.843998033708088
Ba 5.114003278192044 9.41140962337407 9.313842009209235
Ba 6.233590770793757 2.5698753317128604 8.48476826547369
Ba 5.940261820782973 1.4825980846329134 4.171133830664024
