13
Energy = -15.25009233 eV
Ba 9.424274823584268 5.978442672144448 3.532843703199531
Ba 5.682812075058384 3.171042371580339 3.2248375265933764
Ba 5.714287365377539 7.072665514367845 1.4045395363772601
Ba 6.971555846383869 10.062215578039371 4.303056838810313
Ba 8.144315670463905 3.329785001201785 7.038811893074591
Ba 2.595319129872766 7.9103828461924195 4.3248736872366225
Ba 5.996037549478545 6.3956459221572235 5.498110914270603
Ba 9.014274587095619 7.77149143474355 7.790260406014308
Ba 3.0754053961635597 4.0299347622535695 6.713211902194235
Ba 4.745262276239877 9.322289280066345 8.100586555126064
Ba 5.733188909726337 5.566594653111611 9.7389225120782
Ba 9.769262342401614 5.031202095229904 11.079885113924371
Ba 7.63400402815505 8.858307868912425 11.750059411101686
