22
Energy = -27.41677037 eV
Ba 7.359956353738521 5.62430155862002 8.86556141117823
Ba 6.136140341126593 7.169366865363037 12.317781144536566
Ba 5.372556697292063 8.448516456594755 8.483075602725629
Ba 10.353732180018186 6.160192969198097 12.086699019820088
Ba 8.691197787434069 8.83580533546808 9.232302424739235
Ba 14.853763780167101 6.160192969198096 12.010294654743449
Ba 9.031749061697738 9.800857931583336 14.500293996014191
Ba 6.426538766725438 11.566369608197371 11.504184593785453
Ba 6.832462967443466 12.167557811897643 7.152797131419958
Ba 13.103408469290407 8.383311760989635 9.383884796102564
Ba 13.141102748392541 8.972519620106798 13.765449562189259
Ba 10.983935599558794 11.642242908203533 11.127784588590524
Ba 15.009385024607955 9.458254658089661 11.727168404409898
Ba 12.256495963825767 11.999450617785284 14.96535033260373
Ba 11.121109247371791 11.98041139001811 7.03953901008002
Ba 9.842740169224976 14.31583600623012 13.887459364836243
Ba 8.130658124409809 15.03880699805975 9.901663332214575
Ba 15.009385024607951 12.207488234902364 8.81940424805498
Ba 13.885432252480097 14.88339782315028 5.44844062639462
Ba 14.32426916745883 13.1862527443861 13.010535249618247
Ba 12.290685470179817 15.4748192764034 9.57629902859905
Ba 9.588985757934806 15.744760523014724 5.912454258329488
