21
Energy = -26.09131096 eV
Ba 9.523425504419093 4.398060723995318 8.319544564650007
Ba 9.523425504419093 4.383753410206703 4.185512132346692
Ba 8.278148088013461 4.4078119729344065 18.452320197194556
Ba 8.771255661533871 7.720005310021053 6.668139866193465
Ba 7.618999353129036 7.909539494319662 2.6057966387819778
Ba 7.203042109165194 9.942336174084765 5.144721990987874
Ba 7.028595199674698 5.333729780319472 9.799842870343012
Ba 7.661362027247805 1.8998448351218509 7.207267541434786
Ba 6.272849655053386 1.9771453272881068 2.8556526631126338
Ba 4.575609864571234 1.9391998991143824 17.411631530627872
Ba 4.746744093357597 5.110207797734216 5.806886041777277
Ba 4.184190607036079 2.0276572822378345 9.834377718484518
Ba 3.8196475570793145 0.2969425622110352 5.981738839671832
Ba 1.983227982379838 2.148211128777657 2.596588546243899
Ba 4.961690582765203 9.100560914699207 8.117559180714542
Ba 4.357235194660867 5.500925540554659 1.3038511262548633
Ba 2.7881786206805304 6.0096205754509135 10.199104638429434
Ba 3.696496926495001 9.149801689373087 3.965253981458518
Ba 0.6317025166953788 6.124742026361859 3.3662944666477923
Ba 1.0051920978185818 3.559521145742163 6.9406991787036585
Ba 0.8358687241566305 8.116459562939975 7.091387576342145
