22
Energy = -27.48487664 eV
Ba 13.624305788723142 6.711195437693441 14.038976169818609
Ba 13.889707030755005 5.306324666288449 10.479119418080003
Ba 14.123272537259757 11.053398504205523 14.00626144304678
Ba 9.99786419395962 8.893101766248979 15.31240941914016
Ba 10.424818366694938 6.312175266712137 11.348445117929367
Ba 14.012850393686822 8.342905127678637 10.132339698750338
Ba 10.827972204719549 10.672725519929882 11.789991764091946
Ba 13.558318152164269 15.26391077972945 12.897144593305404
Ba 6.2926345777655435 11.126242847802105 15.26749624682254
Ba 11.576565195200047 6.135436236876716 7.260693530532089
Ba 6.9614217148445405 8.583957719404076 11.978947541723882
Ba 9.399539813179258 10.205214998383422 8.122224773660964
Ba 13.716064685864142 15.26391077972945 8.736756859765125
Ba 13.959251628714082 12.600849934889723 9.574800919212986
Ba 9.956374000338633 13.362877407133338 14.677447257898885
Ba 7.256891110550249 6.371093611711466 8.225026703639426
Ba 13.253895716357084 9.95653808874339 6.148586639460721
Ba 6.92395799690118 12.695296739681233 11.411224311091797
Ba 6.292634577765546 10.20516733640355 8.527806889232052
Ba 10.365071924069401 14.7645717555737 10.199893605976893
Ba 7.17975673242308 13.877019551361396 7.214577079329708
Ba 11.502431500107349 13.932971765015136 6.187252302140945
