24
Energy = -32.86774773 eV
Ba 10.634309929568053 5.929470443802374 5.836014843226958
Ba 8.221856027240674 5.978686226399186 9.43236507107944
Ba 7.668321683842949 9.28257431294864 6.452737795281686
Ba 11.778336011287239 10.119261225333945 4.831609468311813
Ba 11.484656740834147 8.721571589568253 8.428156488316063
Ba 14.834513460274131 7.465993971602739 6.3385270542152155
Ba 4.84080038908821 8.702596819361805 9.808575148468956
Ba 8.252296996533506 10.135522845531634 10.624808922644496
Ba 5.690811114402671 12.831972538465646 8.650031582501336
Ba 11.10056466777522 7.406021448928317 12.60879721147853
Ba 6.595621849029637 7.610186215931671 13.483997067944614
Ba 12.735464467613882 5.170536912826797 9.299088967370828
Ba 14.51544463592884 11.769415046777315 7.83560612650768
Ba 5.690811114402669 11.964929761898414 13.124192649136551
Ba 12.122754756772492 11.534250941674467 11.399222893299747
Ba 10.132135279007224 12.87311168994125 7.66775013516716
Ba 15.125454956069936 8.493244905866076 10.820402158657807
Ba 13.883427568439084 10.203555801378979 14.933302495788956
Ba 8.804008024494333 14.320504070955932 11.668048452424975
Ba 9.388021276406155 11.036287152673593 14.678846734031152
Ba 15.28135443182132 12.827425592331016 12.107802673772582
Ba 12.206126407650144 14.423814493047445 14.51473370334745
Ba 12.960381116453458 14.789527520941869 10.12769454000099
Ba 7.784817789999683 14.789527520941869 15.239234103394477
