29
Energy = -39.89348866 eV
Ba 11.143137599486707 13.771723759306662 6.037011817053017
Ba 11.759390241961396 9.20003021737188 6.499896779325942
Ba 7.549650100889867 10.81074616396606 6.499896779325946
Ba 7.60567357027518 15.254239312802445 8.158279000356178
Ba 14.395509369047561 12.333131058482651 8.631597708961712
Ba 11.769491101986219 15.898313634953425 9.679476374956764
Ba 5.078494418791133 7.623924108771543 8.004544640605033
Ba 11.836485133016753 5.7284734302520075 8.715177490566159
Ba 8.360938631096342 6.680258590013954 6.103944665169258
Ba 5.821553703868985 11.599174736666008 10.197830664198232
Ba 15.490143616739887 7.704386566632979 8.49505258450988
Ba 5.238800593510694 15.834315637413848 11.865492629275444
Ba 10.145006315616742 12.031696898708509 9.270136604361038
Ba 15.480426774694218 15.82600447571056 11.60924866997496
Ba 8.523848335886044 8.171339372835414 9.370055488067996
Ba 8.39132783763884 18.258481141465932 11.504154225249884
Ba 9.862901803024917 6.396909142491848 12.880086641283494
Ba 5.726400714722666 12.206412914906057 14.701192409317454
Ba 14.4506122801738 6.085000917845344 12.321433274970026
Ba 11.758325157229546 16.580832016600933 14.02098426457167
Ba 12.490113535530368 8.891443663033618 10.793929192816316
Ba 12.79527987381849 12.674305108397332 12.759769881992284
Ba 8.658620142735865 14.356102990447454 12.297260304463258
Ba 5.634742746247236 7.885517146235132 12.619987630988495
Ba 7.326381727920318 16.580832016600933 15.459894273484469
Ba 9.10131246931054 10.25804099087467 12.953113317900984
Ba 12.389211248329168 8.762458555308177 15.20139586190211
Ba 9.923153440859842 12.864970053548697 16.196316399837652
Ba 8.004781332351195 8.563199709213423 16.318234911762204
