26
Energy = -35.05340899 eV
Ba 12.895167066543726 8.751247986307096 6.731928451291961
Ba 16.361952472603036 8.655910853435797 12.327813400188397
Ba 15.227496236315993 11.06392854703522 9.164399327151612
Ba 15.920840146335225 13.037663398496735 13.50339216985074
Ba 12.389561800515242 13.82772742244277 11.045632484599388
Ba 12.570017168111365 16.228256284097593 14.458950984483955
Ba 11.807764968907312 12.973740165331984 7.443009677228923
Ba 15.709627548481851 9.419960645252033 16.41477248330717
Ba 8.880617247012388 16.17768197562269 12.069875021630532
Ba 12.49722399574029 12.434686051221325 16.235840994548475
Ba 11.0393036196543 9.952615143576246 9.44069153395553
Ba 13.397322795206565 9.74496368868154 12.959115966013961
Ba 8.607210332548373 14.73978269236504 16.082361019621416
Ba 9.55676773339286 11.629087304946635 13.315895586742698
Ba 8.53766166188563 9.93604472986407 6.919333433780065
Ba 13.970409488268933 6.827794131469652 9.81695895029203
Ba 5.7209163464243655 12.471027899538523 17.266439966463594
Ba 8.821625621731485 11.132784635445994 17.26643996646359
Ba 14.396734718539578 5.84916900997941 14.126287137348758
Ba 8.164629138942521 13.047032700118525 9.244390505408036
Ba 9.81924436950198 6.218928174784718 8.040486743793952
Ba 6.82617880846144 9.080259142624831 15.078758616075811
Ba 5.7209163464243655 12.987995318063087 13.044209278418991
Ba 6.925981435833009 9.103379814041723 10.4720469590077
Ba 11.297566559292294 8.229610376610777 16.393362401692922
Ba 10.1964094143255 6.920383979270666 12.457813599046982
