28
Energy = -38.39060558 eV
Ba 12.029611390703275 15.422599305542702 8.179574852204357
Ba 10.967579360646019 16.612720555222445 12.427331542413718
Ba 7.9070825395936675 14.211893889323028 9.978366234278761
Ba 10.30177171488645 11.444057296146724 7.315778499892625
Ba 12.93947042117403 13.555024854608543 15.26556383246564
Ba 14.484872116189516 11.564187590194924 8.28931514831219
Ba 15.013539752285439 14.669327195425389 11.470145155337365
Ba 6.565924447549027 16.584571563404943 13.549432271944235
Ba 8.975606595722315 13.220240631420436 14.364811275464962
Ba 9.780108167179229 16.612720555222445 16.740041708159758
Ba 7.305570364198538 9.818954325488738 9.712343481509247
Ba 13.25953968185119 8.090708239850489 6.113833079664036
Ba 9.101595042172216 7.005566779690516 7.118856912168142
Ba 11.411482893069609 12.458494948596154 11.08123407746836
Ba 5.283300609490949 12.106953975416353 13.050569089251283
Ba 5.490063200801454 7.637748459559205 13.144022498152307
Ba 11.69289642194624 8.549978802104986 9.620771831785294
Ba 9.521575898266327 9.358422517393144 13.06136317801329
Ba 14.446365052541408 10.22135223858228 12.695153649887736
Ba 9.921442145736119 12.533437173810055 18.69405448774729
Ba 12.506719647189133 4.9928682505995665 8.62648844047634
Ba 5.989499138519279 14.168683178036435 17.31418241093443
Ba 8.801373497878958 6.055762643075206 10.969008377597818
Ba 7.175094510786711 9.973492124589223 16.507215057387967
Ba 12.61240853596007 6.157334551077788 13.068654375914234
Ba 11.875183770731185 9.368127030934298 16.301150154524574
Ba 8.898821153542256 6.055762643075209 15.71809481107446
Ba 9.352018067411464 8.21782660449873 19.902937570067014
