25
Energy = -32.25521299 eV
Ba 6.853748340957479 8.390535505603092 6.408006481477088
Ba 8.417337403208315 11.069050897992723 7.246137216087296
Ba 9.983805307866 7.600285368983212 6.189993582270585
Ba 6.116710568352646 9.791167448103538 9.348047358597299
Ba 11.611833154092313 13.681085054518903 9.441836437210728
Ba 12.71594303125861 10.21653886363945 7.007946461802031
Ba 7.5874781050978894 12.400955133431074 11.444299633048747
Ba 5.040156269605904 11.283994085895655 13.439883990135758
Ba 14.495432472377647 7.119185680359644 5.8788583179382865
Ba 16.042677385583268 8.201146239625695 8.642372062716952
Ba 16.042677385583268 12.71236701924728 8.249149496796772
Ba 7.735739892575125 6.628535599008757 8.580630593411328
Ba 12.320127521900464 6.264995540634735 8.492604732597544
Ba 7.659528794940478 11.415152586056562 15.71342615821631
Ba 10.134987562363403 9.281987640333718 10.583450108229442
Ba 6.85374834095748 8.152781182120108 12.889435903889986
Ba 15.182782539632848 14.288502408952425 12.287562711695934
Ba 13.861329867153326 10.499087257712286 11.06687207649346
Ba 10.065549590264629 5.126358017568605 12.13871326972593
Ba 11.375003482982196 12.711229435161835 13.732575308248135
Ba 14.206812634578348 6.7162719661200745 12.476417427998914
Ba 13.863779837076477 14.998206616886543 16.384692237060737
Ba 10.990542860642133 8.658955162199454 14.661876141050064
Ba 14.909483682937852 10.677332462852645 15.08128600331346
Ba 11.582115224540397 11.60476447681294 17.76025689609749
