27
Energy = -35.04673122 eV
Ba 6.358258471165098 13.210128506336629 17.80411956812811
Ba 9.045714338281849 14.39090088638136 15.381654590416966
Ba 12.139338923564553 16.196022388037267 12.827768800675031
Ba 16.648579031134528 15.32226093884219 14.25879507259532
Ba 9.637203468114553 11.626082751089875 17.804119568128115
Ba 13.282123041823768 13.777782148265375 16.73746951383772
Ba 13.614078685684 9.527452651109776 18.040651897639098
Ba 6.1591665599654934 13.56012674125477 13.328687314453548
Ba 15.441081005220473 15.768939351632053 9.88625727009592
Ba 8.230318645243466 15.168238113717832 10.54760314476123
Ba 14.04947739815885 12.73243175157328 12.587727169493649
Ba 7.355843534296213 10.300401557905834 15.165488450643155
Ba 9.922946934940267 11.956183772998928 12.27411142232674
Ba 16.125312455862872 10.518234049588303 15.442989001914015
Ba 11.981037560728192 13.400819283676963 9.211670030759008
Ba 11.81810102367588 10.25892801049629 15.325108974517082
Ba 13.309937945459124 15.029023201900069 6.661389283601159
Ba 6.734236441123754 10.58138575352958 10.442162204266282
Ba 15.550093355906593 11.565385505892628 8.572731522966365
Ba 8.84006802860962 12.659476819796355 7.64211702335362
Ba 9.745071346772123 7.547101782972335 12.804340683844025
Ba 13.992476176707916 8.794106775832862 11.758855534672275
Ba 13.528968035525294 6.4953229423716605 15.344444802934637
Ba 10.843126293892768 9.192238891646562 8.970432090254503
Ba 12.593393861721907 10.794066713561422 6.277533924865886
Ba 12.718205472610078 5.793631581183121 10.968225071476319
Ba 14.499624710827797 7.3600529781163955 7.642117023353617
