24
Energy = -30.32658965 eV
Ba 12.62040869391869 15.89610112377877 7.693060287634362
Ba 8.878866341760778 16.05876385642833 9.857485658195435
Ba 16.665614997167093 15.753056066252329 9.724240200093432
Ba 14.27639666212625 12.302627770738496 9.224811381527692
Ba 8.806154881321945 15.75843580716467 5.910840964096136
Ba 12.948819803115196 16.60925406032937 11.951650272159316
Ba 9.086041758370314 16.2579616081278 14.224186432891655
Ba 10.007479428993893 12.440645865719489 7.917106371860818
Ba 16.665614997167093 11.834333914246214 10.3168132741037
Ba 15.495202005797763 13.227046554209851 13.16540971545608
Ba 12.593454504158878 14.71475083238337 16.145492204321464
Ba 5.907669062790531 13.517506191528732 7.872721530531893
Ba 11.061810370868585 12.788100391524864 12.213532851128592
Ba 9.035094568612983 16.076780753323927 16.735521867832723
Ba 6.754446145128643 12.906535122271421 12.291601739289948
Ba 15.469482726649552 9.07874703438319 12.001109752798312
Ba 11.596530530983827 8.940471183186581 10.232177658937676
Ba 5.9076690627905295 15.02871615337884 16.191019771886427
Ba 7.337806575006606 9.571585162414257 9.497173338727091
Ba 12.827377504063483 10.237653992753941 15.177524175861894
Ba 8.946143542555728 12.428164516327582 16.184257396417518
Ba 8.867273238741332 8.963737054169002 13.52721393785738
Ba 12.307467433724625 6.676136497889544 13.408559676215223
Ba 8.878376727683378 6.062894936211356 10.733623732075758
