23
Energy = -29.60262466 eV
Ba 15.03381928775378 13.708200647530457 14.199078376451157
Ba 11.50184633202641 12.027245205599476 14.911710179878048
Ba 10.904864208235967 15.142226416863995 13.087027609589864
Ba 15.03381928775378 10.782359003494573 11.173095030163061
Ba 14.011090861376607 14.350946455361358 9.85113482967501
Ba 12.32424736183306 11.25050230975517 12.198555131525591
Ba 6.621270261984222 15.258742338924593 11.986744772789846
Ba 8.247858135319516 11.634391836821614 13.362195816464364
Ba 10.395335542416717 7.988324482148426 14.242465341427229
Ba 9.576193747364371 13.243860858058078 9.059010499906508
Ba 13.384667399997289 7.219593952447902 11.12145850725398
Ba 5.462384243141738 14.74326371242892 7.863482687441841
Ba 13.253376282829043 10.343795169017506 8.143084261599105
Ba 9.449885840869408 9.015386233037061 9.998560783663711
Ba 12.69378264204572 13.702071012056168 5.672863268471326
Ba 6.27899800847811 7.622482472538951 12.433271748080855
Ba 9.482420279235175 5.4211658283722635 11.041446387045092
Ba 8.500135964216325 13.96421110146048 5.222883942241461
Ba 5.160597104887783 11.364363228403493 10.557016298775771
Ba 11.226827792689795 6.349508670163956 7.244717894918111
Ba 10.28439244179296 10.060463999259477 5.222883942241464
Ba 6.705949981132733 10.707392408290621 6.908070558717697
Ba 6.758235996181078 6.602129106643927 8.038404571050137
