29
Energy = -37.81935529 eV
Ba 14.035219113016163 17.206339171431715 6.361108414996937
Ba 13.076980425123349 12.977341154839488 6.361108414996935
Ba 9.821497196903666 15.8924072643309 6.7845102806781705
Ba 12.150006698269523 8.595230501294973 6.063884256176628
Ba 15.855981679421712 14.293694276539124 9.150102713885897
Ba 12.278021369550341 16.182645267849143 10.207610321380372
Ba 13.810186862133582 10.269670526376162 9.338626341646366
Ba 8.957989828522866 11.554356022408749 5.640662768809696
Ba 10.128835262892881 12.424616880768692 9.51132381757791
Ba 12.744973655823584 6.370343035830998 10.004311803552909
Ba 6.326149893833435 13.94602251264328 7.816129460718588
Ba 17.535922447505058 11.07909258095199 11.522724519249259
Ba 13.418370962305907 12.791146366678177 12.63095357934839
Ba 8.871449206064439 8.226143376475893 8.561264562795435
Ba 5.445642746332738 9.772177978543562 6.901168497994022
Ba 8.131020505138203 15.641435666922899 11.350310258977487
Ba 10.530715760118657 8.955081072133158 12.338527652628342
Ba 11.388607386930255 16.0206085116387 14.494524619976458
Ba 8.701308214568817 5.272770388429016 11.583544830089858
Ba 14.479395216117146 8.774476489367462 13.473717695739904
Ba 5.209884665172919 6.940846602856399 10.271504701428873
Ba 12.40244366782188 12.20781610054122 16.67927879181749
Ba 11.861741054926144 5.723078688909515 14.601319900381027
Ba 6.3420680964970355 11.01487570437861 10.896133755746767
Ba 8.98141466811597 12.382884968089149 14.101299475068629
Ba 16.54537082357574 11.787634326617852 15.775496850912958
Ba 14.150610744499003 8.324026763289767 17.609700678556344
Ba 6.7887291463082695 8.122385176273841 14.051768594867173
Ba 10.056681923126352 8.815578426784276 16.67927879181749
