27
Energy = -35.96714099 eV
Ba 14.282435351495174 16.04030370582565 11.997348738766012
Ba 14.827993689671503 15.719685883563274 7.659914944869776
Ba 15.09974546521917 11.97247016890012 13.732216932321478
Ba 17.64911447782745 13.330993085007796 10.40403720227463
Ba 10.415489831569896 15.547726351823307 9.471512799431155
Ba 7.1857002345733925 12.081037554696028 5.6026574355502134
Ba 11.494537217923641 12.765562372112555 5.974470685397965
Ba 10.86669696399579 13.192510830484581 13.247311028715993
Ba 13.535423546400796 12.519983120108883 9.786628904006928
Ba 15.93767821357104 11.625419301142221 6.446654384074025
Ba 6.789657290171376 14.63898196661859 8.528915120925024
Ba 7.185700234573394 13.37293578088734 12.284312963505949
Ba 18.063856033291867 9.812919950150368 13.519460066764388
Ba 9.369899415113164 11.361534436309713 9.462335984987318
Ba 16.640572648189583 10.217998072852712 16.744217696272695
Ba 16.166320602185998 9.164912539078736 10.222873154849607
Ba 17.64911447782745 5.732321913835319 11.83208425113892
Ba 12.188029949193536 9.236657820467261 12.019044539508576
Ba 6.2216114279603145 10.132422503792203 9.315571520671794
Ba 8.450732499258251 8.404054523775061 6.196136305181533
Ba 8.217973070181996 9.531217714910536 13.475076434665004
Ba 12.133304731370723 9.891339088919036 16.236820073521525
Ba 12.529231523935033 8.758994147589497 7.713590778378333
Ba 13.783622986729434 5.492072373290542 10.728813934740334
Ba 15.298519385359583 7.485704420313896 14.35736921884744
Ba 9.219498710558488 6.876843503296438 10.170952484287564
Ba 10.962962189279441 5.979982595250703 14.255575921634168
