27
Energy = -34.63566204 eV
Ba 9.505990453028133 3.9514478412606056 7.564962002003288
Ba 9.506187047894686 7.790509994623833 6.050286290795312
Ba 6.097129413032483 10.626093155386847 7.451111987584945
Ba 7.640046727868841 6.901994000123481 9.91346201728679
Ba 7.754556051363842 14.671150800561188 7.587641458746805
Ba 10.052319428126864 12.136665812927703 5.4206593845369095
Ba 14.38282512083864 13.626579656156846 5.240895770775724
Ba 12.079137414468937 6.718628154021661 9.514398921780504
Ba 10.945395731391704 16.517126215616827 5.438458522624893
Ba 13.368518290470215 10.070358509122359 7.017822071656787
Ba 4.981409070002016 13.953591181202633 10.450447571610976
Ba 6.6993892996440145 10.592757738944567 11.83187558869166
Ba 17.168036431951283 10.395052629932302 5.525312693599396
Ba 9.756076474825608 10.634533301109022 9.254794421222854
Ba 16.292389499121946 8.47793109413746 9.5552009176081
Ba 6.097129413032479 13.3225012116031 14.84265066432273
Ba 13.19784393511605 10.483134598207029 11.344851536303324
Ba 10.195249828974232 7.97781896480143 13.370883984759585
Ba 6.572674990452492 8.970397014639511 15.480941341345577
Ba 16.053900845151073 12.849730260836871 9.05062146115641
Ba 13.42152417630459 14.11245234184665 12.9978628256845
Ba 12.026737741702474 14.098704496347915 8.58193770730012
Ba 8.814836842183077 14.413128183670727 11.647655968702173
Ba 16.81719588516291 11.317647561414097 12.989435679187357
Ba 9.892710364040536 11.84059597621417 14.811551172199973
Ba 13.694188399759943 10.033613127303848 15.480941341345579
Ba 10.233823725258494 8.910555981956305 17.78444486587617
