23
Energy = -31.59553913 eV
Ba 2.9541243189040522 6.215436533034713 4.146327106330784
Ba 8.71718921321677 4.146327106330784 0.5440931782111337
Ba 6.271729719262798 0.46193477936778876 1.8887683563667428
Ba 6.271729719262798 0.46193477936778876 6.403885856294825
Ba 8.71718921321677 4.146327106330784 7.748561034450434
Ba 10.011426067586832 6.433322308813613 4.146327106330784
Ba 10.011426067586832 1.8593319038479545 4.146327106330784
Ba 11.664220899554206 8.066908462492192 4.146327106330784
Ba 1.8621217011150515 8.082817744757499 0.5368604918573685
Ba 12.320730548446239 4.146327106330784 1.8863773597126041
Ba 12.320730548446239 4.146327106330784 6.40627685294896
Ba 1.8621217011150515 8.082817744757499 7.755793720804206
Ba 3.1879329056247796 10.36232694 4.146327106330784
Ba 6.271729719262798 7.830719433293779 1.8887683563667428
Ba 4.148893793183847 4.146327106330784 0.4118711183503272
Ba 2.9541243189040522 2.077217679626858 4.146327106330784
Ba 4.148893793183847 4.146327106330784 7.880783094311242
Ba 6.271729719262798 7.830719433293779 6.403885856294825
Ba 6.5490809404170545 4.146327106330784 4.146327106330784
Ba 3.1879329056247796 10.36232694 4.146327106330784
Ba 1.8621217011150515 0.20983646790406937 0.5368604918573685
Ba 1.8621217011150515 0.20983646790406937 7.755793720804206
Ba 11.664220899554206 0.22574575016937487 4.146327106330784
