23
Energy = -28.77221617 eV
Ba 7.244871482676606 13.709112305018598 11.44354191922631
Ba 10.508935803542622 11.446779039106088 13.01297950587576
Ba 9.93481529042361 10.234589130079739 9.13011728817701
Ba 13.702134018429069 8.790891651930322 12.010112715039297
Ba 3.028434287491077 12.137111650142824 11.940007405588997
Ba 8.967082449421795 13.893414162817177 7.541683251680173
Ba 11.666307579876628 12.009757281488474 4.822647696479817
Ba 13.873640299227207 10.149417593600301 7.966607368044537
Ba 5.443770766052817 11.219840868723436 8.452477290671643
Ba 9.822448614679242 7.018437285823704 12.469920668310358
Ba 6.502457282671122 9.549437689004728 12.173281878550325
Ba 13.230914672785236 4.363613708937883 12.835691175679035
Ba 7.720661453725293 10.34637486873774 5.04711448109157
Ba 12.107471290833436 6.138273550047741 9.039512836515653
Ba 11.058561352100579 7.795990100902331 5.3406052921463045
Ba 10.017698254864918 9.455416102120912 1.4681463043499468
Ba 7.521141470777039 6.98799919445659 8.351114280141928
Ba 3.0681121069701254 8.021667164389294 10.079535910790796
Ba 5.826443573533022 5.143680073114623 11.669333106579941
Ba 9.47561148609746 3.1369826236796543 10.639798660876634
Ba 4.2042391440586835 7.706393447088267 5.954784458333161
Ba 7.4504071281421 6.3368377811520125 3.5059796743055576
Ba 9.329282234513643 3.796092933156271 6.404050521424765
