28
Energy = -36.79860431 eV
Ba 9.531181425625762 16.891892749934875 16.04961883936112
Ba 7.746561247713957 13.02134920290883 16.789634822387228
Ba 8.840078373652638 14.11864371574915 13.434948210720444
Ba 11.989122334822339 13.331648565040508 16.049618839361123
Ba 12.25704695100196 16.868253937560404 13.31822023217251
Ba 6.01400904265095 9.04063275131263 17.213581985546348
Ba 5.650184162155571 11.231936950247682 14.047988491861332
Ba 6.562679916770341 12.977690633593106 9.76277124692181
Ba 10.125240793747327 15.758435140563892 9.504384609175998
Ba 12.529339380281455 12.862065097129724 11.472024847224827
Ba 14.728500211325864 15.782089482320583 9.616084234038109
Ba 9.654951865808847 9.687264611983199 15.619639655280583
Ba 9.188528443724707 10.176532302864599 11.542056101226166
Ba 6.690337790488296 7.005592288159039 14.031992654717449
Ba 5.419101298327856 8.652289797965826 10.187654884043715
Ba 7.736154373586885 14.703951333307987 6.068490072488042
Ba 13.726037907146816 9.770773643584787 13.921631182434867
Ba 12.149009988323302 15.560335417819307 6.0496008953702916
Ba 14.988888972463338 14.262579195817288 13.935527139039761
Ba 7.059208165797907 4.884480992946672 10.438959477925424
Ba 6.4634924981936015 10.320872249987918 6.62508908000843
Ba 10.324293684051822 11.83217371309548 7.75130863224667
Ba 10.726803096639184 6.638583804989391 12.4281773285462
Ba 14.496688908975925 12.286680510753586 7.168900755624603
Ba 15.843811924359052 11.558699238977017 10.80390666797575
Ba 5.389745415940651 6.296189922480101 6.625089080008429
Ba 9.24256246812501 7.504215794167472 8.194764163366505
Ba 13.174828314437933 8.916621041245243 9.655053951326407
