29
Energy = -37.68223189 eV
Ba 11.626780822606781 7.587011460267347 7.2224575172478
Ba 12.233576583126021 8.8401118036651 11.563228714433327
Ba 8.557374795048453 7.842143150192527 10.258283952476727
Ba 8.56635371934378 11.801829125355065 11.620353881604014
Ba 17.362740428313916 14.22907195601378 14.197063354327971
Ba 12.953171380422413 14.461700069779113 7.098531068927099
Ba 6.352458731653433 8.554526380612975 13.778445068620131
Ba 13.864732139495786 7.9964744339459015 15.457427338296217
Ba 9.965208215661425 6.833227075946048 14.18012262348793
Ba 5.530042303350053 10.1070986111415 10.024340015008013
Ba 16.18753206480627 10.49082819611098 12.367279810855727
Ba 17.2270929313238 17.938059710569657 12.119665233199092
Ba 9.889974348665923 14.825970571503944 14.34220006692982
Ba 6.768382313758909 17.001770656026466 12.5515548651146
Ba 13.863009594701513 12.332823297430814 15.417311040032907
Ba 13.762629159582719 17.938059710569657 9.785212103006097
Ba 10.028995634742216 10.486241061885577 15.231936502059135
Ba 14.020185307099904 16.26067296445031 13.616216533926009
Ba 6.672102111895661 5.053392536452197 11.667298551288063
Ba 10.71106327383926 18.67973157468562 12.871175545332479
Ba 6.048787740928969 12.981804763195964 13.796969579935714
Ba 6.04878774092897 14.172069566582152 9.276497284430452
Ba 9.941780389248034 15.928602958992537 10.001928853044845
Ba 12.633808159036148 12.99314305002837 11.333131764685227
Ba 16.323905797592786 14.397869570699205 10.09771733049258
Ba 9.777746419469509 11.495820178644793 7.7529446060390494
Ba 11.183944606947852 5.092440302239425 10.444099670353323
Ba 14.505625921121627 10.6209275564891 8.190145962623284
Ba 12.483124959928341 10.900278030933757 4.91882161978557
