20
Energy = -24.88456447 eV
Ba 4.687780807435871 10.842729740682236 8.511495703481929
Ba 8.187721007687957 11.796259209385111 11.081948992300862
Ba 4.830099322281216 9.34360367977603 12.444763624338254
Ba 11.734688370518581 13.135465197862468 8.585338291536207
Ba 10.91506667125723 8.097436799454604 3.511474397120597
Ba 1.9522418311222054 7.577585208455661 9.720943588093471
Ba 9.125712921329145 5.277497132593422 5.851920136848824
Ba 8.581816778601768 7.404665774540494 11.664736953152222
Ba 4.7998692064453525 5.046526542999503 11.941706310244998
Ba 8.310322086688037 3.5572951920953346 9.776896589615857
Ba 11.521118407386531 1.8658279432738123 7.432722537415088
Ba 13.59891861888959 9.304121423489846 6.801802956266619
Ba 11.870381349128065 5.881695846652074 9.123262822739758
Ba 9.533183977064096 9.455722141139868 7.809623847914227
Ba 12.26221750043346 9.796678445456307 11.174983750238257
Ba 5.954997634129601 6.97636359325728 8.327444747718026
Ba 13.429277504397968 5.115126253350924 5.229904865149504
Ba 10.775516720915926 12.165923373448807 4.4860986563145335
Ba 6.929638247088044 9.579846597479184 4.707330655537563
Ba 7.620247419809902 13.471293580787206 6.958380032494378
