22
Energy = -28.58981488 eV
Ba 11.919484633368125 7.033367068093634 4.992727058511311
Ba 12.742680496226278 11.41791586704724 5.376554688388566
Ba 15.232644096260023 9.177034464803997 7.871407208042687
Ba 8.838041915884007 10.65222904342299 4.99272705851131
Ba 13.282892058944276 5.6807671450944905 9.0490120138842
Ba 7.503215275001066 7.019331479086822 5.648996991973426
Ba 9.451135979744068 5.193959270179321 8.151750398112808
Ba 10.49555462455707 8.945987047861802 8.20742462210001
Ba 13.019956722983505 12.62055660517211 9.649011050751822
Ba 13.353674853692857 9.056037973611181 11.92173597611461
Ba 9.443313445567718 13.464961856536663 7.5353000014454325
Ba 10.089578351076154 14.548704837728463 11.48696125626562
Ba 12.084046787075737 12.77025538315486 13.994274356344446
Ba 10.120059444826111 6.322265086458433 12.091692687698085
Ba 9.048454372800736 10.850900975673477 11.44241281479318
Ba 6.194173324654882 10.722710463445335 7.708997765437152
Ba 6.5347180112352214 7.153716236426202 9.976582621064557
Ba 6.250453576762491 14.125423460106001 10.563107849478309
Ba 7.635443552015327 12.729937330399 14.60753429096837
Ba 10.696530867509788 9.13534432923547 14.60753429096837
Ba 6.801377083058486 8.325512076300534 14.262172592422374
Ba 5.247629729300524 10.622723944640072 11.7809705654231
