24
Energy = -31.11800392 eV
Ba 11.445605901776029 14.78843770397459 6.2046626207353865
Ba 15.653957650733414 14.798914913662957 7.324818103390854
Ba 11.17219815700695 7.057369234031193 6.643973491566536
Ba 13.380361723202217 11.115947537906905 7.163252534797561
Ba 9.227373471580448 10.915195987440814 5.654536553786964
Ba 10.280610181342226 9.727432197950488 9.727748021863581
Ba 8.290447396248151 13.682542292089572 8.900563231830535
Ba 12.375549947367848 13.849234637869365 10.433060348095202
Ba 15.653957650733414 11.65185835896869 10.279438424900574
Ba 9.020919703262516 5.3188494305615635 6.256592334092915
Ba 14.149577567899934 7.689879269714778 9.858087838928785
Ba 7.021242708978279 7.121319746203304 5.547992881432685
Ba 11.774835090547217 6.0679222175989835 9.601540808398703
Ba 5.287257253193483 13.022358492328296 12.023343217176492
Ba 13.185910042786542 10.474887046069927 13.081162249569868
Ba 6.086335112503494 9.901306505501093 8.852778294062801
Ba 8.001130512917706 6.0679222175989835 9.595992313889132
Ba 10.776414067194475 6.83110436887429 12.85441930046195
Ba 9.19755824736902 12.018634176967197 12.748804859354301
Ba 8.675739450252042 15.500278165826982 12.600068677935054
Ba 11.732450230574905 14.064169991101211 15.22495351940574
Ba 7.190308236457065 13.146183032605165 15.38820613772503
Ba 10.090137711456928 9.867976773894872 15.550721320135628
Ba 6.789987834436728 8.882978313843724 13.16702119204712
