29
Energy = -41.01307845 eV
Ba 9.574835311423753 8.219010680628443 5.72131733781348
Ba 11.70736852201805 11.905661716408831 11.452361445377337
Ba 9.574835311423753 8.219010680628443 12.51802483386533
Ba 5.569991801237938 8.219010680628443 11.451288252092391
Ba 4.998989055756419 12.239391786869767 9.119671085839405
Ba 8.50989575091427 1.4869237406424578 9.119671085839405
Ba 7.403606811550177 11.98487456639858 0.020541026973745394
Ba 10.873389621835974 5.956264462851125 2.780771063413344
Ba 0.9837899018667926 8.219010680628443 5.281656831152171
Ba 11.70736852201805 4.532359644848059 6.7869807263014765
Ba 7.403606811550177 4.453146794858314 5.28648387938175
Ba 6.9638464285554456 8.219010680628443 2.7847689730362446
Ba 10.873389621835974 10.481756898405767 2.780771063413344
Ba 11.70736852201805 11.905661716408831 6.7869807263014765
Ba 12.03559531433906 8.219010680628443 9.119671085839405
Ba 8.343695327628794 6.083798752292446 9.119671085839405
Ba 5.569991801237938 8.219010680628443 6.788053919586424
Ba 7.403606811550177 11.98487456639858 5.28648387938175
Ba 8.343695327628794 10.354222608964447 9.119671085839405
Ba 7.403606811550177 4.453146794858314 0.020541026973745394
Ba 11.70736852201805 4.532359644848059 11.452361445377337
Ba 4.998989055756419 4.4531467948583145 9.119671085839405
Ba 8.50989575091427 2.2732975757623017 9.119671085839405
Ba 2.5414767412590473 10.391535358975664 9.119671085839405
Ba 2.5414767412590473 6.04648600228123 9.119671085839405
Ba 0.9837899018667926 8.219010680628443 0.025368075203323036
Ba 10.873389621835974 10.481756898405767 2.780771063413344
Ba 10.873389621835974 5.956264462851125 2.780771063413344
Ba 6.9638464285554456 8.219010680628443 2.776773153790432
