26
Energy = -34.53959411 eV
Ba 14.822720121935026 6.554577377974368 16.8341515848322
Ba 14.80155292231091 11.03728684898348 16.063135909702034
Ba 11.12194109996811 13.482319800146065 15.188900672005964
Ba 15.365315697092106 15.207251444371499 16.063135909702034
Ba 11.342649626180016 8.608436947943732 14.679879862623189
Ba 15.283676534141668 8.274974531232553 12.503199229200423
Ba 12.654130919396565 4.7723036019134515 13.005702506401537
Ba 8.435652069259929 10.57877811286679 12.03145439461041
Ba 16.510650325858435 12.976149772585007 12.154431716383575
Ba 9.697390561869963 14.647301741109077 10.707448609236893
Ba 8.227161442800009 6.210758573137442 12.39079144371296
Ba 13.354034244686178 16.339755684116422 12.456403190612372
Ba 11.606246334525453 7.855352297793306 10.401805015892574
Ba 4.632984122608101 8.7366757085625 10.66633525439015
Ba 14.912890302986904 10.061776571605883 8.477087414919877
Ba 12.650830449173501 11.711741096899809 11.874952432527689
Ba 6.573955892412293 12.11440899787508 8.352052742455506
Ba 14.753210147507627 5.538052162467417 8.951280458936816
Ba 11.906981128443197 7.711685937210169 6.112533707049502
Ba 9.685584543331245 14.728307737894673 6.210314002630632
Ba 8.00456657613947 7.876143033505071 8.26211943135631
Ba 13.623543549653414 14.329213606289201 8.497466144537263
Ba 4.457632107685911 8.969832813926223 6.112533707049501
Ba 12.828080256083908 11.9444722886714 4.7537276149976915
Ba 10.691875747517114 11.227496350617209 8.214280433740045
Ba 8.465406065053987 10.513190848734531 4.770596583478198
