23
Energy = -30.11484891 eV
Ba 6.078606872719364 12.963422172003455 10.47959162058609
Ba 5.424202932371098 11.251633353630783 6.9562629305258294
Ba 5.424202932371097 9.85489079946723 13.519760245998098
Ba 6.844399697220724 8.84648874010034 9.43915293909765
Ba 10.460024003631721 14.39634442182094 10.757999440075602
Ba 8.702426513445607 10.181370379501878 15.08655904781713
Ba 8.623572975084139 12.361262101715415 7.0044106731911455
Ba 9.142960680324558 6.9260179994148325 12.635816122695312
Ba 7.494666009661239 14.00917390744945 14.490262266259853
Ba 7.409600250572327 8.534829482228663 6.49318400459802
Ba 10.199300946704792 5.958882642467807 7.845312597024411
Ba 9.26973169742376 10.940857623694885 12.548931083212262
Ba 13.33815225511122 6.871332137982957 11.142411245669798
Ba 12.028653495200551 13.278741394524815 14.860398137387833
Ba 11.48014817308942 9.50722350695951 6.190788804246187
Ba 14.86585068418671 15.008094539778863 11.657673251415043
Ba 12.532603352420539 8.938436752462982 14.884307669932168
Ba 13.346780908229224 12.960435112494565 7.6357368278427735
Ba 10.83862858997299 9.646477231503376 9.060610832487257
Ba 13.536242186640383 11.125837548967953 11.476109794223444
Ba 14.865850684186707 11.573417189786074 14.317304142813903
Ba 14.78444396530613 8.8415024936687 7.668197767591444
Ba 15.817832932042462 11.876569634730926 9.894115207972298
