26
Energy = -34.76640357 eV
Ba 8.21197392659879 12.455621772119793 17.900913724542256
Ba 10.124036240436235 8.312567210421149 16.631365671694745
Ba 12.251732980411962 12.164214591579025 15.696171684652523
Ba 5.321647134663213 9.300338172114028 16.734005634946385
Ba 4.832169213570636 13.167446328056643 14.658369482587533
Ba 11.485817935878236 9.50837498162897 12.749161874245067
Ba 14.728313088960089 8.124450590509248 14.448765400667613
Ba 11.1350820678735 5.581038679620313 13.420767339060706
Ba 6.855565254793208 6.26223611902495 14.090921607775218
Ba 11.530606403498414 13.429193687620474 11.486922995482269
Ba 8.12194875511628 10.858423848565083 14.082187882287894
Ba 8.844153229364672 15.09856483226541 14.249602837883693
Ba 4.8321692135706344 9.372055230454716 11.952717139792815
Ba 7.251307949111585 12.86087961792393 10.68182651726478
Ba 10.540404614174085 10.61080204737295 8.646535372885285
Ba 8.577809578339362 7.903873447286009 10.887907494407296
Ba 12.963406095110512 6.978150351195899 9.865260002490464
Ba 6.373953483917 9.73037025657857 7.6003111803138435
Ba 14.728313088960089 10.873070032666513 10.441940303863408
Ba 9.430042873013509 16.63617470583367 9.760629873087634
Ba 12.46433644211259 13.811409744562832 7.178265849002537
Ba 13.660238118097874 9.436925556875297 6.368289179676687
Ba 5.610702542323951 5.612775608779083 9.548911325509795
Ba 8.168299224127054 13.84260081622428 6.717260938406776
Ba 9.572578615253398 6.790529929291684 6.923640205515686
Ba 9.796040460491026 10.639376252931728 4.667929208574263
