30
Energy = -39.9717233 eV
Ba 15.752441852160313 6.8483989165009325 8.009508771038796
Ba 12.323746806723697 5.722895128039775 10.380331827695343
Ba 16.45602216978436 10.470927559090235 6.0828461062763735
Ba 16.574543707047592 6.3475326030009995 12.024979892806224
Ba 12.569595049735314 9.38823199697701 7.0566407304674055
Ba 17.11486655787218 10.396421301072376 10.129099908270746
Ba 9.181712887820598 7.127607008436327 13.384979860449596
Ba 12.804722943989852 12.59485844924472 4.69944875330702
Ba 13.294595792929629 6.443413786700778 14.852888934180877
Ba 9.012847919479254 8.466816154081371 9.49577572363786
Ba 14.41038944072269 13.208832705896603 8.156846313299248
Ba 13.308418151435585 9.077209253080884 11.175833452530357
Ba 16.034160210317996 9.935012426473799 14.688176981302538
Ba 9.027102298610142 11.551171682420575 6.082846106276372
Ba 10.631347577544812 12.41717332056399 10.151135455399253
Ba 5.783643166875915 8.340482662187812 11.858120211463117
Ba 14.290518083763097 13.153996351070393 12.493557519759186
Ba 10.844121741704798 15.391071621521538 6.967864570288938
Ba 11.644578052333138 10.403321720317356 14.745211531919315
Ba 6.119647686919437 11.944908786733066 9.304478881848436
Ba 13.6099258433692 9.436428229884964 17.689774089168218
Ba 6.737946493451589 15.015306644358182 6.553306471843833
Ba 9.970976909488824 7.508134344510956 16.861686033002087
Ba 12.443985868449985 16.600791502181444 10.762672780964795
Ba 7.7842336905342755 11.51450349410585 13.250231663636011
Ba 13.728381983453517 13.481348199800562 16.861686033002087
Ba 8.063334023163911 15.731388792766603 10.516930409464699
Ba 6.37955518215388 8.984793038656063 16.158511325143866
Ba 10.526195095613057 14.64492530417555 14.11912539311403
Ba 9.391722907829605 11.882778856613502 16.95466550173422
