30
Energy = -41.59197772 eV
Ba 15.936509023172626 7.209131943481264 11.304300444776725
Ba 18.823263305291533 11.438919388911993 12.614505201989234
Ba 13.466929951048485 7.262121156267775 7.471851862534971
Ba 17.04319340526247 14.248187193246936 9.38473015973035
Ba 16.657004854957076 10.360664275510066 7.756805502492601
Ba 13.491872229253639 4.078908668708436 10.179879483488184
Ba 17.04319340526247 7.946894410604479 15.655198825736502
Ba 13.63632098870114 5.624899395334648 14.516920514843841
Ba 13.374836423801371 9.298763661332298 14.26260904703206
Ba 11.609592855828575 6.884785278820094 11.331684774632343
Ba 15.093422914476388 11.810917337667368 17.026004961551024
Ba 12.664016669767607 11.688887355337073 6.889319027103374
Ba 13.353471667768607 10.631298962508485 10.32198032329028
Ba 14.761817909940648 8.941832479613808 4.347584074235003
Ba 9.79721995115751 4.044013889034798 12.512557984198738
Ba 13.1935866662374 7.841424137146455 20.158832929396166
Ba 9.5245233909393 5.775640911158471 8.02907976624364
Ba 12.8909856740637 13.563702530066838 13.457020005501269
Ba 9.779180001078661 9.507706158702584 8.601334520022991
Ba 10.287481220650358 8.285736366400217 5.304188770706079
Ba 10.36597336978336 13.718847575960291 9.506161023079217
Ba 8.01888210499972 12.07014892428823 6.576584665225227
Ba 10.48329547546522 11.198762227810683 16.800583172363275
Ba 9.669651519991424 7.104713132537544 15.262184825056403
Ba 8.018882104999722 7.157094820896802 11.4047056444178
Ba 9.752711095741626 10.68236257660877 12.61565591300497
Ba 6.694222008597727 8.173379052187157 7.318133109055706
Ba 6.969866547024611 11.481048517711203 10.212151735798372
Ba 6.767715383770065 9.938043710995732 14.515676471700413
Ba 3.9814076343655054 8.447672377017186 11.135924242333639
