37
Energy = -51.61931282 eV
Ba 10.873980527013307 10.98353366525554 19.00526288474771
Ba 9.838033317622353 10.581004270408132 14.769062510677827
Ba 6.584645335912447 8.344636366586583 12.798228697518933
Ba 8.413140303282804 6.666921628861132 9.168454882222775
Ba 10.95820874308069 7.27064501580042 12.692459061105865
Ba 13.849869481652574 9.075228399660725 15.94380276725839
Ba 12.729137695404045 4.3784201518168775 9.817945580452234
Ba 15.206642801033151 12.054214396418589 19.160654858169675
Ba 8.575390860006443 14.311290097625802 16.6310649804449
Ba 6.585579736813234 12.819900723087349 12.792003529635412
Ba 11.882509263530098 15.248881386974528 19.61208328496631
Ba 5.587826120878672 10.719457255832422 9.18294832319768
Ba 15.013719855206046 7.270645015800418 11.99390363647823
Ba 12.819167553221792 13.31654155193458 16.04598614804791
Ba 9.536596711679909 10.486986854692438 10.424362575341263
Ba 8.507716981852829 9.852431197334285 6.50946700755914
Ba 7.435286664116501 17.110330483778835 12.775365948961532
Ba 4.828532454868806 15.340739937148953 9.765151469473825
Ba 7.622628845122694 18.446785889074413 8.538824733227491
Ba 15.63055133093582 16.11360523625305 17.418462256455452
Ba 13.654886697455645 11.168325889185692 12.054983774461363
Ba 12.372751943195155 8.22165802563938 8.423952600139325
Ba 8.687541885142368 14.260930098478655 8.810459458020071
Ba 10.57662322327138 14.26519330544589 12.729296501014877
Ba 16.852458363019533 12.339403768987694 14.811910491975047
Ba 16.524778418976712 6.726472485436724 8.217772296881773
Ba 11.411784848060496 17.481981547245788 15.61206798810287
Ba 13.285475902786306 14.437075295771487 9.492889868934308
Ba 12.018069368021091 12.248047422097837 6.576363231297649
Ba 18.285348988266335 9.694753563576139 11.372769541441361
Ba 14.643902030769567 15.952484111987761 13.15576593028242
Ba 15.680660401800107 10.799567234906592 8.267872398193308
Ba 11.649601504144467 16.90978769794466 6.610257072690876
Ba 17.426927954890868 13.996108083516027 10.510875806554298
Ba 11.27718754684316 18.032847765906073 10.933124223568743
Ba 15.78938918589062 14.818954881198305 6.40964120253081
Ba 15.388500032874882 18.03284776590607 9.167047086472872
