31
Energy = -42.81147652 eV
Ba 16.36724841149931 13.112061565521666 9.284689914351404
Ba 16.300620699034265 8.781523385434324 7.986313683231962
Ba 16.300620699034265 12.825749417874146 14.047063796682746
Ba 14.933159430707283 6.004072444253524 11.950634951481579
Ba 12.784992045566232 8.788640144623244 6.044635407629156
Ba 15.982234979413022 12.22953068833732 5.892627586432026
Ba 13.660006299957878 14.707007221031086 11.405762979105038
Ba 12.169464026149821 7.975165038316649 9.263087867206846
Ba 15.209146884424285 8.669237305146392 15.662579644990439
Ba 14.095069363262379 15.949847932919262 7.156280990137506
Ba 11.676555622148216 13.228917445540922 5.376342867500408
Ba 14.75959583915586 10.399331622441908 11.689818803229777
Ba 13.308472926988854 11.864531966307176 7.957441256093051
Ba 12.652986587406346 12.256338163088024 15.040341714149479
Ba 12.336497077061008 5.881771633824902 15.628477589903973
Ba 11.083067499915993 17.565708254918555 10.214419587367868
Ba 11.578785096005666 8.236034330491009 13.4588316863544
Ba 10.53865023309184 5.5628961377315616 11.433253116077424
Ba 10.064166453644624 14.691081047914894 8.487175287474313
Ba 9.501947989350448 15.103393216264532 13.005222379528263
Ba 10.991610344109837 8.740031998321642 16.72517616624354
Ba 9.223323650442161 10.432840640675044 7.130035538480022
Ba 7.988894170341185 6.52387971807814 14.889787992041958
Ba 10.707251138492856 11.516120622862386 11.1355025111973
Ba 9.433442210578214 5.881771633824903 6.940633324873408
Ba 7.959498301369579 8.15774205664975 10.746412664044774
Ba 8.320715039052292 10.913218059908168 14.489918172657251
Ba 6.658870915728991 16.00027176899861 10.41229749194486
Ba 5.444520796357757 9.603270375559996 13.355448157527059
Ba 6.662316278168285 12.386927086063821 10.490499178350593
Ba 6.294090085847937 14.147603786083451 14.034717064868767
