38
Energy = -53.010829 eV
Ba 7.3771386316484335 1.073609115332668 7.377138631648435
Ba 0.8761650699186521 0.8761650699186521 0.8761650699186521
Ba 7.3771386316484335 4.084580961978258 0.8880056011469576
Ba 7.3771386316484335 7.377138631648434 1.073609115332668
Ba 7.3771386316484335 4.084580961978257 7.377138631648435
Ba 7.3771386316484335 7.377138631648434 4.084580961978258
Ba 1.073609115332666 7.377138631648434 7.377138631648435
Ba 4.084580961978256 7.377138631648434 7.377138631648435
Ba 0.8761650699186521 4.28202500739227 0.8761650699186521
Ba 0.8761650699186521 4.28202500739227 4.282025007392271
Ba 0.8761650699186521 0.8761650699186521 4.282025007392271
Ba 4.28202500739227 0.8761650699186521 4.282025007392271
Ba 4.28202500739227 0.8761650699186521 0.8761650699186521
Ba 4.28202500739227 4.28202500739227 0.8761650699186521
Ba 4.28202500739227 4.28202500739227 4.282025007392271
Ba 7.3771386316484335 4.270184476163966 4.084580961978259
Ba 7.3771386316484335 4.084580961978258 4.270184476163966
Ba 7.3771386316484335 0.8880056011469576 4.084580961978259
Ba 0.8880056011469576 7.377138631648434 4.084580961978259
Ba 4.084580961978258 7.377138631648434 4.270184476163966
Ba 4.270184476163965 7.377138631648434 4.084580961978259
Ba 4.084580961978258 7.377138631648434 0.8880056011469576
Ba 0.8880056011469576 4.084580961978258 7.377138631648435
Ba 4.084580961978258 0.8880056011469576 7.377138631648435
Ba 4.270184476163965 4.084580961978258 7.377138631648435
Ba 4.084580961978258 4.270184476163966 7.377138631648435
Ba 0.8880056011469576 7.377138631648434 4.084580961978259
Ba 4.084580961978258 7.377138631648434 0.8880056011469576
Ba 4.270184476163965 7.377138631648434 4.084580961978259
Ba 4.084580961978258 7.377138631648434 4.270184476163966
Ba 0.8880056011469576 4.084580961978258 7.377138631648435
Ba 4.084580961978258 4.270184476163966 7.377138631648435
Ba 4.270184476163965 4.084580961978258 7.377138631648435
Ba 4.084580961978258 0.8880056011469576 7.377138631648435
Ba 7.3771386316484335 0.8880056011469576 4.084580961978259
Ba 7.3771386316484335 4.084580961978258 4.270184476163966
Ba 7.3771386316484335 4.270184476163966 4.084580961978259
Ba 7.3771386316484335 4.084580961978258 0.8880056011469576
