35
Energy = -47.81422906 eV
Ba 14.80688963501856 13.863166673523166 6.183491601184787
Ba 15.841389672016597 17.715397559656626 4.457643368683558
Ba 13.750044104977103 9.777574532856791 7.378329776784013
Ba 10.742136759936965 13.101602863465677 7.73757894061544
Ba 11.898659148924141 17.022492730995175 6.183491601184787
Ba 12.703402165661815 6.1375136105771135 9.093550673039877
Ba 9.660625578979998 9.025222050588617 9.295141874118904
Ba 18.399285995868897 15.373876286282986 6.640361205298265
Ba 6.959134911703493 12.344580013110082 9.638402448031716
Ba 7.684603214421232 16.23676710577349 8.12958504913007
Ba 17.624362053576856 11.439030298747285 8.481960633477058
Ba 16.400794323734893 7.47709088054561 10.42292723636736
Ba 3.8497857836583305 15.466280377134707 9.845992102166417
Ba 14.335502361733363 13.710193804399074 10.070918953010326
Ba 15.463101294101929 17.475059622550422 8.542455452827127
Ba 14.643194083624104 4.198553866525854 12.429733201443627
Ba 13.09883093463205 9.85820565351246 11.512144014437835
Ba 10.126614778035032 12.93535612879568 12.017956314652926
Ba 7.211874296929517 15.990570250801174 12.372207281055095
Ba 7.683177631535904 9.611149837137871 13.15369755186157
Ba 13.786568255970726 13.523859214737225 14.380002981307268
Ba 18.014726833732087 15.000832993089146 10.953608271293778
Ba 11.43360134720104 10.13722576414718 15.508154406201186
Ba 11.364438305007685 16.8232401025995 10.53258634338969
Ba 11.014855866351114 6.783212550075377 12.952332995608435
Ba 4.8249773071906095 12.77912326615316 13.253726144451338
Ba 17.00950915222801 11.149494214967868 12.894522747782563
Ba 15.014259871457403 7.6076606019267 14.699189482464137
Ba 10.965830035628747 16.513017488455 15.026436937629247
Ba 15.089688183467443 17.234125349347742 13.101707853554057
Ba 8.079603781222735 13.161728249387538 15.768358657737945
Ba 14.807497005551191 16.192070486597064 17.231347096838647
Ba 18.01472683373209 14.633823721235716 15.257014400074011
Ba 11.607752388021668 13.487019538130255 17.946413336884767
Ba 15.571691335505612 11.392243477625518 17.039778312194294
