34
Energy = -45.58735636 eV
Ba 16.60664031519733 12.607431076720749 5.941762018761726
Ba 13.039464853033403 10.479418873720183 6.991812231295009
Ba 13.290515174424307 14.790248830196031 6.848777032323449
Ba 12.35840420254057 16.234605471561203 9.914324029476862
Ba 9.807144498901229 13.15244447365093 7.9122000099839935
Ba 16.77782391132497 10.296826038351494 8.422255643429846
Ba 9.030127547075331 14.409795994762778 12.017956425303833
Ba 9.475851627847254 8.774504380602032 8.151424899006864
Ba 16.5345084967227 14.68764055455785 8.780422667945304
Ba 15.571537830785852 16.180841573644944 12.880944729830489
Ba 13.30551671208614 12.120439036313055 10.022188153051298
Ba 7.186939051458941 11.5585904874325 9.806029800602674
Ba 11.41850829136603 17.12612768407531 13.801800199023317
Ba 13.40705450060146 7.732543038979911 9.71927507312985
Ba 9.739534609923194 10.165722345347218 12.07699857916003
Ba 6.934591254241245 7.462915600853256 10.523640320146397
Ba 16.946307195835026 12.041243022284572 12.512335625445118
Ba 6.951955976251267 12.193507218785259 14.108240766362877
Ba 9.99598831681974 5.984325366841208 11.826395306836648
Ba 12.596894146522978 13.596399951009074 14.304465729614778
Ba 17.257357760410148 7.645211986379282 11.931526058896067
Ba 8.65890769895013 15.362165474920397 16.154985779633307
Ba 13.813618684351283 9.207193757630247 13.84771345984844
Ba 14.22196257562319 16.692756817812498 16.891782508551973
Ba 7.8387674792255435 7.941673692285915 14.56798739778198
Ba 14.048844195287199 5.866375744183953 13.354538260468933
Ba 16.10434212270573 13.395726354429256 16.60002194321631
Ba 9.580427582842184 11.214240847138127 16.228456236946368
Ba 10.890606444522746 7.044255363130767 15.99303255557988
Ba 17.51767770544294 9.203372519425804 16.063317665256875
Ba 12.085400088667841 14.180846866156974 17.943609433378455
Ba 17.971467695945915 5.984325366841208 15.05059982481539
Ba 13.455419067831269 10.1833998412339 17.943609433378455
Ba 14.848447336095935 6.095262194167579 17.455041860321405
