32
Energy = -43.82180226 eV
Ba 17.121569412457106 14.115312129933589 9.486160596030436
Ba 13.61539489492349 15.461925474941497 6.620224327170132
Ba 18.391821910269854 11.496366459580068 13.1010017250418
Ba 17.420258570233987 9.52029118007968 9.260542694593378
Ba 15.99412165589791 14.81155657577164 13.994081819300895
Ba 12.93071901767481 15.217180069149155 10.831235862353308
Ba 14.307341360011234 11.34260515894284 7.361460897579383
Ba 10.509669531809113 12.409606905863273 6.228164547971325
Ba 15.32297773433752 10.753177011715154 15.934048577290062
Ba 16.419038373760948 7.512094280991719 13.064126768640142
Ba 13.796103233918902 7.591597113712784 9.629593293635718
Ba 14.951855602535982 11.340038599271443 11.6476175681049
Ba 9.39935067878326 15.52030097903023 8.18460463978567
Ba 12.118109268567812 12.96238122816439 14.307657242269498
Ba 11.103134479221389 8.183676277552589 6.261654096736361
Ba 7.948665476201067 9.693977526889777 3.964686787273149
Ba 10.77344404895741 11.482903515566852 9.833267262496138
Ba 12.279888822837744 8.823305072863922 13.417799346651025
Ba 12.099865001466414 16.96961015658345 15.224479875553767
Ba 12.470389860975784 5.394961494819701 12.948420024495151
Ba 6.34311018176814 13.294872783514164 6.261654096736361
Ba 9.476332627584933 7.3136588870716785 10.560116941671806
Ba 8.622727675422684 10.992683196515276 13.490705841804623
Ba 6.445970833472695 12.889794271728999 10.02666051441857
Ba 7.271234446733179 9.630670977595988 7.617319402311278
Ba 8.885853186223217 15.315356549368454 12.657584402670523
Ba 6.093816657712914 8.997580256405804 12.125770055033046
Ba 10.811016447957446 9.95896975661956 16.759421464807712
Ba 8.720766332374383 6.797478747664482 14.785314900431716
Ba 5.756151982680909 13.231262062839278 14.173109906128293
Ba 8.7419545228449 13.898486284977531 16.75942146480771
Ba 6.231458662956987 9.937482121367688 16.727144230248793
