36
Energy = -49.06212625 eV
Ba 20.997727260449512 11.363853860923543 6.226469097947933
Ba 18.912308746545197 9.252339645934754 9.136367727916186
Ba 16.80087026953775 6.797645305943511 12.31550239670767
Ba 15.107637766192049 4.25766722721242 15.336423005927962
Ba 16.87875641595393 10.338287225167704 5.448200356591569
Ba 14.642790891512288 7.945277329797065 8.572046896399568
Ba 12.587117052918183 5.528767724325562 11.827957589976858
Ba 12.279801590926692 9.997156407984829 5.49887136963914
Ba 10.23209467222127 7.591184901892098 8.645860618926985
Ba 7.885586055582546 9.537891936005114 5.49887136963914
Ba 19.253922380024992 13.54818987601448 9.787031559683566
Ba 15.51411724753907 8.680379562870202 16.095179483202013
Ba 17.469176742493712 11.207561554996978 12.914258765778555
Ba 18.251937074095444 14.310313303616864 5.870917981187863
Ba 13.819431541845756 14.052774022404167 5.811248530429232
Ba 11.728143256782289 6.7848039518564605 15.789642434823065
Ba 15.684399154933493 12.115261303648785 9.04211486952423
Ba 13.467161186604358 9.546498763449696 12.422278360734802
Ba 17.606393336094357 15.651784000901454 13.184088546522995
Ba 11.4541045623857 11.566982123117514 9.254403207323373
Ba 16.05746677104506 16.300879443818328 9.139515219288473
Ba 9.353285509695526 8.825840442011541 12.733740771903053
Ba 15.54795554424493 13.259331336178036 16.382718006282467
Ba 9.308637740402283 13.463453585417557 6.186174214562696
Ba 13.752165644757692 13.936032047383076 12.550945931834725
Ba 11.699836301975273 11.227592515055065 15.872519873315813
Ba 7.3704151271574245 11.010818653859095 9.455964226056444
Ba 11.605938320117332 15.86899411950119 9.295364441319133
Ba 4.895918617425769 12.879606616761455 6.356375516261261
Ba 9.46006422084706 13.345714899213181 12.65989568170914
Ba 15.436544656950852 17.683111184939147 16.40805370936443
Ba 13.881803369617852 17.763229666458223 12.522986954794224
Ba 7.267840763794406 15.362472207445235 9.465988739622555
Ba 11.751545924377162 15.740620568590286 15.830567381880591
Ba 9.596801841284547 17.763229666458226 12.70421305866378
Ba 11.805255854338878 19.727181758884818 15.793750650254688
