35
Energy = -47.16184343 eV
Ba 14.967207703684931 12.469841575019666 7.0906966418167485
Ba 12.280583708209289 12.947897905322824 4.583651274170539
Ba 12.257068107431682 9.248646793243966 6.88787211256409
Ba 9.67209108521468 9.635328497145723 3.2807786446087817
Ba 14.947571401016653 8.806265348214682 9.507997999228026
Ba 10.87239540147886 7.068138246908417 9.600806141347224
Ba 17.221797478508588 12.024744177669618 10.520164806831207
Ba 13.589844359050316 6.627218312302793 13.189788933890929
Ba 11.581679714752987 15.27344508386393 7.294988556381263
Ba 8.96766672834286 11.957551985339594 7.090696641816748
Ba 8.248011403763499 7.642610595521173 7.024516156033436
Ba 11.560332223560904 11.473078103773176 9.589232487075876
Ba 9.477888482192153 5.97329482891299 13.299471472744152
Ba 14.409428111460956 11.049985145521743 13.154478005851283
Ba 12.156810846646737 5.456396020244206 16.715015885859774
Ba 16.485284470595417 14.416296360959581 14.289451878822108
Ba 6.812639223859171 6.486559959548177 9.818706965757642
Ba 10.22533240992761 9.397963779952907 13.390673801185052
Ba 14.245309519231006 14.725510066266281 10.886525355452562
Ba 7.42267943846202 9.86806019942932 9.760859853095791
Ba 12.893836608889597 8.858578894157256 16.842536984075014
Ba 8.806766203154496 7.270253030837904 17.017257786131193
Ba 8.191714556827433 14.25069818194533 9.949825970348305
Ba 13.537279128283373 13.309279807385952 16.71621035923457
Ba 6.139859443783477 7.844232302661326 13.475649178838141
Ba 10.765146027201029 13.90056729363062 13.449580377104967
Ba 10.781493503452262 17.151064158063615 11.074478658941153
Ba 9.418957575635682 11.762010667770795 17.177412026971815
Ba 5.439272029856258 10.117194120684138 17.14038342437498
Ba 6.6301249284982156 12.266286470880623 13.623599592083943
Ba 13.480106865371688 17.151064158063615 14.53987613918625
Ba 7.466746779640624 16.668888703570833 13.686811919742171
Ba 10.117081585758529 16.193824482878263 17.11355482312118
Ba 6.204339141730912 14.513065992510027 17.23983322611531
Ba 10.125045642601723 19.53126842649739 14.852697220576347
