31
Energy = -41.44416897 eV
Ba 16.4765282931606 8.977304686342883 17.326943501357217
Ba 12.56772510252311 10.13744114527109 17.453197267546972
Ba 15.59995853739002 12.872404572980388 17.052039175688417
Ba 13.790265561690017 7.261571424541378 15.493609274096675
Ba 17.424190191933768 9.79724919775944 14.359307328600064
Ba 16.26165214504951 13.409276795080277 12.469803110573535
Ba 9.588772847368748 9.14212694709164 15.292536077281685
Ba 10.236536290538977 13.338072810729008 16.689392372270742
Ba 13.004790436723624 11.308622838692758 13.98745735581435
Ba 10.881938954889442 6.269219121726519 12.218011431179008
Ba 13.293359989848934 15.750343140029706 14.676788147982649
Ba 14.736925912796105 8.429388794732494 11.279530184031342
Ba 6.922906207324378 8.20456096873482 12.346221794424665
Ba 7.23257901796696 12.039934285919445 14.22558569244519
Ba 17.516364411406112 10.680890589716858 9.827829547300215
Ba 17.516364411406112 14.994210391233405 8.615831651807428
Ba 13.420528854798983 15.774166786219462 10.242103847208972
Ba 14.496331918331949 11.805711493707056 8.806738419968854
Ba 16.028822810925526 8.153899058881938 6.982770430728856
Ba 9.750034879565991 10.133522084677082 11.078117427017796
Ba 5.129680472244743 8.783461023838402 8.524269253739314
Ba 11.856654135012711 8.134475599827036 8.110977864479606
Ba 9.894750337022986 14.142733164538814 12.363985935358867
Ba 3.3960653149286726 10.869669925494971 12.01642149138863
Ba 17.180996413318006 12.00148897422398 6.142556658237895
Ba 7.96309210383553 6.391542919238875 8.903088797906838
Ba 14.022102163842476 14.979630452584802 6.573113353064722
Ba 12.764352277627426 10.846133381545966 5.617120965211971
Ba 10.569271385782312 13.157559602337573 8.10270649225607
Ba 7.058142155607904 12.254950552193272 9.937577243362457
Ba 8.209944791540149 9.962157801538627 6.573113353064722
