32
Energy = -43.24168352 eV
Ba 8.088439104129426 9.665790413916376 14.19139536527516
Ba 12.153554449163913 5.72003914436642 9.458421007214787
Ba 6.660714785681255 13.626244240177389 14.079483915460393
Ba 7.682395378144073 11.838894029886482 10.327124886365052
Ba 10.41163093748942 12.748318409561502 16.939882402422867
Ba 8.831738787919305 7.737942567182703 10.368252123605094
Ba 6.139204238197286 15.781447768771239 10.209774169445547
Ba 11.369222334393546 7.328623593356345 13.79918887462368
Ba 11.371624512144102 10.905132395764655 12.036966138710048
Ba 7.96784968389673 14.146420562033509 6.114473235326953
Ba 12.551544935680123 9.416817193569337 8.170029235948103
Ba 8.669285136041072 9.691072889942825 6.6222643243726464
Ba 9.864240607935075 15.240881724023819 12.127069972710192
Ba 9.290507267369223 17.5463351472201 8.4644097354767
Ba 14.12517552954142 10.304793883630555 15.299622478430893
Ba 10.938955983569324 13.375524369859292 8.380089376782514
Ba 15.043660673166475 8.185782576948734 11.568913809617472
Ba 14.065884155626485 14.251095100104493 13.408966962995029
Ba 15.836679244260937 6.579028057432389 7.589196843755842
Ba 11.650032131855603 11.723601213860226 4.634248198767348
Ba 13.521553837397555 16.446304072087663 9.596215566705483
Ba 12.11959671971974 7.3274156167257685 5.296054191410572
Ba 15.096716693084934 12.145969276023973 10.017463370777532
Ba 11.846461672611516 17.5463351472201 5.296054191410571
Ba 14.778602936426639 13.738278628196838 6.486647945796603
Ba 17.830454833208726 11.615180664191001 13.119245520935891
Ba 15.86208748720351 9.924958209980904 5.4456014033247175
Ba 18.362918439250027 9.838904979311847 9.081462778988058
Ba 17.71329904032907 15.243826588406662 10.432478000726023
Ba 16.611267385743204 17.409351931086526 6.601696253658473
Ba 20.024565344430588 13.345634502366673 6.797412417934239
Ba 22.57635839682009 12.760971503519874 10.427989347598691
