38
Energy = -52.05015722 eV
Ba 10.491543267484348 6.590119108642841 5.321624176268964
Ba 13.5240164644512 8.950138608951223 6.634494374172302
Ba 9.261524322932877 10.476624379843424 5.397715297389956
Ba 12.630302722852848 13.227381227260183 6.634494374172301
Ba 16.554878115806794 11.778301650592818 8.076997212425248
Ba 7.561481947401796 7.39131366710702 7.795637044630393
Ba 11.498211213414667 6.250581964061852 9.29181582458652
Ba 8.355668342499229 14.239007148104259 7.572978182245618
Ba 19.876366888023906 13.851954423482562 8.829309401719318
Ba 16.08337968157419 16.094503514314525 8.193263694032607
Ba 14.328761772495241 9.17849597974117 10.990739833638173
Ba 10.533546406123511 10.421431903554623 9.251956193535614
Ba 6.507611587072721 11.126420996729715 9.818582148689657
Ba 11.617669409160095 16.832292910889258 8.806307302656743
Ba 7.499775430544 18.05560366395547 8.691600190419953
Ba 17.264522413196776 14.82189938703252 12.0645267174369
Ba 18.07086371404455 10.697085392112745 11.691453497083257
Ba 8.475573352968489 7.843372375272521 12.036040795472761
Ba 12.301321544441237 6.524585095993942 13.760411127522266
Ba 9.715215523540857 13.883781585822968 11.60790690372457
Ba 16.463431582364663 7.740783649305755 14.485824888181702
Ba 13.7927836547516 13.497238248021453 10.793023915214667
Ba 9.666051946124059 18.05560366395547 12.497596048741979
Ba 7.079684342049223 11.526540340593579 14.121254997191967
Ba 14.123818619320224 17.549654747682762 12.25521382009733
Ba 11.28462273380253 10.513951311573239 13.78202010271549
Ba 6.076645691487909 15.350413273271801 11.46785136311899
Ba 15.303998467485426 11.92408616113557 14.582561132604894
Ba 7.9232364638473545 15.563421849952558 15.581087428825892
Ba 8.959274619954694 7.9127165008788065 16.39247173524985
Ba 16.05607805025515 16.258366426638716 15.954326114625863
Ba 12.0813583997954 14.837178189158456 15.00836004426354
Ba 13.246172928627402 9.060783171094648 17.276567489936706
Ba 9.93791760582523 12.032324962514494 17.500438604990475
Ba 14.020173365240678 13.321902583193776 18.348367051123013
Ba 12.159998347178995 18.53413016254833 16.179434430013487
Ba 10.584664033161069 16.044030012212794 18.740166375355155
Ba 14.351055244465051 17.47950186707107 19.19066207587267
