32
Energy = -43.96616539 eV
Ba 13.023940624874543 5.796105144123264 8.242800304237216
Ba 9.146728894624392 5.533571903238373 10.421452686029038
Ba 18.432101226772136 6.923191333703929 10.430928322449123
Ba 9.307589377677514 6.181824886860589 7.023469831341662
Ba 12.87967820084126 6.52344125033555 12.201939362077661
Ba 16.49712748187436 7.033711612670679 14.998082128905688
Ba 13.54910132135825 7.098750665969099 5.600903416496024
Ba 7.326694409484989 7.988835811707214 9.921084960824606
Ba 8.866437030220402 7.848645983888704 13.458709974804345
Ba 12.394762506398463 8.921651951079317 15.869047138878322
Ba 14.031964430981912 8.970705313812157 8.38819270339558
Ba 5.642476034549731 9.137387615562547 13.828154903333697
Ba 10.227913904371448 8.455304675193789 9.185917677900415
Ba 16.497127481874358 9.995877162887659 12.544291801526446
Ba 7.68686863983352 9.87851913043288 7.123397957604674
Ba 8.1047537995726 11.035519193070806 16.500248237972066
Ba 11.499290591488712 10.99674805883769 11.99406444204829
Ba 20.45568407389785 10.319178457161534 13.146405144706048
Ba 11.103549685743547 10.476293830673583 6.528910675741269
Ba 15.525423248060589 11.034525793531458 6.091315444414015
Ba 7.68686863983352 11.969542507949857 12.612851948816449
Ba 5.328967246156749 11.778854349046194 10.004573958959988
Ba 13.288669648163122 13.001296751007256 8.679312832734
Ba 5.223104509795751 13.378570894048545 14.447290219819354
Ba 18.75962418587058 11.385014628208394 9.220478713678245
Ba 16.05332628198893 11.37754800436639 16.282028904883067
Ba 12.026763303263456 13.162537576630045 15.393507737724864
Ba 8.74214398564356 12.600845072427044 8.68668637511821
Ba 8.11870996829027 15.328999842482173 15.166568276728439
Ba 15.394536191881414 13.961121406022711 12.530974070032928
Ba 10.808069854433839 15.221625961384452 11.685691394607595
Ba 7.289504937935858 15.669306939922246 11.130136015882487
