39
Energy = -54.66301308 eV
Ba 13.18446321463197 7.1335328473154895 16.391545008092503
Ba 11.995303743328103 6.770100335356893 11.965990475525224
Ba 16.161574086185855 6.154676147761653 13.43461614956594
Ba 7.6004417625750955 8.939084160289568 10.928897066862564
Ba 11.617748145591683 10.601014180215573 10.482656181304543
Ba 15.629118231385165 8.710107359331747 9.42075053328527
Ba 18.83586891112867 9.158257376175174 12.575308000629535
Ba 17.00475878789538 9.566390347650692 16.707491789360176
Ba 8.282333188986248 12.584101989324687 8.198935040388353
Ba 15.398932826717664 12.874373038890317 10.12088316492486
Ba 10.14979199410016 9.596835776698407 14.497629706757301
Ba 4.578912758520667 12.572700354543631 10.763017022308626
Ba 8.400148893955866 12.873322008327992 12.439855714325732
Ba 16.935847950046025 12.311707484109576 6.446478495272064
Ba 14.502927958429703 9.84112583699479 13.527227072037062
Ba 19.511833005973596 12.19853555562495 9.840292034748462
Ba 5.7355987852407235 10.612353055208672 14.58958087641075
Ba 21.61615589707884 12.151542524393905 13.034676060752812
Ba 12.521562403299956 12.416437039195952 6.692433917157667
Ba 5.461759997678809 15.04958879495733 14.25897525157394
Ba 11.559124839444017 14.775668908367104 10.30250416466239
Ba 12.772805259522208 11.150541521816084 17.66922178447577
Ba 22.390198214533562 14.154708685595933 9.02243163849018
Ba 8.705801471391167 13.07260224644522 16.654576963307722
Ba 17.73774126259426 13.098386308572314 13.777522371201082
Ba 18.937468891832545 15.841029780146425 8.014677004816576
Ba 12.757906843482488 13.633251075965894 14.142390318502859
Ba 10.15306910269835 16.492178402190216 6.781307769793856
Ba 14.527179006747081 16.19805445701906 7.4484264211621465
Ba 7.600441762575093 16.43427225926429 10.316684581736064
Ba 11.839214986609557 15.668991526040895 18.15243703517623
Ba 19.5997339141173 15.923631740865707 12.029378916525165
Ba 11.902257763696944 18.72057584734704 10.630773668966764
Ba 9.640488781553723 16.684588081811004 14.128313622384999
Ba 15.795960736197319 14.189967745842674 17.275297876566423
Ba 16.10862582276232 16.734826144387387 11.544165342723138
Ba 13.83889943006594 17.716496827912604 14.919731227676568
Ba 18.08697308057811 17.274955101382453 15.495835122784397
Ba 15.470408414543037 18.181099625935953 18.152437035176234
