38
Energy = -51.20262732 eV
Ba 11.777961921852075 19.253458822378644 11.215244301387346
Ba 9.684060793438082 16.865184511366476 13.95976045128341
Ba 8.019345246512405 13.674815098138122 16.140436396845292
Ba 12.380456130833423 13.928480104843919 16.043624627040163
Ba 6.700410909843092 10.183500976810727 18.103585472668065
Ba 14.165802479455747 16.70616640534793 13.232715872134742
Ba 10.722426571030619 10.47205049691001 18.27091590658776
Ba 5.506905317192565 10.485115125393728 14.024157806250328
Ba 15.132285700806863 10.81461970275808 18.07682673703568
Ba 6.993151998607751 13.8295162405198 11.881886122790863
Ba 8.851415500758636 16.847428526297097 9.724627128814273
Ba 16.745636340890563 13.731983301752335 15.310035736639765
Ba 13.013121744199593 16.209259960817356 8.911283573079112
Ba 11.183057366728288 13.67038718835759 11.939234462632067
Ba 9.347548348158083 10.214069160314292 14.270186386738828
Ba 4.635859749415709 7.099396599462609 16.25772293131838
Ba 17.63952783546141 9.082561472509042 20.937300417473274
Ba 13.565141362266877 7.576694944256742 20.278507256788217
Ba 8.34986434644232 6.806333328843721 16.698168121368628
Ba 7.883924515514834 9.78950260927638 10.277262673064163
Ba 9.635374397109938 13.141815903818319 8.055571774772751
Ba 6.864060802163902 6.504995898308134 12.682195679287222
Ba 13.756259019662716 10.342416831434733 14.066184512211462
Ba 12.690978215923936 7.0924600108962395 16.40837585531177
Ba 15.451965792771505 13.049020225210432 11.200093767701482
Ba 16.869709459542662 7.291359362490496 17.128620561506224
Ba 12.142744637655033 9.648288021687568 10.03026682327846
Ba 10.741710517255818 6.532838355450341 12.619832553699984
Ba 19.198971162240653 10.94606459132014 17.649426489007812
Ba 13.844208141716175 12.18807099327542 7.567714000356529
Ba 8.850002921196575 5.840913543663708 8.723394409389027
Ba 10.233458686285067 9.178382504778313 6.678869110595268
Ba 17.63952783546141 9.84648611994284 13.711247445550681
Ba 15.173061024274134 6.475050700789601 12.84497750981498
Ba 16.28058535507739 9.10825399222652 9.559045728161395
Ba 13.22053119705094 5.72993820486461 8.897084847207939
Ba 14.319892816806862 8.142429553579271 6.0539067726334554
Ba 11.275909607159237 5.729938204864608 5.680652138120906
