30
Energy = -39.66176591 eV
Ba 6.736705544048418 11.943023402724117 8.216183880232675
Ba 5.69374731647642 12.876384291363872 11.593090500763156
Ba 6.269466619432167 15.809710827561194 8.53755332531263
Ba 6.529824660249395 9.10494080171463 11.860672152852734
Ba 9.035631247936443 10.719004931737302 6.05995014735891
Ba 6.8092178606118905 16.25011056313294 12.469016636534432
Ba 8.951354934626579 12.667705795107869 11.948288272491277
Ba 6.507306781867963 12.122958240881875 15.279734832461841
Ba 7.316446323596405 14.723747061529899 6.380266561903417
Ba 8.718806935666287 15.636096988295533 15.687654006747305
Ba 8.996198756588122 8.390440443497575 15.393808468664078
Ba 8.90181510052212 6.686749735596525 11.986071327812029
Ba 11.136443258864666 12.199622227957391 15.531917138220825
Ba 9.134080853075977 15.728501065537966 8.757361313674162
Ba 11.360961130211068 6.277065806641838 15.418347082678618
Ba 10.954217094083473 5.615262338548865 8.33933887901412
Ba 11.352113709079324 15.985217591341755 12.888406148028823
Ba 13.295456155059647 6.656515046063816 11.758449933358069
Ba 11.172151129030684 8.895843738482885 11.772238900491702
Ba 13.383846613665217 15.355483966573832 9.1263343713532
Ba 8.832855874499677 7.895303874685362 8.213777592972045
Ba 11.247908811058608 11.677524404937348 8.215213944741562
Ba 13.658566962578817 8.481636673075055 15.095720904221581
Ba 11.675179561045686 14.400404738998105 6.496176611169915
Ba 13.75079000971898 12.283519301147411 12.036729948375422
Ba 13.328757174082803 7.719385094048988 8.003518337873595
Ba 15.430660133224753 8.683706844959039 11.325562613413286
Ba 15.430660133224753 11.6860008032263 8.102301292314218
Ba 13.326074621995286 10.29185056913102 5.953710298154367
Ba 10.909148168199033 6.686749735596525 6.013930890664124
