37
Energy = -50.99328794 eV
Ba 13.01103166866736 17.38521868969644 11.25402026653213
Ba 8.968229904891887 16.917332316269558 9.115713477557719
Ba 16.632834524176857 16.04103794690535 13.691479381137441
Ba 12.006916555008331 14.602141538392802 7.545122802926543
Ba 19.930417843293785 14.203796805077605 15.853209451745517
Ba 12.495274802353471 15.3509103873348 15.28763973151698
Ba 15.874939410957001 14.483817449368578 9.572456368586595
Ba 18.943510356437628 12.67532707542986 11.922781946669732
Ba 16.05324388366076 13.428111875069849 17.245586581130073
Ba 7.898212390374319 13.432192216220017 7.032531026474286
Ba 15.252447154790794 12.562337401961516 5.817828647556296
Ba 18.14784628777864 11.036101424884093 8.016031483255427
Ba 11.187110616129898 13.909222003278668 11.56767981277989
Ba 8.868724861820715 16.994469531911104 13.364844325029736
Ba 18.147846287778638 10.266947220516997 15.409094401917164
Ba 14.863134463438197 12.113876013729953 13.279769410628292
Ba 19.359602317800974 11.688694738401477 19.330829679504994
Ba 11.246815986323938 10.861143385425642 5.735156677630585
Ba 13.729001370109224 10.840563034942173 9.20391774441144
Ba 7.31862970402454 13.664981231119853 10.85990439291526
Ba 16.924689625198926 8.75326145719742 11.249122304460832
Ba 6.768063756574909 9.262486201622195 7.782862371200246
Ba 8.6763158218081 12.93433280351414 14.856745985857385
Ba 15.028744247514975 8.132830608440319 6.955205306610924
Ba 12.241894137420832 11.158928311150763 16.98389073608576
Ba 9.634737955870506 10.758139566038412 9.348632990713178
Ba 15.78990958250268 9.392923495564794 18.72055890417336
Ba 11.073402784031655 9.747349546910222 13.079561163588108
Ba 10.600276505249072 7.213836078890189 7.54512280292654
Ba 14.532818909187776 7.878297322912727 14.888742330157656
Ba 13.100128990231504 6.835309509713677 10.628955173226492
Ba 6.9917374916188315 9.718511567514843 12.494767278751292
Ba 8.54192620437012 8.722428694201662 16.374505275237567
Ba 8.64069620355355 6.51561708830477 10.784162581653463
Ba 11.988668417812892 6.9721069292332585 18.237316083453745
Ba 10.764894976819948 6.035512844611217 14.402826913418593
Ba 6.728375556214714 5.996274003985858 14.30110816020829
