33
Energy = -43.95437689 eV
Ba 14.281509905307733 9.272278511941867 7.292131098662682
Ba 12.023311766299722 8.043544964994577 10.144491476362687
Ba 10.267030967361947 10.73297166799302 7.758654820099352
Ba 15.448883821030185 10.88377858563985 10.463095971707698
Ba 9.446850317648444 7.317059318808856 13.629436589121909
Ba 12.418628505362307 6.466394051533796 16.026085092362603
Ba 7.9032242619023565 9.80560596659201 10.582312276056106
Ba 12.5778085569791 11.793211833278821 4.101499025477577
Ba 13.579332792418509 13.403147255927768 8.128292275005695
Ba 12.948001330900276 9.822550454250848 14.074106616890601
Ba 10.376730986053737 9.013421574928838 17.5435576765385
Ba 11.27594265831811 12.402326487289754 10.865118211045974
Ba 7.650624228731704 6.609941341532027 17.004870419513924
Ba 6.201304991827386 8.136325819810946 13.842239239655388
Ba 10.011944626574033 14.709943109119628 6.13507158670872
Ba 16.444691122947905 12.587528736546368 14.554508785406718
Ba 7.51211607856955 13.73590495718551 8.877493228288161
Ba 8.78627682217705 11.416118727456036 14.445599374531271
Ba 6.201304991827389 10.195576912722293 17.456280408323234
Ba 5.908620733136203 12.415464050823333 12.722404246474683
Ba 13.962442930873477 11.420796398426493 18.092756029060684
Ba 11.036974347973436 16.515565934115504 9.224988158682839
Ba 14.56740107855127 15.075497026413936 11.422027984678337
Ba 12.29003318888652 14.152292398968719 14.978704277072305
Ba 16.444691122947905 14.307840389222939 18.523874185366353
Ba 9.748400007016503 13.102955183297274 18.32084795642496
Ba 8.629918915851126 15.476688035690074 12.820651057079619
Ba 6.242375895558155 14.55063063993495 16.391724849156258
Ba 13.339434186647136 15.784580364537522 18.883759292977068
Ba 12.159638083219935 18.241108338858105 13.25643258218655
Ba 15.698058025576538 16.806895110129712 15.422748574814346
Ba 9.732007192271647 17.26067100809946 16.82767836542423
Ba 13.25513250339456 18.921268047663563 17.265710993910464
