31
Energy = -42.13900507 eV
Ba 14.16661964954268 14.641845268747673 11.973345710697027
Ba 16.35150750819056 11.222344241614389 9.543729706257972
Ba 13.756974420724916 12.580226425288734 15.98957313481344
Ba 9.777509213717428 15.202987358825743 10.64423381159102
Ba 12.553232115566022 13.086620970822729 7.699570032049295
Ba 16.304279024264083 9.919569020301818 13.606097878647782
Ba 10.282510788182716 14.438604243300023 14.905413650149985
Ba 8.643992065507797 11.485187587227712 8.642744009544856
Ba 10.466511155615452 10.30646668803384 5.6741167335954925
Ba 14.782023671435846 9.199734842903604 6.451678253858874
Ba 6.200148692072125 14.325509872309528 9.737237948195418
Ba 11.850775151405037 11.313903927007463 11.888689380713872
Ba 15.696472158872776 7.12564503085543 10.395837223432167
Ba 6.329341915567691 16.690785318689905 13.637914655484042
Ba 10.69197949013383 12.113547893295044 19.54511068718715
Ba 12.02509895354204 8.623006337166634 8.522332422098646
Ba 11.257491802102308 6.162853408119546 5.81812226928154
Ba 14.611428828519575 5.744995857014185 7.174836891476019
Ba 7.459129758118602 12.127256326746872 12.630567111500612
Ba 13.60674836877859 8.596984931082885 17.191116074741206
Ba 4.291449902048455 12.728179084459436 13.421853392938726
Ba 6.655468182036569 12.710639318128871 16.783566633095713
Ba 16.30427902426408 5.7449958570141835 14.64810486924178
Ba 12.472482082723321 6.9962499859656155 13.063159915780695
Ba 7.798441348970049 7.497585342137713 7.266472405119884
Ba 14.417330542465589 4.1163960936448065 11.363388954566807
Ba 5.677981372136781 9.84203771067245 10.155238776784474
Ba 10.848916223889173 5.57111892476712 9.307462712426629
Ba 9.878930711850728 9.890864713921149 15.427255204042169
Ba 8.594650442918384 8.091590278239051 11.506175669242793
Ba 6.310448311086537 8.985763148636721 14.605561361846442
