33
Energy = -44.17281688 eV
Ba 6.523583602864475 4.089204340139542 13.469971426947113
Ba 5.708656709963547 7.256647484575073 12.47911839058335
Ba 6.592640567588954 6.475750731658784 16.251014860049818
Ba 8.566085729047938 6.475750731658784 10.546137374979415
Ba 6.472667183754676 10.881954153813165 16.364350991298796
Ba 5.852773277784821 11.690103154707836 12.307599019801117
Ba 10.345674391603392 5.980374043253157 14.532929859827318
Ba 7.084491191280731 9.510946891505531 9.128222754192185
Ba 10.240143673552558 8.652829959847057 17.280809271797693
Ba 8.658720071172146 9.059188691661022 13.204358452098145
Ba 10.884771213780779 7.955905483635039 7.380413489445241
Ba 7.3954667337732864 13.787088247375689 9.388538216257535
Ba 12.536868704077508 7.671907378273933 11.511662058406356
Ba 10.21544075168514 13.006747247998838 17.54856962614347
Ba 8.81303629561463 13.406043091440399 13.47988566366484
Ba 14.064817501567324 7.305877910102949 15.596912871827817
Ba 10.882312554538897 16.64917761721619 15.566395913709721
Ba 8.758579736404837 17.3073479612271 11.57676969542782
Ba 12.319082021916177 11.003559605175438 14.399463338037595
Ba 9.562705224260116 11.884355555258045 6.754063853370723
Ba 10.845981220010348 11.372810590583484 10.054626072300719
Ba 13.089669604411855 15.430340118095105 19.711852615358627
Ba 13.906402013641706 11.041372348222732 18.67221022108253
Ba 16.785779338457143 7.643984801553926 12.13444171927028
Ba 14.390266127545583 14.325222827324435 15.58946967509029
Ba 14.995062139327418 8.796888306449818 8.079537570617543
Ba 13.094655378310689 10.036633629343537 4.950306217703368
Ba 16.785779338457143 10.608372082922406 15.30185381563884
Ba 12.433765129070533 14.96401081633162 11.650246469759217
Ba 10.667393198569304 15.844576685498946 7.656306865062409
Ba 15.176276910954922 11.54891965847043 11.433019199134403
Ba 12.20684289323786 14.3794075546528 4.215026725947491
Ba 13.655900740694447 12.795357636773504 7.354732628311296
