34
Energy = -45.95522092 eV
Ba 18.391279046776692 9.977734165144529 8.824566174383625
Ba 19.006244131835558 7.8642825815663535 12.609945515006075
Ba 17.230189880732084 12.24914572087827 5.524825344398545
Ba 16.25212535699915 14.343019038052265 9.182033781447814
Ba 16.999230061176203 11.689763898480157 12.498400487035074
Ba 16.00708166817001 6.6783826362522 9.865290072194357
Ba 15.713092527346738 8.132361954498739 5.62327711571982
Ba 14.886951557622005 15.882823739517674 5.500541540420577
Ba 17.922784077842547 9.930775493363296 16.03521772488636
Ba 11.81309156363013 7.180835871010052 11.202643130910646
Ba 14.554015449641462 10.430170446360433 8.851347316057533
Ba 15.139769789359349 8.212141473457153 13.90691177342037
Ba 13.067357299923994 11.929724873224044 5.458478516248529
Ba 13.643691301267586 15.299565401471542 12.548727358444458
Ba 12.659289042450336 17.486785366155097 8.893769277617695
Ba 12.712015376635165 11.3565533225591 12.327988780152543
Ba 14.347067723929664 11.950180242113845 15.750762728823341
Ba 12.048135857719195 13.883120753060174 8.586427769122732
Ba 10.770813009081495 15.965498627555215 5.465623793960311
Ba 10.557332631269405 9.284919958012942 15.007511162869926
Ba 10.491579614874697 13.924199306074614 15.007511162869925
Ba 9.287290023002047 10.38627077356822 10.332932490692357
Ba 11.180657261327362 8.417968580323492 6.999564959280702
Ba 8.824138351613568 5.586659410706878 8.769528661668947
Ba 9.310589315788937 14.11953112857592 11.57133267659592
Ba 7.399307924426466 7.219911960080923 12.213287106394672
Ba 7.399307924426466 11.34830081711452 13.697450352815434
Ba 10.089443957868177 17.545452804520984 12.548948878195786
Ba 8.339634741682085 16.47506277406588 8.458449573081591
Ba 6.266806770944227 12.670795325368704 9.66660463811251
Ba 8.738690954130648 12.306661150170596 6.459240218687857
Ba 4.100756446063542 9.162146034010014 11.297065759682672
Ba 7.03908196784645 8.552186860436024 8.023482826406072
Ba 5.001758971640528 5.571304768291072 9.731449225310673
