30
Energy = -40.67684309 eV
Ba 12.680546845237286 8.180702708128617 4.069584255914477
Ba 10.382799331678159 10.479129712124749 6.656907536523293
Ba 11.002112227715786 14.837778938269375 7.250107807619418
Ba 6.927478132424567 13.128397423548604 6.656907536523289
Ba 9.974942333405085 6.3768002339912755 7.142986369659409
Ba 14.55789489211201 11.903086191006095 6.1854963127246
Ba 13.920694269585432 8.113153644727035 8.110322234715909
Ba 6.8786332709956115 8.911503654636645 8.53741082912711
Ba 7.3578474445977635 16.37222115547064 9.506764869463519
Ba 12.827501649038918 11.872364219457529 9.820294413165694
Ba 15.291549589258763 15.265986406621526 9.463250982918197
Ba 11.318853548831179 15.659799379717429 11.618433146335674
Ba 10.368473515966928 8.611222475212502 10.645468938750666
Ba 8.631486995613733 12.494024883065839 10.096204531316321
Ba 16.9773991841109 11.147948165163603 10.09381859735791
Ba 7.971167464741958 5.649971531479613 11.32916189022514
Ba 7.098472544139503 9.690698577538528 13.007080650512805
Ba 14.107896952375869 8.799809781811083 12.678345289244378
Ba 7.565673054708663 14.472763303407152 13.723515192259818
Ba 14.621038404487836 13.196945373745939 13.202608351944965
Ba 18.754331001102333 14.510415180840344 12.83374880625211
Ba 15.155101585219677 17.533953221966026 13.676412102102756
Ba 17.481898312995312 10.474436064239834 14.84863140956054
Ba 10.54113209674241 7.459352928289066 14.850563017067897
Ba 10.716752978060176 11.64140387633045 13.576439724621267
Ba 11.88272744872548 15.125289804051755 15.95236318269245
Ba 16.3033753529941 14.175639022396897 16.918768248143238
Ba 15.13170792109094 6.975992873316096 16.58980340717988
Ba 13.371307322945576 10.843655595186483 16.918768248143238
Ba 16.784586037089944 10.254604521574167 19.47749467372645
