36
Energy = -49.79593404 eV
Ba 14.112578167117162 10.943067109063833 10.696172878280219
Ba 13.000834698904404 6.215988807652215 10.022031756236892
Ba 12.600678796494709 12.262128428935743 14.460634633059554
Ba 15.526926270531874 10.840724071106079 6.78950347650894
Ba 14.94952345970738 6.548241472344446 6.455236955017747
Ba 18.821200075899252 8.850830267628423 6.951124295267743
Ba 15.175343453417163 13.383798013668711 17.07968558646709
Ba 18.940669319024728 16.026717235842213 10.432344178954683
Ba 10.059640950287317 5.409217451151028 7.192191454542778
Ba 18.645024228391367 13.598214024530481 6.5347442826765505
Ba 9.19189540104077 6.981159595331601 11.32904024415145
Ba 9.082119256040059 9.8891175245248 15.132074950766093
Ba 15.116913626822935 14.970148913329524 5.329284803911508
Ba 10.617313599103118 13.372728021377203 17.464048120070434
Ba 17.304169624822734 17.51269206353153 7.087204089392854
Ba 11.75004381507593 13.263559313823114 7.392620231239117
Ba 11.330479084667125 8.90068604061808 7.964270929416921
Ba 15.724492449166881 14.582530270408448 8.917552990638544
Ba 7.3010236374256126 12.024934349010621 7.8195542378008955
Ba 7.30102363742561 7.8358726845385185 7.936722830406675
Ba 3.684108636870364 10.743231233019456 8.53307794992684
Ba 15.412259563298043 17.717300545964406 11.324999025754032
Ba 12.814856620832302 17.512692063531535 7.740400129254895
Ba 16.606619363819995 7.712007461626001 10.303232034933876
Ba 8.747900812709673 15.840319781022787 9.4865231783325
Ba 18.48794221266929 11.58744646608118 10.425669671233793
Ba 9.82624743539556 11.44419683043106 11.086086898018737
Ba 5.7229009929870305 13.963340356496717 10.934787772656987
Ba 6.575241134120247 9.954634063278988 11.726995030654546
Ba 16.2105789057987 14.32026432523475 13.24732389341642
Ba 12.386217462710958 14.978927809218396 11.321032301151792
Ba 12.981268993889303 9.532968082956597 17.144356483135805
Ba 8.679347109345938 14.380619348133685 13.888583482836298
Ba 12.787531234475953 8.038390475236044 13.3991328126207
Ba 16.456180214657586 10.149153706130972 14.438381026163125
Ba 12.797783353553392 16.49206436959767 15.246925881195002
