31
Energy = -42.53784065 eV
Ba 17.294889057035025 11.111627147944871 7.619779413629022
Ba 15.596630605873012 7.066215973006569 8.98855282198553
Ba 13.599022239700954 9.089910152975772 5.6395018087043525
Ba 11.58428157457675 5.679962265862493 7.290587173576575
Ba 14.62209288393022 13.438309943475325 5.0519859198803925
Ba 13.777526787858326 12.435119244780564 8.745948470731781
Ba 10.670404037891917 12.122434735362749 5.9181045890472035
Ba 14.398833268545314 9.659100170421441 11.858564125352878
Ba 16.488989982688835 6.484617021016495 13.619575505212696
Ba 8.343407501698236 8.68010249607529 6.407654322032872
Ba 7.158546559735833 13.903196224350145 7.4559311364989185
Ba 12.398419453393704 6.102361591286869 11.855898903645334
Ba 11.322365483492371 9.011783767546206 9.148955145192124
Ba 16.14092917882211 15.788320768313042 8.017894293378065
Ba 11.512970850860734 15.937705496516118 7.359899390102822
Ba 8.244416603219609 6.484617021016496 10.130948330265602
Ba 13.10207313735827 8.269989744890518 15.722842461545094
Ba 18.22865941395136 9.499204372486034 11.427584499406768
Ba 10.03390211971971 12.822069923775548 10.287552783457864
Ba 6.974859379778794 10.363801973927002 10.206418415843364
Ba 16.613445642549213 13.330591187740415 11.623453595295413
Ba 16.58156404087126 10.971756723072694 15.249250120483719
Ba 13.122457641154876 15.89612380927668 11.427006858591293
Ba 5.3182817676990135 14.431365985606782 11.191692900656845
Ba 8.658947089528938 16.597424965046585 10.968365245275214
Ba 9.820345379746986 9.174425274208783 13.04433761341988
Ba 12.47612688836413 12.513602227693374 14.01975415980813
Ba 7.949030766616263 13.087673677588091 13.85027987746407
Ba 15.271774016185892 15.497845515674618 15.272180252919453
Ba 10.557592373715108 16.359244264643852 14.947528965925628
Ba 6.48863532648412 16.597424965046585 14.589392848204985
