42
Energy = -58.002481 eV
Ba 7.794813412367256 15.107203420052166 17.058024498276072
Ba 10.644775709003264 12.0243782188094 18.694424347308832
Ba 9.156113353807687 17.74505415220026 14.484799156659347
Ba 6.740850587466499 14.689866003720972 13.639937544411653
Ba 11.935171590495173 14.786473502449335 16.399022599588438
Ba 14.66233301632842 11.74967651785173 17.27603940330723
Ba 9.01549440374885 11.631877468524777 15.380355907390754
Ba 11.827667901415001 8.575408591731616 17.058024498276072
Ba 7.472498781025231 17.238211615353986 10.518876288437154
Ba 5.066931829013336 14.058077203943244 9.509256577560372
Ba 16.143692636519276 14.514744218001816 14.822037784519134
Ba 13.38503894501238 17.504578109012733 13.10666331285218
Ba 10.293294364321435 14.363795893371531 12.175364790624126
Ba 15.891402807001636 7.632068180876216 17.082515646633993
Ba 7.36196413120119 11.116212788335247 11.17942122804834
Ba 13.188537066525727 11.282269107504442 13.990995506629513
Ba 10.201923877557102 8.165040189761903 12.90846365721629
Ba 11.726286056965195 17.115932441480524 9.06816028619816
Ba 14.660124097351103 19.605336329261004 9.979693987714583
Ba 8.705935713902598 13.89416358599693 7.929024148742473
Ba 17.398376553507866 10.270034202240417 14.769935329281317
Ba 18.613395269004844 6.595831727395236 14.659499859617458
Ba 11.545228206023085 10.932874976511643 9.660559255315782
Ba 14.45367346440229 7.043401565872105 13.875693262039078
Ba 18.841524850684007 13.145272993988948 11.562638341893535
Ba 15.952575585278794 9.873562748374779 10.610163103395381
Ba 17.39479878917749 17.35453913393472 11.553130836492686
Ba 8.771092283400602 7.743066289904696 8.67271620109023
Ba 6.580046736349552 10.654100516847231 7.097062438410137
Ba 14.62667619539032 14.147379590800407 10.620211944175722
Ba 10.089438168533864 10.388894567912264 6.119953423252944
Ba 12.853031627034214 6.762342436312426 9.669219279503665
Ba 15.906395349116256 16.96493390613453 7.5211264205999635
Ba 12.988269009873228 13.688704197755436 6.534201393867309
Ba 19.333093438512982 8.811798944447174 11.460802706601449
Ba 20.7929555353535 11.750556549873188 8.371609661856995
Ba 17.106452124565934 6.291631218319521 10.48445791438827
Ba 14.315505179836968 9.440891650497752 6.538982291800578
Ba 11.395686229474443 6.762342436312425 6.074813003179431
Ba 18.616871214893205 8.520550925726425 7.454973733853841
Ba 19.220146788301776 15.887144053290166 8.467172003563848
Ba 17.31793002467 12.747096339311364 7.3625251319486065
