45
Energy = -64.48393698 eV
Ba 7.9821614894230395 14.35436573601761 7.717759338823286
Ba 6.3216585304912565 17.462598151146203 9.986645267203166
Ba 6.483251372758819 12.609542777553235 11.526832790706322
Ba 7.308074148695409 9.926245087153593 7.84395935569886
Ba 11.347522436155817 10.883827643228626 5.955172330031864
Ba 6.529851171587885 9.27519263778249 15.398121637621522
Ba 10.237414695367232 18.616006509066377 8.815891855984908
Ba 6.828674756536194 16.42853831669381 13.997410102993614
Ba 12.219157316846129 14.92555187489059 7.600461981178957
Ba 7.130125613771653 13.500592791594125 16.676879838851793
Ba 8.267549674825025 8.291307962988494 11.578985195087737
Ba 8.86058588322137 20.856193656204244 12.756236696547683
Ba 10.668602307819635 7.461099475040837 15.249874207266553
Ba 9.64286039556249 15.461267527032163 11.502624988217573
Ba 10.30817788329351 11.544551292140698 9.657261028880788
Ba 9.565248513777433 11.371475494788784 13.866397095032976
Ba 14.246001510137479 20.1305880325098 7.131821500322974
Ba 10.691244965519772 7.657302252419703 8.228916147199891
Ba 9.030121144900985 18.971613082853448 17.04224423365961
Ba 13.44947707820056 21.936659498970382 11.233065548783996
Ba 13.962860121025447 16.956133248334073 10.386107122855567
Ba 10.978595558995362 14.399920848890934 16.22424034440458
Ba 9.690416246151727 10.51225603185841 18.18205610704018
Ba 12.625210491708318 5.111088982741367 11.387978281671451
Ba 12.221824320408263 17.677060278357178 14.05906831172276
Ba 13.487655768335783 17.426986196442073 19.065831142058617
Ba 16.620278573571902 15.220815145413543 7.577705756989444
Ba 13.176054794302996 13.505779042860679 12.462902526624738
Ba 14.667728886079326 11.729089145117065 8.975311085787792
Ba 13.20497433382862 10.67784212759155 15.779988987475347
Ba 12.766850532980916 8.957386931974284 11.736726830504312
Ba 13.435613226953256 8.35763985218712 20.035973035106345
Ba 15.236564044219671 7.15539802536594 15.00906150705321
Ba 14.666265213975004 8.16346792343811 7.572664166961709
Ba 13.577698849699674 12.751926661168259 20.441350760822655
Ba 17.530203209559684 18.971613082853448 9.794473065654941
Ba 15.68456856571933 14.317421638693682 15.797512755476141
Ba 16.34292609109697 18.20509427059528 14.049911556387718
Ba 16.57127306091622 7.35658513788336 10.956897115777984
Ba 18.284135727772554 14.6972469113555 11.524238054863103
Ba 20.860147026573788 12.812484712300176 14.403222660341632
Ba 19.902675528520728 10.853271009012355 9.853842087449511
Ba 17.150655852174303 10.323205846328644 17.341742433767475
Ba 16.374410469842115 10.786687206897877 13.128947356889679
Ba 20.61004282480593 8.357639852187118 13.908213692177414
