47
Energy = -66.99971717 eV
Ba 9.265114340226194 7.606958979264626 17.416857487673948
Ba 11.828488810897415 7.6069589792646255 13.781265164324582
Ba 7.308614440734525 7.2429564729958615 13.549753848189324
Ba 16.147264300724068 6.83057464759068 13.697480915005588
Ba 18.321913944973513 7.033363736719114 17.934446532848852
Ba 15.5344182183548 9.748366702370358 20.47381821197767
Ba 11.252340160944556 9.100731290142658 21.349818854819162
Ba 13.649456168901933 7.102300788393876 17.74524427553178
Ba 5.86137966701985 9.540375082806792 16.399447522023017
Ba 9.520911811535408 8.950328110911652 10.428246457978839
Ba 8.525051284562947 11.737943572543783 18.65719483014786
Ba 13.735029809778904 7.729005527617894 9.732539278259424
Ba 9.12824866883599 10.678884037107736 14.289085302566152
Ba 17.337358206647863 10.027941172042835 11.550153813004709
Ba 6.015271416950645 10.60946663353698 11.981396393020043
Ba 20.450538083555664 8.580036324226274 14.686322402437447
Ba 12.370006254716047 13.50429732263276 20.554901394677135
Ba 16.312843428749773 9.860705874447733 15.902936586113489
Ba 13.277270299615566 10.89365715200961 12.404635645530037
Ba 16.777699918079996 13.649703479730357 18.48756563732239
Ba 12.454344833900427 10.655681903330812 17.132290582872564
Ba 6.738904999914793 13.834861372277352 15.504720742417126
Ba 11.090132850359815 9.403015367286242 6.618177715043373
Ba 14.70650268323702 13.76040852405801 15.0368886696143
Ba 10.657302439877013 14.322603152644378 15.761562938481823
Ba 7.29133825863375 11.4167885998099 8.172796261685333
Ba 8.802568172945417 16.220476484413417 18.86480610917386
Ba 15.133160792871603 11.510373703338558 8.355348850733005
Ba 11.764024511949836 18.194361323103937 21.992751346911735
Ba 11.292862618115713 12.380356551285029 8.827969167710558
Ba 19.203482920005833 12.967411103637767 14.445454338486313
Ba 8.291703825927089 14.08486283712717 11.42479627253429
Ba 8.492609683890375 12.222660603904346 4.112434999883995
Ba 13.762536627135912 16.827011729979613 18.078941548551978
Ba 12.308991072262284 14.938356249927587 11.779612632689028
Ba 8.497069409254227 17.73678882948827 14.42873128713984
Ba 16.369282139370306 14.427918122748611 11.088968266859391
Ba 12.463903656842117 13.260885732603924 5.162276495793592
Ba 10.85414568510828 20.144414969987718 17.620894077077256
Ba 12.618351089533258 17.833473357034787 14.30981333646057
Ba 9.216658612597886 15.363611978805933 7.399716584778859
Ba 13.575843821239417 15.994000921303725 8.403402391242686
Ba 10.381050568527987 18.194361323103937 10.364398928272779
Ba 16.989258310345615 17.085768916052924 14.859363701460797
Ba 11.228867782413321 21.810832109123208 13.290575147876098
Ba 14.809928854643173 19.275433156025144 11.251880298643556
Ba 14.886598740757417 21.14692727474819 15.809466726235334
