46
Energy = -66.29450084 eV
Ba 6.331501139271949 9.69231392077129 18.01546232270509
Ba 10.455907679383623 9.487885088766507 19.480041558432514
Ba 9.034277884092486 13.24433593478463 17.667194766423147
Ba 6.175652394488123 12.28171907188793 14.241685684276659
Ba 5.7263087393586325 10.277221252154469 10.18161636446198
Ba 5.46867662851176 7.916890178537899 14.17224306551843
Ba 9.143284782774566 6.209734987071414 16.500275395842195
Ba 7.256647282117959 16.453686843552475 15.198016238332661
Ba 8.152183981853566 13.172459063016488 7.220419997626997
Ba 13.137160613404985 13.442407727384664 19.862247044956323
Ba 13.861048666667589 9.597745992564034 22.107606324043896
Ba 11.47611912593465 16.88249985550135 16.723593928865213
Ba 9.171799123907558 9.797182482396932 14.94272986693044
Ba 7.216004937713705 14.908879915596376 11.082634872233674
Ba 10.737288594403866 13.829084485679724 13.865140213550085
Ba 12.943463248350195 10.674479912267044 16.190057199906132
Ba 8.800014113258388 7.119147566288864 11.695564366842719
Ba 12.656629492880716 7.119147566288864 13.76053469550798
Ba 9.31240120747967 8.540177859137367 7.596075471170022
Ba 13.59960682692391 6.964941599556817 18.172000479621236
Ba 15.336807911116399 17.92459367291492 18.567343234143287
Ba 10.376640332934826 17.882183113943675 12.49428142307125
Ba 9.505082703521605 11.330868111243385 10.88438835955378
Ba 12.577378906146812 9.111249090333926 10.12648610520627
Ba 11.29456613403838 14.793251976055242 9.543916561214212
Ba 16.22382319455213 10.432508094674153 18.56734323414329
Ba 12.000335249413709 5.068977889085904 9.56452666761411
Ba 8.687132579478478 18.046212352285917 8.266504908050118
Ba 14.819805398927887 14.444200716073846 16.02570211179054
Ba 17.838381603207406 14.441236120254803 19.315868425066355
Ba 16.729365104107618 8.051417086204722 15.002265222286075
Ba 15.019852135874604 11.278414635857523 12.563623536307672
Ba 12.37135069728798 11.752311110155508 6.93359374722223
Ba 14.369603463633297 19.378010943931443 14.139532687515073
Ba 14.4098530683254 15.654323990639366 12.158577233384856
Ba 15.990102273648365 7.033181680397336 10.670937573598685
Ba 18.480638780089727 12.242663976367957 15.299957345912405
Ba 13.862249915687011 7.544542666434993 6.534787127207767
Ba 11.600840288080432 16.022550176059276 5.61830668976795
Ba 16.347560979249135 10.798896763646498 8.524963749565124
Ba 18.153804323149885 16.717994886290484 14.890981239061665
Ba 13.101713406901425 18.828463619386095 9.239309678236445
Ba 19.39637414273216 9.704159690177116 11.737910043082891
Ba 18.408830834345256 14.01705673588983 11.229701724279227
Ba 17.284843229541156 18.522141938239884 10.68976506334019
Ba 15.305646401044612 15.059766736662594 8.047217595646854
