49
Energy = -70.32486221 eV
Ba 15.586247682326404 19.980805611040036 17.18333127266659
Ba 19.11126136458819 18.17663371635397 15.245342520466638
Ba 11.797393717473582 19.953740324395785 15.098343464032066
Ba 12.903950001524901 15.947584375980565 18.75421515962773
Ba 17.06091129183201 14.95989878704707 17.43394619931005
Ba 15.894060681115285 20.664441960087558 12.604344029518066
Ba 18.586997734485944 10.891589450491171 17.512291193127666
Ba 11.6953064778502 17.808033662281563 11.007758126340923
Ba 15.01419337290329 16.2422969893295 13.929030632943904
Ba 8.114170574393635 17.840636068369086 13.037030844793081
Ba 21.52841953328463 14.107627517040427 15.314085300172836
Ba 14.423354107126347 11.689191176339417 20.32475968803081
Ba 8.564089455324764 17.12918040274228 17.394198893523335
Ba 9.8289738450402 12.848944102475647 18.578285880969467
Ba 17.27248097978109 12.28048834237563 13.667041055402805
Ba 15.277440117454018 8.43310141009491 16.169843627171478
Ba 18.784988949180605 15.893210169463186 11.807181452451701
Ba 8.0960245325609 18.17663371635397 8.4940030585603
Ba 13.448310851852089 13.38717006265004 10.978031380901145
Ba 13.66752091274219 12.283597523353663 15.707033575148149
Ba 10.880717847536967 15.130748789181833 14.391844126601956
Ba 5.182430631983465 15.036101081514266 10.79341090150687
Ba 23.23506883750098 10.16753239038822 15.577489707086663
Ba 7.1839970513686575 13.830930578941976 14.731551047952204
Ba 15.443918346158597 16.74791506061682 9.210684824940344
Ba 18.95200596747914 8.307322914223482 13.916559904401376
Ba 21.668768277638044 11.580037501082193 11.715566513965733
Ba 11.294053105304922 8.938779452714373 17.725113412746243
Ba 7.608076694168754 9.556802663674445 16.030206732511314
Ba 8.944675659339563 14.294732336720214 10.927604363775691
Ba 10.46785037274715 10.552334359934095 13.58676078375
Ba 17.38441796904987 12.721949558014506 9.377230634638378
Ba 14.610924578783198 9.369253353572377 12.070013473435635
Ba 11.413864788052683 15.163235467115875 7.588013205651598
Ba 6.758251771668905 10.843596729849128 11.548641318074207
Ba 14.995711204549345 13.657995728820094 6.295692248518846
Ba 10.394329695758874 10.703544669983103 9.294343669395998
Ba 15.781471390082832 5.798008316788049 12.277095130386597
Ba 11.935854262104009 6.661568283825072 14.430542337428758
Ba 8.114170574393631 7.375093920110748 12.476979261644983
Ba 11.75918200218703 7.114830457790663 10.150831411270884
Ba 18.095595328892244 8.522126704903135 9.67488253050489
Ba 7.529846898554665 12.802402281728506 7.323193938802717
Ba 14.321897824106859 9.919862811150631 7.84768747177609
Ba 7.851997214370208 8.069081036174273 8.251129242200326
Ba 11.063166363607886 11.690702638528691 5.56781732506709
Ba 15.20852843794794 6.087737268046701 7.836709449507043
Ba 11.191967376407476 7.492298992411513 6.304697803395941
Ba 7.937458549902614 9.484106355344172 4.593118356063867
