40
Energy = -55.46470799 eV
Ba 15.251807709197621 13.371115956964786 19.3570315931491
Ba 18.06789917658662 11.412428194180077 12.971113686210717
Ba 16.930505631252263 14.461773284591612 15.925766147097782
Ba 16.129725325702683 18.531729817071533 14.788821007974084
Ba 16.463675897015897 17.5098574965233 19.022986282538145
Ba 16.93050563125226 15.519962435375124 11.692854881104662
Ba 15.550188042939856 11.933911295583705 9.708180943698899
Ba 14.875506392529674 8.672000467667456 12.606171638874336
Ba 15.946589112535184 10.299724763052547 16.525282716292768
Ba 12.159748393840912 9.147118258584655 9.196345280126973
Ba 12.074299695057391 19.68070705849192 15.504304900814976
Ba 11.19845583073946 14.81063520755786 20.108806866084702
Ba 14.026274343885563 12.79835700284839 13.488390399838622
Ba 13.21048457078942 15.886456357598137 16.61870891822376
Ba 12.778138781419694 16.915358163300155 12.263138233373411
Ba 14.168158726633017 15.828581273208117 8.154412520788158
Ba 12.539152682498186 18.90662749434801 19.433632406015473
Ba 13.669280807954339 11.844095717032529 6.590255835299961
Ba 12.559961825294717 7.437915496041897 16.117270831877303
Ba 11.897525681166632 11.695428046607075 17.285351436432713
Ba 9.772552679121198 14.262998663803474 14.261807994083673
Ba 7.835746151397674 13.103892349080695 18.007041523047008
Ba 11.056040636471385 13.305416694633278 9.579162758100544
Ba 11.402453765135018 6.44485794930741 12.149337837148032
Ba 9.207547047200284 17.233125793435065 17.37233814853509
Ba 10.882670229086253 14.950252210790282 5.937531505911074
Ba 10.553377247529264 9.97128179422344 13.146886001418045
Ba 8.468773359478712 8.821494936180141 16.842259664487674
Ba 8.704872196199819 18.36011732151563 13.178529029636156
Ba 9.824212586589066 17.337265334787222 8.931702475301273
Ba 9.489498927122531 10.572332151232368 6.745334784748669
Ba 9.185095963929545 5.293997780893125 15.589306347100008
Ba 6.25195608758565 15.799734499464769 15.281838132647723
Ba 8.622531614801993 7.273109988174534 8.823576998826386
Ba 6.964337575260015 14.88165748307762 11.26099699009169
Ba 7.153452556930736 14.108691067687698 7.766138737606196
Ba 7.983213650883906 3.8291080867087253 11.593638819626971
Ba 7.62024456716527 10.694713480813446 10.006500210756794
Ba 6.40466804462022 11.579036937755282 14.12753224100021
Ba 7.134298944602706 7.273109988174535 12.912396018262358
