40
Energy = -55.80332662 eV
Ba 19.126998000515652 10.77915903228315 8.820462154742403
Ba 20.692839052840036 7.914519615614201 12.085728287527887
Ba 14.133953310366213 9.721344490483865 6.872684372666178
Ba 12.345667512310392 13.434603260307178 5.002886344805529
Ba 15.959989845100298 13.840177749180985 7.262609910006251
Ba 17.857177549926273 10.919302793886333 12.869148191127765
Ba 15.293994276938895 7.618814663453011 10.385454684341715
Ba 11.012260716011253 8.268660584003511 9.5907439764645
Ba 20.267998821057876 9.61465341742239 16.216709954076112
Ba 9.938668515559026 11.625257443024571 7.96345376677221
Ba 12.179353524427443 15.392788446749892 8.076531357689783
Ba 15.831619507734661 7.004932099072892 14.771326651957699
Ba 13.845820108955758 11.760522130680037 9.642816355975821
Ba 11.748163356879479 6.315868737266622 13.040173853409947
Ba 16.281715287464046 14.984611281281532 10.962812755547368
Ba 7.6458057021139325 6.160550831647163 11.0816174717336
Ba 7.459956814936655 9.524743710352256 9.733041138668584
Ba 8.511571662477808 15.263355469056846 6.444303951211909
Ba 19.098433872235123 13.84165026144267 15.61886801170016
Ba 12.762796674984697 9.757301645999807 13.288857454789339
Ba 8.860792145036312 8.82339602978549 13.368329510560756
Ba 5.3742942093354 8.021409903679949 13.34434589932962
Ba 8.387822407952594 18.363080211060307 9.688853299858435
Ba 3.5323907031092845 11.56505188947374 10.958230899047278
Ba 13.749742603750246 13.867384556574606 14.23667848961478
Ba 15.626243566320067 18.690143344508577 14.960058159345419
Ba 10.176355210774847 12.935571474596545 11.463916944919303
Ba 7.253707199609537 13.6136341398701 9.272694566986337
Ba 7.800625128801521 6.0918119946044715 15.465314930004105
Ba 12.20826843460807 17.050032603056685 12.052671307435762
Ba 11.304545310302 7.854538792122471 16.863241633614372
Ba 14.934098783876511 10.692487339812265 18.03919758856185
Ba 8.161511960442377 17.050032603056685 13.724723698478586
Ba 19.037101476130346 11.947217778425683 20.88772390751429
Ba 6.947540380210941 12.122820603947412 13.413640765113906
Ba 10.300668676752096 12.312028295504813 16.098301740953616
Ba 14.639835559591798 14.703971501890456 19.528132794261975
Ba 4.9788631112137995 15.924908755821109 11.890036251949281
Ba 11.511507320680435 16.800737366542684 16.35362274837752
Ba 7.64580570211393 9.406501160260103 17.053086262341093
