41
Energy = -57.51193885 eV
Ba 7.139212239987792 6.449615366418464 12.265736998919396
Ba 10.427263073441635 6.028145630591168 15.155657485076434
Ba 11.167562828852283 5.956245859792702 10.448762350746227
Ba 6.429114848992854 10.45551327075434 11.721327412752386
Ba 8.733643828627667 9.101431021458074 8.673425782009527
Ba 14.80134173715184 6.363063141751456 17.144104671262724
Ba 7.313449311932911 9.663907700574764 15.811667291727264
Ba 13.852544534732838 7.825123139583138 13.205183844741653
Ba 15.471121050905854 6.331791397474464 9.389044117074091
Ba 12.047154603762488 9.831786710461556 16.632950503694218
Ba 12.11792615759936 8.009410749407875 6.807399281413219
Ba 8.913592809821072 11.228734410535552 5.58308908786916
Ba 6.446791914439723 12.405572617933911 7.895526266427114
Ba 9.984562678927297 9.557549380328517 12.798293446252817
Ba 3.339996117608965 13.396485280064251 10.920091923864318
Ba 15.453204734924109 10.032835199920228 18.920160801609136
Ba 16.330099203637 10.078475180097442 15.545231101448525
Ba 6.597349551965091 13.984632917342049 13.807982503759236
Ba 17.906832365228162 6.457920057398102 13.796394809639757
Ba 13.030703058619808 9.910503879017593 9.753479391702244
Ba 18.23557371048897 8.016347524623086 17.954374034275233
Ba 9.275807544102486 13.136239376382425 10.605575173799984
Ba 9.994425786631096 13.429473395362946 15.274680539522464
Ba 6.58362332396523 16.204034873866924 10.003854089527941
Ba 16.071302897966596 10.01055923994186 6.807399281413216
Ba 19.638191288923093 10.227544004313112 14.398009529738497
Ba 17.14114722396495 9.96107416287571 11.244451317505968
Ba 12.330561492667425 12.638133144598827 6.963988092359728
Ba 13.451103102392395 12.58417037774935 12.857238997188789
Ba 14.378812642210246 13.543019502351896 17.12739192450486
Ba 8.965238504288845 15.350063790988989 6.867747273160834
Ba 9.17549811650268 17.019354376015688 12.811331437703668
Ba 17.906832365228162 12.741053218743675 17.804608835921773
Ba 17.517986243024897 13.73843810144311 13.625539356784671
Ba 15.842215362515828 13.642047551291885 9.380111109358628
Ba 12.32359012132683 16.117602222507692 9.99992379370466
Ba 13.109611390771311 16.571268007927213 14.450004367138977
Ba 9.118828423054198 18.359757792215156 9.093470421514846
Ba 17.061191060239786 16.970551978828325 16.315474315388837
Ba 16.171709274954235 17.415520076624304 11.828750092901423
Ba 12.49427899667429 19.25430563654835 11.917489186116526
