42
Energy = -58.92671073 eV
Ba 15.316147451108451 16.301952007358892 6.382361164609627
Ba 19.72578402194599 14.858804977430221 7.1971610425147245
Ba 18.71994341039886 6.686350881361678 9.518140388513384
Ba 22.244887883935515 12.743854740175761 9.982256597373395
Ba 11.974840383664711 13.088539028217 6.628499778219079
Ba 19.810614268150967 10.171138926507409 7.723793369395433
Ba 15.921343560187996 12.646747982796327 7.596080994094103
Ba 12.996532321087779 9.531009606886457 8.556000770696711
Ba 8.527107924534555 15.675808352343966 7.457676984097882
Ba 12.518470355627763 15.746315414034925 9.001149665333461
Ba 16.643234202503958 16.489063171290546 9.977737370462355
Ba 17.216410784467563 6.6863508813616805 13.8461518380399
Ba 20.328667418159274 16.49953485619268 11.34549989375355
Ba 9.82059883295913 12.180088723753267 9.838397432226927
Ba 20.084376728835462 9.170351356829034 11.973304862116155
Ba 16.681565305973376 9.389696598243411 10.522307801149992
Ba 20.703072505317984 13.109731051268861 14.313926557877394
Ba 18.809740345183794 12.922687759345022 10.873165772857332
Ba 14.232990891253802 12.909333460028266 11.516439164414173
Ba 14.30541597616439 6.576741256156942 10.688256114372932
Ba 6.48000703178891 14.04388348929465 10.61833388468028
Ba 17.47145077685119 10.967839117945514 14.411124876362345
Ba 9.402380883374066 15.92624462490022 11.971111558759217
Ba 13.452504107847256 16.644595759317177 13.355772940320305
Ba 10.4520683107802 12.308503757185807 14.116143221825665
Ba 10.236475753784667 7.849490223591089 11.602226328469255
Ba 13.601802447148529 9.228788345971543 13.392961985411244
Ba 18.229973830199405 13.261184911179624 17.85220353294444
Ba 12.965107973272328 6.085361870700551 14.837278549860901
Ba 7.644201502363026 10.51150043613765 12.9992056013289
Ba 14.165828915792227 13.06440966537691 16.00936776225137
Ba 17.526457002645493 15.381260623533866 14.19102802090069
Ba 10.615265283527572 15.971160361848245 16.52737736077299
Ba 14.696051456973288 9.061180700945151 17.517540282551494
Ba 7.395976934786773 14.444772977472704 14.936956191192838
Ba 7.5490500524375825 10.952949666950184 17.345507387921728
Ba 10.202781660824215 8.521664158438874 15.954058927064837
Ba 14.983113709952162 16.627823448769064 17.898219547502045
Ba 14.747143453255905 12.771074086004079 19.62575108449171
Ba 8.301405692132212 14.723342507338423 18.622038167876795
Ba 10.850598955466715 11.994260902793304 18.622038167876802
Ba 11.646706551240674 15.71170202462033 19.977696117575494
