44
Energy = -63.56407034 eV
Ba 13.406003918434871 8.7532154726049 17.359997751716744
Ba 11.569632074355042 12.912410552344802 18.86914741567211
Ba 15.920684800551344 11.57425214397896 19.837319715442433
Ba 9.668912689447808 16.985565854547225 16.234927206338305
Ba 10.113976747148689 6.977909068114123 13.097561084751488
Ba 15.037716959929998 15.887049133500364 19.17778588914291
Ba 10.335053705381986 10.519682635324198 13.687995169222942
Ba 8.029097810979271 13.01440397718997 15.115910588025606
Ba 7.5944335517041655 16.34074943395501 12.354443284170431
Ba 18.943271056334655 13.62504741474651 15.319064131223744
Ba 14.699461659150176 13.197507697535174 14.432659400388772
Ba 7.321728388830743 9.004195983107914 12.432626727364568
Ba 10.76401754091384 14.646168998778931 13.055967414339843
Ba 4.8441991178106365 12.695828197115 11.620989682825247
Ba 10.088383860876572 8.758894578866013 10.057443758557872
Ba 13.380981584138715 17.665569910403033 13.985142495922242
Ba 17.412838585276294 9.612742160924327 14.150314134897114
Ba 6.527022846469524 14.9230947704655 8.163826988933513
Ba 9.95787204096188 16.21858622041408 9.018074152249083
Ba 8.085680556788049 12.623346029498242 10.701251486240167
Ba 18.943271056334655 16.81820032378448 12.799811120869968
Ba 10.012724455523724 20.872975364290742 12.233168138538261
Ba 13.859166668042505 20.56197923807748 9.78339296525603
Ba 22.872375506052656 15.10302323381751 11.269534538581981
Ba 17.708769860337757 12.810226888469368 11.265555787631673
Ba 8.08568055678805 6.783281479208238 9.18518265275378
Ba 13.942096804918807 10.551242353128032 11.484314715597677
Ba 13.255897939448564 15.512747550153751 7.040111846371911
Ba 7.069848339300835 10.28226657501979 8.062425402686642
Ba 14.02106948540244 14.861170560241774 10.47876271486042
Ba 14.368380655590576 7.320705425786206 11.780924319839954
Ba 23.01022914092937 10.854704902627576 12.13675001121804
Ba 8.895625968371895 13.138876386337857 6.454176941000137
Ba 11.541277675020176 12.139639662112517 8.377547073176638
Ba 17.743537155085278 8.733952301657228 9.716691765023123
Ba 11.53251695400977 5.813312072761176 8.676953459565814
Ba 17.567528579523515 16.114205681695392 8.37144112615127
Ba 9.75568007864898 8.494966011436595 6.822366892658828
Ba 15.779077558179766 12.181728407199046 7.597274704792477
Ba 13.059931592115765 11.167781731717401 5.235422986849589
Ba 13.74543088011004 8.46978668923752 7.783991076100245
Ba 21.83780668271148 12.132968466476049 7.86421834396711
Ba 16.006210205945546 5.822996311637634 7.698783090713148
Ba 17.226532581858574 8.848914101670724 6.181972916960206
