49
Energy = -70.07163884 eV
Ba 18.400575392162803 19.903044971073047 11.693877817366888
Ba 19.091323742335955 15.517738682423479 12.884303231964509
Ba 15.792661120360153 17.8440313987642 13.34864969268878
Ba 17.47434794944982 14.92056776206441 16.661406072428303
Ba 14.561476452773674 18.271312404700552 17.7771868193379
Ba 15.266144911718028 14.337981877198947 20.088279241790932
Ba 12.733622287263339 17.44667010736072 21.658836828377805
Ba 12.926368820403106 16.51527432036988 10.192558293827043
Ba 13.391538423982828 13.759985337581908 2.2491699041264135
Ba 17.93721231862782 11.077699763529202 14.293164267871791
Ba 18.15903359185259 12.270912677385768 10.050040422431017
Ba 17.105679983559785 16.026059724628116 9.337839349311931
Ba 11.882076225963438 17.311090683141177 14.31627809779868
Ba 15.579827210647974 13.755001257256863 12.989995593200298
Ba 15.83756318472981 10.740854916662713 17.83856592108449
Ba 12.685790937248928 20.167399908158803 11.914832725144748
Ba 10.410726006589115 17.202846230995625 18.45444828830136
Ba 13.200449462833742 14.111825612463388 16.840489290417683
Ba 13.735203633987387 10.275223100835714 21.167534196521476
Ba 11.162570571608937 20.468142168814357 15.968678010315738
Ba 16.53475451813254 12.343267064090467 7.2154221537740755
Ba 15.485968839621817 19.87807651201014 8.984120358969795
Ba 15.715582205059361 21.301703981059447 14.6789096947808
Ba 11.1032544715528 13.563391465493428 20.23472812065139
Ba 14.00218351884456 15.980571118597021 7.079861487224982
Ba 16.398897073285298 8.055908476213554 14.993483753040884
Ba 14.032315791699142 7.7345906797407915 18.553090753740026
Ba 11.090493010694773 19.47661850660741 7.958791730806698
Ba 11.400395458807175 10.112009433497077 17.753969463938887
Ba 16.258632771905095 8.981723509805075 10.865898036042221
Ba 13.738545739987783 10.145381646638883 14.121616254978825
Ba 8.836180163946997 13.497841104751247 16.63390530559985
Ba 11.107763641662768 13.416019195510167 12.986715936317237
Ba 13.943755555291185 12.515065020723885 9.44311145324418
Ba 7.821116990024169 17.387942599428094 14.839905690516497
Ba 8.845850025475817 16.448780468255503 10.63008850460914
Ba 12.116755826106298 11.707792979103221 6.801142948766367
Ba 8.446866142733626 19.903044971073047 11.751011320496533
Ba 9.751151464953937 15.440468667885568 7.618806965831102
Ba 14.335809181542237 4.00955597555462 15.661769740362839
Ba 7.821116990024167 18.774685397960567 7.733391653610765
Ba 14.34645840180813 6.135408923108708 11.690753196753183
Ba 11.846747251774547 7.58075882188916 14.78913180145445
Ba 9.039560067324917 9.896410470883186 13.784596102451701
Ba 11.870164307634976 8.706039514257089 10.508484313590953
Ba 7.641203362393533 13.573777846469623 12.733663324547184
Ba 5.910478846352418 17.590202747677587 11.554049646136692
Ba 9.34968795353944 12.118722046996885 9.42278365793612
Ba 6.768499075451132 14.504792158713236 8.419207720566929
