48
Energy = -68.83142529 eV
Ba 7.205935350645333 12.892004132759425 7.704120972079465
Ba 10.318919424877217 11.611206486183729 6.970984882597421
Ba 3.943272289140584 14.057210451569325 10.887841121385254
Ba 10.950247147010028 7.380597519405399 5.480216195178587
Ba 7.504914767405415 8.501183840647021 7.412654181953397
Ba 6.491714771342015 10.431396690616815 11.341962018042816
Ba 5.771567759567902 17.77553857786696 12.76012599666929
Ba 7.236419175901853 14.73569292640519 11.38975089108577
Ba 13.69725050635933 14.33978472723503 6.622550316433761
Ba 10.029033115155721 15.322320238099483 8.271734779901836
Ba 10.06045406764564 5.578002860927279 7.918658026530592
Ba 8.757339649702079 7.109640426837504 11.321539192725597
Ba 14.459431610818273 10.048759567458113 6.6020220636202165
Ba 9.346933195698753 18.738796839248806 11.199885622365267
Ba 13.420092568489306 12.872783885384678 9.703806638699245
Ba 12.383267459160543 16.383948621244972 12.396378065392296
Ba 9.39462809193598 11.335553937295737 10.303731173580253
Ba 6.4345500447278985 13.399502442309737 14.740324425964609
Ba 13.713798873490326 17.463990519417287 8.518114195911249
Ba 14.416720142111036 6.641855672707269 6.970984882597419
Ba 11.580049908486298 19.56841487303288 15.030602635430421
Ba 11.60482744318308 8.417162411989192 8.445374614683477
Ba 14.321558531567774 20.06082776476331 11.801808150056846
Ba 8.274272628115419 16.77125698561511 15.158072102845964
Ba 17.392341608391305 12.786366840179642 7.812017794867542
Ba 15.429384524831436 9.007126667831676 9.4976366316763
Ba 10.232932080947629 13.262534348651743 13.962141452023047
Ba 13.030805117286684 6.542781582599868 11.373005461070521
Ba 15.651329233053788 17.561131972238265 15.251174764510193
Ba 8.434817891165418 9.674342730993592 14.777670179712894
Ba 12.053208032860836 15.687125780719454 17.029054447712713
Ba 17.337861334494825 11.602957333080008 11.908851024023715
Ba 8.615730556397903 12.794445425708199 17.961074080606483
Ba 16.803166466724345 15.89727251153544 11.205224214573724
Ba 12.721139353501155 9.566231817836382 13.031243320338373
Ba 14.62351784667376 13.513718478970262 14.283496310796684
Ba 21.007641850642333 13.30071876999746 10.87477520572169
Ba 10.45130402079005 6.829185808951213 14.943551670902714
Ba 17.00271498845262 7.343244553684584 13.027829750015405
Ba 19.663472135979365 9.098209643979049 9.519775344411517
Ba 16.045360584874707 14.161434391714712 18.302574290295198
Ba 12.609756888827063 11.181162556415272 17.178116803209786
Ba 10.03590803384498 8.197091478079052 18.53294604835065
Ba 18.89135481797608 14.172457907043611 14.870247449085385
Ba 20.5781308358682 9.901038383074283 13.959803770342345
Ba 18.89135481797608 6.863508076579494 16.987912509815885
Ba 14.204556233786965 7.105975664195284 16.503346295971554
Ba 16.8322939105406 10.4639350486982 16.02303148667854
