49
Energy = -70.93116298 eV
Ba 7.2716072945201695 19.601270105145286 12.014449002080562
Ba 6.471607564017235 14.96183757679356 12.808953036929216
Ba 8.33199503568828 17.009387883554595 15.990435134706082
Ba 7.236978108460487 12.756020733521815 16.919830627015173
Ba 4.986361027888345 10.739389430264945 13.595097824238927
Ba 7.027397780957836 11.624312603068196 9.462439756415744
Ba 10.496300776941698 12.735470201295952 9.481376180902084
Ba 11.111711013930824 19.264643701133917 9.59534797547866
Ba 7.655605306498423 15.926979140865216 8.607665284320777
Ba 11.265993143704911 20.111423002315345 14.02829740982907
Ba 9.70854326048131 14.90867317823879 20.328052110410432
Ba 9.855129769356667 15.84469843083681 12.171934418479486
Ba 12.840070428362461 12.79218106936773 19.110601954436717
Ba 7.037601690215119 8.400739935259729 16.25941758765806
Ba 14.643326911474224 19.604229329847335 7.907747949135461
Ba 8.276561756148437 11.752012594151909 13.050985228680977
Ba 9.892998716090304 8.84443443901743 7.974912143047508
Ba 9.979263404014922 10.253864273164943 20.33646257477147
Ba 11.14085033924434 13.901910655621936 15.335207994013546
Ba 12.811943976534304 12.975289923554353 23.125251724154804
Ba 11.332796944521535 16.112168857680143 6.52965548334719
Ba 8.667876427935173 12.60172301643664 6.284827218052606
Ba 7.339668686048453 7.753093564254761 11.732175111150557
Ba 14.893748144880277 20.83928605106128 11.505144407747387
Ba 13.145481911007774 11.975886437987311 7.04220274771659
Ba 12.916621930165844 17.16448160442488 17.451123507009758
Ba 10.178858944949667 6.4991795272932835 14.650123185478076
Ba 11.505134669705056 5.931641841863404 10.519630552853675
Ba 16.22178225183659 14.700359096443508 20.36935939814452
Ba 15.331652466037454 10.000002320625358 20.482470062517045
Ba 10.718214249507819 9.890041055887671 15.834462998570771
Ba 11.155660656580917 9.16056879998332 11.932073876859093
Ba 15.99626745458247 15.38681939739567 6.301156214629373
Ba 13.638017237741687 15.388979945444389 9.041126118285595
Ba 13.853670394226192 12.350340919222303 12.259058708356918
Ba 14.303722205799014 8.985432616674451 9.374567750532094
Ba 17.348705377300444 17.065164643638756 10.019892332590217
Ba 13.925812119219788 16.619927290817873 12.8796232873089
Ba 13.891152880633081 4.042248740042376 15.234329988153908
Ba 16.968878393576013 18.121824446383556 15.177141780032713
Ba 15.42144215182709 14.184614884932005 15.904789913185898
Ba 14.617378494580198 10.241078656427216 15.826764619663734
Ba 12.722133626547699 7.6235098551433085 17.949634621510175
Ba 16.858279717311717 12.66630074862188 9.087487841703506
Ba 17.4790392902135 9.823873482092559 12.79565218301034
Ba 14.161518447006555 7.753093564254762 13.443278049858586
Ba 18.58536098556504 14.136054512818491 13.082405197600826
Ba 18.840585457443794 11.58011881117365 17.02557283892318
Ba 17.4790392902135 7.650813292777067 16.687410519228063
