42
Energy = -59.18349185 eV
Ba 9.49441865869066 5.647866097330379 10.39723730217068
Ba 7.248715757023998 7.838859558193796 13.359588246792075
Ba 5.5641799879467895 11.2688350777672 15.478332015827487
Ba 8.625175059406569 9.92679690288834 9.787464467952049
Ba 10.618708206678535 11.563640242698433 6.468582963913345
Ba 11.67842891477877 8.152580992797152 13.073392897900392
Ba 9.128431179934354 9.13552780699765 17.03261160065554
Ba 13.70880171163122 4.928919977743906 10.531327493645154
Ba 6.767740474201325 14.977300672917277 13.408694926726772
Ba 12.183196259104983 7.881210977943355 8.257597568584716
Ba 16.712943110097523 6.631742261378121 7.952471829669044
Ba 13.170942896309326 7.625285058801923 17.728243507734707
Ba 12.497840141779358 11.814039210064463 10.29501471242457
Ba 9.704433834800039 14.566972110760348 9.815894268597143
Ba 15.224139187660457 5.79062378362665 14.316017404874678
Ba 8.973926451917047 13.567872948161162 17.35945571369927
Ba 15.060493908446885 10.545387205172934 6.868356850532453
Ba 9.32046308353611 11.702256720305366 13.477140970376272
Ba 12.480171415648199 11.49164538325585 16.107337173956015
Ba 13.62138332020918 14.72475315607326 6.940096285358287
Ba 15.560395811766522 9.03416420300082 11.120807239504993
Ba 14.75004755644573 13.443511738572285 13.375835348963495
Ba 16.502361926888362 13.344763261724966 9.609116079391956
Ba 18.63349827657361 9.039096102150072 4.752186844705683
Ba 11.106350946449279 17.109394489482348 14.1357011194814
Ba 16.062298463981065 9.756707545458545 15.156781706720116
Ba 13.785286777846883 18.282241508160162 10.749391536269925
Ba 11.492702362178864 11.13722469386553 21.88517652898023
Ba 18.13326667782624 13.312155984122432 5.780328400657804
Ba 19.09300400635931 7.433789271920156 13.08275715644598
Ba 13.345133374485776 14.801333690187343 18.252170317234622
Ba 15.841356465381251 10.915165276706848 20.767896582470673
Ba 17.6799571391509 6.944545544012646 17.68704968194106
Ba 17.393960262898336 14.039920997368288 16.399939250540672
Ba 23.809515127925163 11.289103932390072 6.080121140437775
Ba 18.068978218198733 16.227089663272487 12.350498751648571
Ba 14.857320132224132 19.113161420661374 15.126483677717
Ba 19.111937142886095 10.047711036362212 8.747540089453157
Ba 19.945877443470266 10.377037382161069 16.768098133728717
Ba 17.374329127950453 17.10939448948235 7.952471829669043
Ba 18.93093785473105 11.906218921709533 12.767098409493153
Ba 22.369855962612608 14.185444841801306 9.121920758747304
