46
Energy = -67.42245584 eV
Ba 15.45564727562357 10.32271941440976 9.217632633944703
Ba 15.540248587522639 14.57282962071528 8.181105418114866
Ba 12.599374366284055 15.266495906664051 4.4155893264546995
Ba 14.414512353464277 11.226525958322732 4.898871723395292
Ba 17.715018230362784 13.258777652662086 12.694989400369892
Ba 15.27407921599837 17.318179392479617 12.141702960105386
Ba 11.85591543917391 16.912171054525437 8.865339975860165
Ba 18.62631889551036 8.970616528288684 13.572966705535292
Ba 12.94033618982249 13.651056480914832 11.402624864553854
Ba 8.357484915734409 15.111110358405965 6.624202831671555
Ba 19.01856196023619 8.735156233109059 18.265032763930847
Ba 11.643067695540084 12.538998215030066 7.775023798447906
Ba 7.620474031605352 18.236861333341103 9.816818392138147
Ba 10.936381191212678 18.2368613333411 13.071633148812092
Ba 17.315983527154177 16.005179688802766 16.51664702697974
Ba 13.929401763014937 19.8140080033818 16.195812937620403
Ba 13.788508195993893 9.91682518922948 12.98312412024189
Ba 15.581083418861096 11.42869859124599 16.412648685004378
Ba 13.623597805737713 14.96974510933483 15.454761703266522
Ba 14.695721423558663 7.249672310779516 16.039770160284125
Ba 20.47297058499079 12.288790337613841 16.21033882226975
Ba 8.94365866114993 14.409013665149702 10.676075351826581
Ba 14.191363929659516 16.525127990808425 20.019730674860654
Ba 10.247532567478729 16.714806848758908 17.654246580307298
Ba 9.947577050270162 13.518906688610661 14.767807715404844
Ba 9.892201465088494 10.517437274056158 12.232131596249282
Ba 16.890362769670865 12.919498224257886 19.95492936052909
Ba 7.552784738014286 11.057615868253617 8.690830826341083
Ba 14.878124562156247 6.455265857810637 11.401319099382777
Ba 5.1224350873548055 14.569847473388165 9.710487848805395
Ba 6.942047751162984 16.22478701379777 14.002186144783265
Ba 12.329720968146992 13.102936146145572 19.041757939017803
Ba 11.456882609986682 10.059797087317987 16.506867524675165
Ba 11.468210373839737 8.327484379992685 9.15482234089179
Ba 9.992411661878469 14.76650728996214 22.927456353379803
Ba 14.117565044133906 9.229945732396 20.722807157434037
Ba 7.669738474386537 8.879425649026055 15.848441837740562
Ba 6.2828198329757745 11.922379399633149 13.011912676298978
Ba 13.493745246928368 12.644845950625728 0.16085522098492822
Ba 6.942047751162982 7.717504527904823 11.345351173419836
Ba 7.816816962370676 12.916256908316567 18.14327793473889
Ba 3.7123040749949565 10.220980388571627 9.86065404137235
Ba 10.908262989168103 6.869856920896138 13.644600675910983
Ba 10.739642136071986 6.669832770351448 18.35193137496571
Ba 9.915870962608178 10.235260339549226 21.802544857544596
Ba 10.175133132970059 11.904198862943506 3.314897631914788
