43
Energy = -60.34741815 eV
Ba 8.257514452790918 7.281985688751808 18.036634865205592
Ba 12.001647553414214 9.749031283121559 18.036634865205592
Ba 12.30884589345403 6.20470445562719 17.66076011154063
Ba 8.187682184428718 11.24912885425776 16.403622971463246
Ba 10.030632236020688 7.622317540419398 14.65080764394461
Ba 6.381073265283121 8.179788555115689 14.912168898765772
Ba 15.910178709105939 12.135708802594959 17.160517529595
Ba 11.840283524814915 13.658907670356102 15.868437848019074
Ba 14.188924331443602 6.431363761475651 13.64674647822741
Ba 16.0135630093901 7.790647601691345 17.322374269368236
Ba 19.06761744970098 14.851109663341859 16.574311283457252
Ba 9.930642524916381 11.382479497832785 12.53509010843128
Ba 15.532302067468988 16.03525925352156 15.20802845610177
Ba 8.005069659374799 15.2835496467967 14.127715459686923
Ba 19.316937872975362 10.303087284695991 16.661151605719613
Ba 16.444495248286426 6.43136376147565 9.545147505563031
Ba 6.264754821161325 11.985046657469436 12.708739157066143
Ba 13.711489297655824 9.933021630141123 14.177792267688888
Ba 7.461218574113652 8.236134615035379 10.894916197010687
Ba 11.829115210004087 7.684930963215662 10.509608983466283
Ba 17.724716481383748 8.2446980660585 13.416772953233048
Ba 7.6235632301485285 11.951241091418618 9.011024565193479
Ba 13.94451078448991 13.821485798611645 12.004131418286738
Ba 17.762228087962892 12.523791656596625 13.385944220030582
Ba 11.861196957978375 17.74337544697976 13.799298840438269
Ba 9.298781030133448 8.906809116682027 6.678628666534453
Ba 15.383008481295917 10.193907702173084 10.354678861899794
Ba 10.3579200937498 15.25144657188575 10.632288756395
Ba 15.756535541133621 19.77716353983246 14.014324890736887
Ba 8.394543527658492 18.733811742844154 11.883290515881773
Ba 11.944922834130507 11.512166032226899 8.591131768781441
Ba 18.181540579141366 16.915005791566696 12.596586502616445
Ba 13.592475877060311 7.948532366352931 6.582377989221646
Ba 7.122379264724308 15.942258374841552 9.820589501261894
Ba 18.96818285792092 10.174814383026066 9.761010074577714
Ba 12.171501837053194 20.926630835105104 11.50714971214326
Ba 17.324199018669376 14.20623596186971 9.42135064019632
Ba 14.653028975611477 17.79092210576324 10.647522493128468
Ba 9.403570236299013 14.531052187099187 6.380836113708305
Ba 16.237419176736427 11.231179130411258 6.497586099482863
Ba 12.208005008257368 11.593742153909174 5.131419404827757
Ba 10.718594083693134 18.081832654239612 8.355283603554291
Ba 13.607268814498354 15.048303485224036 7.327738052796371
