41
Energy = -57.31337897 eV
Ba 7.889709458626297 18.1584024889067 10.623929368047976
Ba 7.235599482011657 10.71620436844986 7.560262285768336
Ba 9.185885504795285 7.253168842120178 6.607376780942904
Ba 9.116157768886994 14.520456939306602 7.918680560254761
Ba 5.3490854755440695 14.53977768733123 9.281549714152002
Ba 11.23612042145815 10.632253084785486 5.76002339767165
Ba 13.076709271568326 14.33431992291839 6.607376780942904
Ba 12.015295852585595 17.454608008032043 9.118445826439906
Ba 16.967357544981986 15.717129512394129 7.794178901229159
Ba 11.924176978258691 19.00238500462462 12.669311447071053
Ba 8.627637991905043 7.793234436523717 10.533478685839514
Ba 10.095706335636487 15.000451538084965 12.021118040445874
Ba 7.357530189917756 11.793786827557115 11.82722632408349
Ba 5.921651635720418 15.551104247029544 13.37615936017017
Ba 15.586195216885296 11.15696610273836 7.563128764307562
Ba 11.29578402827917 11.174079693253326 9.764458341373532
Ba 12.927833207373258 7.530482113978257 8.501119679193733
Ba 17.622797908248984 12.949596250187929 10.653847674941018
Ba 14.366783603595938 14.01558219871141 10.863498479466388
Ba 15.630889973199743 18.022654570474355 10.96006821513054
Ba 18.841569222406633 17.289137843455528 11.247856609919655
Ba 13.288156442809502 16.377599427436106 14.517108193029578
Ba 15.34611732226784 9.866200835268904 11.687149818680071
Ba 16.36635744733632 18.822042173393775 14.580434260071572
Ba 19.29649685872889 17.882598180056544 15.812636150615583
Ba 17.387518917744174 15.280585327864921 14.098054767563198
Ba 9.123044353285938 17.68673261861506 15.186365443796067
Ba 12.095227159895256 7.389184188565968 12.927479063086842
Ba 12.058559407467708 11.608411110454826 14.026695974918301
Ba 12.606396368784022 18.804488577167632 17.114458841792224
Ba 8.632824084345856 13.380195674648883 15.866862293922788
Ba 20.64061351175835 14.116676400236937 13.844861557128745
Ba 17.387518917744174 11.063863897738589 14.61489813093768
Ba 16.076593910291407 17.029572270376956 17.945767475297956
Ba 8.742357212834092 9.037089625622649 14.9079793903465
Ba 18.458511625155282 13.982458241576769 17.70895834208919
Ba 11.679981731583554 15.362926525950272 18.245370717462997
Ba 14.686407223583439 8.71345770270037 15.997665060217434
Ba 15.08486437294526 12.952347019596004 16.869008050724776
Ba 11.342723132158516 10.646821362847094 18.10340150388901
Ba 11.293837992760235 6.533977833494966 17.139445699991285
