43
Energy = -57.37849483 eV
Ba 13.679902478575167 7.01874177916683 8.411106909365342
Ba 16.43731702310499 8.640081223792674 9.5805442570181
Ba 16.097693643852814 12.086424346517395 7.266415540402552
Ba 18.970848660056376 11.129808071197393 9.981295115182235
Ba 12.04987047914264 13.052841034883654 6.743980361022953
Ba 12.575009099370229 9.766969516178655 7.819279449151283
Ba 11.418882496242206 5.685360142931424 11.513818922316034
Ba 12.928955328752535 8.417840042854294 12.031058707911766
Ba 17.461474668607856 14.607818705619321 10.451556208927176
Ba 14.703410777977801 8.621107193064756 15.955388306490665
Ba 14.284675640603256 15.783664970306933 7.835196286194624
Ba 9.639449794033503 8.395564079290766 8.726858949515222
Ba 13.606757030463168 12.617223777507773 10.738488272586933
Ba 8.447976728496885 10.877381925281355 7.198063312935642
Ba 16.163101136211953 18.566907837337716 10.543254303939896
Ba 10.04199566188001 14.421741103597602 8.988450975269282
Ba 10.641835887690977 17.12617994366545 7.12655967530178
Ba 16.61857265150583 11.23905993014039 13.127530848931773
Ba 8.45458264346892 8.307501023362219 12.54697047456437
Ba 9.678296471664497 10.824278556979106 11.176366921920087
Ba 11.517825819567006 7.255851095471921 15.358637591874679
Ba 13.495067863500617 19.72759320442915 7.2320043240470016
Ba 7.956173017141906 14.203718010448279 6.216836709574778
Ba 10.493788686867807 10.179697813532922 15.221130467405818
Ba 15.10556997785956 15.408837348605871 13.615105605358282
Ba 6.1940729251961075 10.260278274465 13.61537853329606
Ba 7.665747736452055 8.417840042854294 16.55499187518234
Ba 12.229296770049414 17.30406351549579 11.055143512112215
Ba 12.858165085220685 21.21144088889909 10.840317555325313
Ba 13.855797999925823 12.572355578874859 16.424602315235763
Ba 10.75878033757919 14.203155717601996 13.724129892891112
Ba 6.560762802450679 16.64002014723549 7.991788945023285
Ba 6.228323637702116 13.18474564718219 10.52809686991191
Ba 6.881799862415278 11.047188745159087 17.63567802313654
Ba 9.392866564482405 19.59807890398335 9.107718298468868
Ba 14.108239731883604 19.39172573992772 14.157349634137105
Ba 7.858543403118338 16.804126202939614 12.014129591164842
Ba 12.936993413013617 16.54949938182974 17.063979788337544
Ba 6.663184862025234 14.075257600977187 14.904823690215057
Ba 9.970057279192002 13.673729041160279 17.838804923166663
Ba 10.012803206171801 19.72759320442915 13.345633788167644
Ba 8.979626435672895 17.411185909001535 16.164045853779704
Ba 11.581790479519917 19.997025088118914 17.216376993430174
