40
Energy = -55.83032626 eV
Ba 14.039234546789855 6.5575354592199 20.342744632624054
Ba 16.144549273062154 7.5539019591859065 17.303128822032782
Ba 13.476934368678595 10.441893334012505 18.3921433982752
Ba 11.899805653675108 6.512726882673612 17.24653502637595
Ba 17.752632502759013 8.668119922915318 13.31988667743353
Ba 10.043255766254259 8.390792036930813 19.804732040434516
Ba 18.48572159977196 9.989774368803664 9.075213421474029
Ba 15.62673239448239 11.390085016977059 15.188436428677516
Ba 14.184114055375884 7.342189429532342 13.385520363768155
Ba 12.611750430964092 14.208168912015115 16.867840791895325
Ba 17.810345740195036 13.23302565957777 12.145963231552768
Ba 11.489389686409679 10.151567265892412 15.360815019122997
Ba 16.63076117734003 6.592241762810963 9.88457143316338
Ba 16.166154074768905 15.776561725610309 15.077783449974353
Ba 9.442955321860337 12.356734917376768 18.216172263696915
Ba 13.633118964398207 17.370960595151356 18.186552925568222
Ba 9.805338348152862 6.3900187984783265 13.16018342577007
Ba 15.507857724442486 10.756895431023343 10.940216156912236
Ba 7.859190421919735 8.75663671024865 16.743938518775973
Ba 17.001569376758265 13.42096878704815 7.600307646166624
Ba 12.917924116247798 13.063684922498025 8.591900127085895
Ba 9.3709072597708 16.79800348040509 17.213039872082884
Ba 12.594480721627754 13.652877905437881 12.783310990106239
Ba 15.404932180416443 15.925105491211662 10.816162923095346
Ba 12.355734320559538 16.876005695828045 13.980614813777672
Ba 7.264111022903912 9.917446136175625 12.406586287230455
Ba 14.92209853595299 9.512144932424944 7.04135284329158
Ba 8.601697309411888 13.190109438251367 14.8133723001003
Ba 11.324735684690085 9.771246643230906 11.026034893701432
Ba 11.209295769867238 16.86378911030121 9.545146287520078
Ba 12.347149660703616 6.387100444730308 9.1285985511069
Ba 8.088213161633956 7.436021535348727 9.147133055980493
Ba 8.2445027641977 16.876005695828045 12.821050146978575
Ba 13.54990789089898 12.991931681542935 4.746657558152552
Ba 6.559957116085823 11.507944312801607 8.09172404797969
Ba 9.05583930570894 13.320550626656695 10.408266405496637
Ba 10.501441120695604 10.098672670473501 7.04135284329158
Ba 5.338670028077986 13.776249833936424 12.013583216089744
Ba 9.602331966428713 14.295487701894967 6.424135434096803
Ba 6.567966369615039 16.191974974693128 8.691410859853038
