47
Energy = -67.36930343 eV
Ba 20.611361849901442 10.403288088272715 10.309980407620722
Ba 17.746982735570064 12.276348630641621 6.976708913723764
Ba 11.785946526404306 16.82543968569073 8.732309556476073
Ba 13.519256044178178 13.831292917588993 6.008031752012271
Ba 13.995809870589687 18.783382774223398 5.791655885923483
Ba 18.794196520310045 7.6623045050456415 7.029470945183731
Ba 18.644272432919077 6.757272073762959 11.396279122839946
Ba 15.171890618782646 9.232830659746464 5.67214801760103
Ba 17.478211518591554 13.446204874110501 11.251098668687868
Ba 11.88053438137776 10.040652361180983 7.461589462225393
Ba 13.621053568252423 13.005092822546876 9.691804148457981
Ba 16.26718566812581 16.26539497233624 8.234499561019101
Ba 14.764585517090236 20.173919176021553 9.89110554464954
Ba 17.273416691296408 9.90289991834247 13.393228035228546
Ba 13.565077126145813 6.602536444272308 8.789294107205869
Ba 17.129346855688983 15.425862598398385 15.590623802826874
Ba 14.684851755019364 6.61950787551395 13.136633020359822
Ba 18.79419652031005 17.58485566012688 11.94406669387692
Ba 9.175563456808408 12.980213917380594 8.577488499282076
Ba 11.096149863415992 19.18639967524771 12.78808211753725
Ba 10.602028874775273 14.688352848650071 12.413962033803207
Ba 14.506138754905969 16.4638504485693 12.14475998160198
Ba 16.053367604765036 9.48131117914373 9.507244700577314
Ba 6.5545198418184905 14.414833780955659 11.999209210691742
Ba 15.389510039845819 19.9487619956317 14.443967431948966
Ba 5.672734379161025 10.727213252809578 9.827908661849571
Ba 21.4537578275457 8.832705376933383 14.434841297320142
Ba 20.90606943173149 13.195641725773537 13.900187438988523
Ba 8.833886901603371 8.014810061220908 9.414418022393045
Ba 14.316805753512064 12.805007728959565 14.038682987329116
Ba 14.307751797675863 12.889804620512415 18.74098158974924
Ba 8.752355686974857 11.006586337506986 12.27407374073577
Ba 2.893018322709895 11.263441967650905 13.163785895125663
Ba 8.156276925285638 16.129363367205634 15.574714223037102
Ba 12.68206091373553 16.43277500179213 16.05047966336062
Ba 10.418667541708919 5.970972904062647 12.62167260865631
Ba 13.904304456907036 9.39538846101681 16.09806406933987
Ba 18.074522879775742 11.187000044994367 17.094501438905233
Ba 12.397156414459687 9.492814014796851 11.842045732284163
Ba 17.491672400974963 6.75727207376296 16.315051752575233
Ba 6.461875707091596 7.893676494019796 13.018160548658505
Ba 10.606218079982742 12.542388668201582 16.04059287258738
Ba 6.693748239782928 11.745528997321074 15.568602933639326
Ba 9.71177742382308 8.446001033951704 15.47904114902439
Ba 11.15255332933512 9.652103595332804 19.57499454191454
Ba 12.750185513113976 6.039267287411911 17.130471364736135
Ba 15.384115666500193 8.561837974311818 20.087514259911433
