49
Energy = -71.11944618 eV
Ba 12.255936068412487 6.962188169676832 7.371818539133998
Ba 9.394613459596407 10.116707867793558 5.740676742368273
Ba 10.675774137203971 3.7475929969014365 9.599995810786977
Ba 8.300939886406804 7.329896286488123 8.887227381407055
Ba 7.302911293097674 11.840280816642185 9.017793561516875
Ba 19.573482555295485 7.769578466650115 9.435477712918223
Ba 4.835863935799259 8.625890761204666 11.089688232337226
Ba 13.68807313244051 11.281238390041668 6.292640166073753
Ba 15.232417116890856 4.983989165991865 9.6890091326538
Ba 11.15271232162838 10.475677368851404 9.41486255438718
Ba 10.56127793569594 14.177914643681229 7.63618197838587
Ba 7.699745172439131 5.702550132016655 12.766492413300625
Ba 11.974925486004455 6.905589882889018 11.93863305426432
Ba 8.618602008152408 9.664695998684818 12.486151214746812
Ba 7.464178082794016 16.353262659312964 10.535847503307204
Ba 5.768989555343595 12.687437918966877 12.981674901305045
Ba 11.895160829508608 18.04706035289572 9.689248898711892
Ba 15.004756931760312 9.031238733534725 9.624725792077427
Ba 5.8462579921078826 8.786872259135276 15.388262663759676
Ba 17.72741163050884 11.909915094615554 7.870820197147051
Ba 14.938210352507143 15.608220222984803 7.209099072006601
Ba 13.271391004581059 10.721276284213422 13.96833168675656
Ba 16.40380720130177 7.276114204874408 13.242661105412218
Ba 14.21289221433944 13.23646764181241 10.27769504144769
Ba 10.274213755907354 13.868705247332533 12.134946383409538
Ba 10.074013344021843 7.741339157543166 16.13360405309441
Ba 22.109168622210312 11.750811227056 9.96708356851581
Ba 18.388539063767485 11.055453863057505 11.84425072414381
Ba 18.05681722560137 15.211437174440535 10.623024770216968
Ba 8.644040379057753 11.776309768149897 15.927239540064365
Ba 4.967460732626239 12.775421142756928 17.39735387844244
Ba 7.485617122720966 15.83273118182904 15.385066576526704
Ba 10.362250394797266 18.827398217415848 13.558345708404207
Ba 7.302911293097674 9.73945825404216 19.94022112470152
Ba 14.1087511137183 16.531276240063146 13.03604688130562
Ba 11.49755661184548 10.85349853376878 19.47605234717579
Ba 14.528447338414525 8.139257217145932 17.143411384084267
Ba 16.443822724687546 13.67636138997444 14.58243889828989
Ba 18.388539063767485 10.218759071301493 15.982150890921213
Ba 15.360799106808141 12.305725156718733 18.320465346629913
Ba 11.908802864978979 14.353407266614337 16.21631569956286
Ba 21.206113728011417 13.62776581261594 13.884535463512135
Ba 8.627584683989816 14.237288845354144 19.9109371056601
Ba 12.753665112790502 14.927393819912005 21.146052825842364
Ba 18.167283544480707 17.653296930541824 14.536009716871815
Ba 19.60323389858319 14.559555339545353 17.839050166056552
Ba 10.977465384845244 18.64658542636073 17.81836819789241
Ba 14.04518712236809 20.708653132072257 15.009853258302451
Ba 15.161492357287443 16.714587405797364 17.443763059383123
