45
Energy = -62.98055002 eV
Ba 6.1974585393452974 9.887922239716604 16.1826818451571
Ba 6.990018647550842 7.1120715095057205 13.07034692846689
Ba 8.769256661750028 12.184568415534379 18.379169191818235
Ba 6.39035987556434 14.362190833559994 15.366531863577686
Ba 6.784760322766309 11.052041684097578 12.209918126391297
Ba 9.880467297455585 8.796025620314685 15.564760581428475
Ba 11.010400392916017 5.40012273998344 13.559904930855932
Ba 11.958056425151995 13.870544392409832 20.3867747039241
Ba 6.66100529933783 7.962829008911422 9.012232890189852
Ba 8.919620057844668 16.48695042995498 18.06486010825796
Ba 9.523380920161962 17.24790451710096 13.76785823217509
Ba 13.027278327933123 10.875928211921572 17.61072609397158
Ba 9.83094762441916 13.004770840414025 14.473320501714591
Ba 6.860325235291402 15.258213770974823 10.94846752915122
Ba 14.115095254562565 7.962829008911422 14.715009828499959
Ba 9.718034748357102 5.461272474561938 9.554298790038166
Ba 10.450546794558344 9.022592356573634 11.411711280221716
Ba 15.142701765461396 16.001459332439794 22.5012170314556
Ba 12.10193417244194 18.033879495512828 20.09157641142053
Ba 12.28005683510274 19.294539434815245 16.461377265721953
Ba 7.514254399674897 11.851257476344944 7.8801575540068605
Ba 12.774375002439152 15.104731011923002 16.936359124350165
Ba 15.918581485154057 17.377535204637137 18.932952520896876
Ba 10.549224248331209 13.427456728818035 10.2523575588937
Ba 12.816793629856665 19.563199532535265 12.11998566073569
Ba 13.685426568288124 11.507486019783324 13.426246733330863
Ba 10.78627262004911 8.786216695994487 7.608757428393019
Ba 16.091690906487162 13.190475960662642 19.73864293672393
Ba 10.442301195484035 17.72613423861773 9.404839014455375
Ba 13.80169523618892 7.20769715753467 10.377579530058696
Ba 17.207565070509293 10.082821292371465 16.438855920787876
Ba 16.672149683556146 14.125881361985861 15.434104027979048
Ba 16.05537213169092 18.44030409078078 14.722451216670402
Ba 7.997870971376309 15.773413066038646 7.028841621234449
Ba 17.10950312581486 9.409999450123273 12.067705863188497
Ba 13.39713544332593 15.888430901867594 12.540900363559448
Ba 19.10947962134126 16.496563789017845 13.291449277077682
Ba 11.360845598784572 13.056750299779377 6.333041696781552
Ba 13.778388921324556 19.294539434815245 7.934643259204601
Ba 14.038431305136598 11.104855812761766 9.156565274005255
Ba 16.722612668731838 18.20456553988654 10.52749840947161
Ba 19.584113434012078 12.092723071185258 13.897101214876907
Ba 11.775764476356642 17.248865495349126 5.396844109415708
Ba 17.029309288745793 13.77228275177045 11.116575689274137
Ba 14.160272570937929 15.57276762869185 8.14304393224592
