44
Energy = -63.0270864 eV
Ba 8.3090182033757 20.76122676355588 11.512753969468179
Ba 12.270319368213249 21.981267378158417 13.274680245751636
Ba 10.840133728666014 18.999091300767283 8.956830125686023
Ba 8.356849352688736 21.317688687012364 6.760612342151648
Ba 15.252478925425274 1.8429896824207468 11.404896971516278
Ba 14.672792057401086 20.502978215178967 9.857123278030285
Ba 9.71345353503246 17.256087627150727 5.519565222134861
Ba 11.411591785092531 0.589731934267601 9.272743740066764
Ba 7.9783239175623955 16.33410096992431 12.594042766064156
Ba 6.765102852836824 17.530851328038015 8.459093668757957
Ba 13.925540203665005 18.51388972162796 6.017368032954742
Ba 9.604229292452379 19.15901496078642 15.748845908201229
Ba 13.371313802187043 16.697959264622014 16.396194353776696
Ba 14.217894306458543 16.05078990602446 9.503702880644274
Ba 11.765983477672279 13.622557924393512 12.935722971808108
Ba 6.113529942518227 13.149202689849586 9.580688256333879
Ba 10.057761293072083 14.866033102786522 9.162652291627223
Ba 15.870005515788993 19.31313601247667 13.703957498864236
Ba 8.252581576862271 13.121074185943177 5.816056536592939
Ba 12.727972538761565 13.95486833234966 5.863364478371467
Ba 17.991281939359016 17.51404038992633 10.031140861923063
Ba 6.085373071655982 8.781252710574313 11.056427662579368
Ba 15.87021313901177 14.8419955040321 13.319033942994597
Ba 6.694432071479052 9.21467034609212 6.805049530749416
Ba 7.879587060854939 11.788043746331255 13.394439816073701
Ba 9.350229646096393 10.797752640968131 9.59908584670763
Ba 9.633867452306417 14.59989035081201 16.396194353776693
Ba 12.032154821752455 17.860782942316288 12.65770033747753
Ba 13.580976085751537 11.72721248450121 9.555860084787067
Ba 16.908214121938144 15.164953591200561 6.250505838872242
Ba 15.878629038376607 10.604020774780917 6.327105950699583
Ba 11.658975932762967 9.22946424544955 12.703589587912681
Ba 13.564109290941515 12.022433104187668 16.310491981674897
Ba 11.316174742781103 9.59177259876417 6.232683058012105
Ba 17.610135168702307 12.937194299012962 9.8002162580316
Ba 9.458877162529852 6.85424866283352 9.528776398814744
Ba 8.580953493098544 7.20569316624024 14.01913549560469
Ba 9.83552559688922 10.14362020796213 16.763845084017497
Ba 15.756383344982611 10.253682916684534 12.990890158301557
Ba 13.787989856535544 7.605941304162547 9.366225412357554
Ba 17.865991387470036 8.781252710574313 9.733169221624822
Ba 11.916309541776014 4.474199468466122 12.515627719073821
Ba 13.104020720252288 7.538231740718183 15.950963862948717
Ba 15.86882837459043 6.141526630325451 12.80659295170851
