47
Energy = -67.56544937 eV
Ba 4.863677907085959 12.091836263699884 11.4450612879379
Ba 7.0288676591300145 8.458908733658602 13.542435272304932
Ba 7.213122424619122 12.651890853151633 14.769306645849854
Ba 6.130090887031046 8.679791668077659 8.98097058678797
Ba 7.739312604623594 13.917801332187445 19.061822997733056
Ba 7.236054011144714 15.578616211545526 11.290950722926686
Ba 8.200456531995748 9.521480055167572 17.779246988066213
Ba 8.316579971494228 11.24055996870173 10.789253216410769
Ba 9.464405865498854 7.189423052525576 10.573780538562886
Ba 10.467919751445962 9.718404947410816 14.139836821451402
Ba 8.740909863293052 16.635596747891338 15.670806507618654
Ba 12.294549151977094 8.283192054873929 18.33057989013492
Ba 7.213122424619122 13.022548419885746 7.534945263058459
Ba 10.913073267769374 11.587772336036645 20.9234869677944
Ba 9.239087169551834 9.32171639585113 7.33438780808585
Ba 9.722048697289157 16.54019448894529 7.735652746289048
Ba 11.934274875944462 15.768668162097933 19.4777964978501
Ba 10.057669468221686 6.486765924947669 15.277934597334058
Ba 13.173593635738506 6.8917457337845605 12.390184585224683
Ba 10.840453798486603 14.14290887794497 12.677097464787273
Ba 11.018114779709311 12.724569430548508 7.80175602795598
Ba 11.12448490678528 12.780254441362151 16.773475352640926
Ba 9.370136936567288 13.381112201703827 4.763054729005419
Ba 14.9213334418221 6.066364316542647 15.836516524992598
Ba 14.562510950825764 9.565419350059885 15.287829539555313
Ba 12.824149699362371 10.621241589435474 5.087703738967055
Ba 12.72876109413401 10.831886137537872 10.870910366170262
Ba 11.012773825696112 18.186840225924396 11.817452310674831
Ba 13.775950739045058 7.87675123323696 8.11333838197678
Ba 16.754340097612616 8.298325230996346 18.743903347280654
Ba 15.142786290463254 13.621894050295626 13.741358221278793
Ba 16.59068336412134 10.037298981815326 11.799871376490229
Ba 12.846963201480648 16.81469574176396 15.430486560208704
Ba 14.691398487218832 12.240735962022155 18.743903347280654
Ba 13.36363151954598 15.074855083143145 5.9118688212241475
Ba 16.994880795733216 6.617359609365135 11.08183820052517
Ba 16.531928997975292 15.917077405506493 17.182310690711407
Ba 18.648408942267878 7.6579881570272175 14.692156047976932
Ba 18.21633047011328 11.753690665627747 16.172068742785257
Ba 13.68389146740786 15.41369736128774 9.765590398931046
Ba 15.274997858310847 11.886722099256147 7.65122153184445
Ba 16.03690795888638 17.613403823170326 12.77340222019994
Ba 17.839673797536218 13.941793781926625 10.236523997994668
Ba 18.720299405988975 9.313847648907002 8.482251200910788
Ba 19.427737562092613 15.135385500162881 13.968717663928098
Ba 21.0969323899122 7.015677590409705 11.175793124609767
Ba 20.50958049590864 11.08350147379914 12.394080770858817
