44
Energy = -62.86989744 eV
Ba 16.84730963997539 10.91843091565175 16.36668789668867
Ba 16.11812923843906 8.572574378674243 19.066918401368696
Ba 15.745082848109073 14.863163524440141 15.950004323696858
Ba 14.120707337702177 12.633784647200276 18.879699617503857
Ba 12.854677192408857 17.317653384674067 15.602741995688296
Ba 12.14015016164668 8.9271643635452 20.692758137514826
Ba 11.528034968050278 13.667029229678205 16.177336211591122
Ba 9.283420073892612 11.290913229144115 18.344901699157713
Ba 17.61909425965488 8.757276081885104 12.868080136766878
Ba 17.029593333858546 13.1330994043619 11.853465026824422
Ba 16.528370950146506 17.0186393428563 12.590391826298674
Ba 12.31676667438964 18.35889198032588 11.319614908387573
Ba 15.655090875787526 6.734389027282435 15.850600762708584
Ba 19.430169526054673 11.477407348590344 9.463484705827623
Ba 18.404447006550757 15.849859283422122 9.310421517128447
Ba 14.222941195120207 10.128502576141466 13.174599120164906
Ba 12.768102995611157 9.586598044993258 17.23423803348287
Ba 13.270755586499499 15.259565681075031 12.530781232099669
Ba 9.698177487784276 6.792804022521334 17.382519033265375
Ba 9.051850091546992 9.74603654611981 15.104921200322153
Ba 6.948486517169232 13.089423278077449 15.459542386352991
Ba 9.249171717327481 16.395553393086182 13.395345780675498
Ba 15.10340871404781 5.780306119529928 11.505090829595703
Ba 11.615641666497092 6.772623386877559 13.917734792141587
Ba 14.82584681801423 16.43964967896254 8.682005922397398
Ba 16.82331679791679 13.017237936129796 6.754840185943626
Ba 6.6572121127520845 8.997501147493553 17.382519033265375
Ba 10.508864179943012 12.19693810638682 12.301650016001279
Ba 10.387740593841794 15.587308774960439 9.234100570978331
Ba 13.55629411389625 12.461617490992754 9.309069621533876
Ba 16.416502609015264 9.321487098430488 9.075405665966361
Ba 7.221922892553362 5.959597087242962 14.128317012333877
Ba 8.455950488099647 8.736631619789447 11.054883220421925
Ba 12.286506507486035 8.416342275423823 9.828884847350842
Ba 10.015851613982472 5.686798168563118 10.405572362233373
Ba 12.308018279127351 14.067746281226615 6.451204091086094
Ba 9.757941741052194 11.523376901069337 8.112360686989286
Ba 13.110731552162688 9.817262105291663 6.754840185943623
Ba 5.953531445980911 9.701351201469548 12.92215672649111
Ba 6.752024642867203 13.229624750210311 10.982605083412361
Ba 9.124084540204635 7.484754586537679 6.896101718971114
Ba 6.601887959646113 6.048837322960167 9.81674984617207
Ba 8.959736147858779 11.070513552573935 5.074533522951149
Ba 6.69800004436578 10.137445293131073 7.880414981451216
