44
Energy = -61.88731442 eV
Ba 7.879929237322226 11.125212295379447 7.879929237322224
Ba 7.879929237322226 1.44953021607016 7.879929237322224
Ba 11.012387938993982 11.012387938993982 11.012387938993982
Ba 7.879929237322226 14.183840213326864 10.98813622370137
Ba 7.879929237322226 7.879929237322226 11.125212295379447
Ba 7.879929237322226 7.742853165644149 7.879929237322224
Ba 7.879929237322226 7.879929237322226 7.742853165644148
Ba 11.125212295379447 7.879929237322226 7.879929237322224
Ba 7.742853165644149 7.879929237322226 7.879929237322224
Ba 7.879929237322226 7.879929237322226 1.44953021607016
Ba 7.879929237322226 1.44953021607016 7.879929237322224
Ba 7.879929237322226 7.879929237322226 1.44953021607016
Ba 1.44953021607016 7.879929237322226 7.879929237322224
Ba 1.44953021607016 7.879929237322226 7.879929237322224
Ba 11.012387938993982 7.855677522029612 11.012387938993982
Ba 11.012387938993982 7.855677522029612 7.85567752202961
Ba 11.012387938993982 11.012387938993982 7.85567752202961
Ba 7.855677522029612 11.012387938993982 7.85567752202961
Ba 7.855677522029612 11.012387938993982 11.012387938993982
Ba 7.855677522029612 7.855677522029612 11.012387938993982
Ba 7.855677522029612 7.855677522029612 7.85567752202961
Ba 7.879929237322226 7.879929237322223 14.183840213326864
Ba 7.879929237322226 4.684225247696734 7.879929237322222
Ba 7.879929237322226 10.988136223701371 4.684225247696734
Ba 10.988136223701371 7.879929237322226 14.183840213326864
Ba 14.183840213326864 7.879929237322226 7.879929237322222
Ba 7.879929237322223 7.879929237322226 4.684225247696734
Ba 4.684225247696734 7.879929237322226 10.98813622370137
Ba 10.988136223701371 4.684225247696734 7.879929237322224
Ba 14.183840213326864 10.988136223701371 7.879929237322224
Ba 7.879929237322223 14.183840213326864 7.879929237322224
Ba 4.684225247696734 7.879929237322223 7.879929237322224
Ba 10.988136223701371 7.879929237322226 4.684225247696734
Ba 14.183840213326864 7.879929237322226 10.98813622370137
Ba 7.879929237322223 7.879929237322226 14.183840213326864
Ba 4.684225247696734 7.879929237322226 7.879929237322222
Ba 10.988136223701371 14.183840213326864 7.879929237322224
Ba 14.183840213326864 7.879929237322223 7.879929237322224
Ba 7.879929237322223 4.684225247696734 7.879929237322224
Ba 4.684225247696734 10.988136223701371 7.879929237322224
Ba 7.879929237322226 10.988136223701371 14.183840213326864
Ba 7.879929237322226 14.183840213326864 7.879929237322222
Ba 7.879929237322226 7.879929237322223 4.684225247696734
Ba 7.879929237322226 4.684225247696734 10.98813622370137
