49
Energy = -70.9298641 eV
Ba 15.400945713129499 4.690415102656389 18.957476862876504
Ba 15.045411802204777 6.500358756019373 14.729144049911014
Ba 17.294047707273972 8.057998837437513 17.638469906400044
Ba 16.566661742908106 10.41328874553795 13.780941496284743
Ba 11.103640068311677 6.92052105042145 12.882088688498456
Ba 19.887796819724592 11.799727263126698 16.622459082756528
Ba 11.426248302497365 5.470447806607642 16.866422555047812
Ba 16.928937102656388 10.9838688718428 9.027003169475778
Ba 19.941462799208672 13.402880529849757 12.261872242472387
Ba 13.102353045006701 10.781181188022291 11.144429479744717
Ba 13.264293925684669 7.987983428528189 19.445948723889174
Ba 18.099890717358637 15.373109663886124 8.196712409309713
Ba 12.687840855527384 9.371104747504615 15.382934193164184
Ba 17.58056839800292 20.121766414511416 7.84418604138381
Ba 15.305173905996105 11.907592337437983 17.922492884333153
Ba 14.56746928147829 7.604825539311935 10.250041620227899
Ba 9.960687510888697 7.915365684223737 9.065489294095276
Ba 16.953572292508895 15.020230681843051 15.584742082569948
Ba 15.625693670775265 14.233029380224476 11.74715838207055
Ba 13.096243405803728 9.909730520791546 7.241381766246759
Ba 8.699217384262463 8.501916346997445 16.423471025486567
Ba 13.76394332060586 13.93565663366703 8.084312799079989
Ba 16.016742646071222 12.806852955989367 5.295836983538603
Ba 18.099890717358637 17.83955216636878 11.959083077604587
Ba 10.970808310451368 11.87372099312947 19.021751506984426
Ba 14.697251631335767 17.08249244819988 5.919096008471167
Ba 9.343389115226236 10.252292577351492 12.563368817006154
Ba 8.424530386719912 10.260617258173228 5.9954590086633335
Ba 12.737880767861562 13.490269644716303 14.692730558176216
Ba 7.296945631568888 7.429901847746678 12.484086542546592
Ba 15.290227286662224 21.74802148931758 11.390270601678619
Ba 10.057244426811819 12.267394436428075 8.702791669458366
Ba 12.673898193078001 15.886883091564446 17.983015665868315
Ba 11.286685875150255 15.411211893518523 11.275255584495447
Ba 13.991337160295151 18.073752923134236 13.944506388625332
Ba 8.722481805532016 12.976131823144172 15.550243448094678
Ba 11.3050493730565 13.675418752305152 5.268481845197676
Ba 6.677765305909409 10.442005165175042 9.477897539143724
Ba 8.191027969182866 15.561921533453912 18.92500809904653
Ba 14.472525769149465 17.78748305025396 9.643394520514892
Ba 7.563025942561863 13.813142878445309 11.67435482430165
Ba 9.547445947047231 17.074445790536288 14.708716385849128
Ba 7.428814502790463 14.421108872635294 7.320181462109784
Ba 5.708601469454578 11.035190959232565 13.860679377869669
Ba 10.547974879220478 17.081900458913864 7.573791680267386
Ba 11.042963401304034 20.012768251391577 11.210657023793297
Ba 5.890284504203004 15.619946019970655 14.767191981677648
Ba 4.155304883796685 14.269915201944185 10.726071362247268
Ba 7.563025942561862 17.62095150223532 10.731650277251047
