53
Energy = -76.91345598 eV
Ba 10.969234587805163 14.658962609804954 21.12988175485843
Ba 9.265564126416074 11.294848270169807 19.04928416507487
Ba 13.8234436602645 11.506121572625675 19.49538079428649
Ba 11.269978767285544 7.853827657322956 19.885232853264377
Ba 15.128779697928291 16.10509975224156 19.710057768242226
Ba 8.05057915672012 15.328330683117294 18.02915645500996
Ba 15.540303308252456 7.8203841810473405 18.630451359818213
Ba 11.155814100703132 18.41446918852795 18.75617806478986
Ba 9.791450741875211 12.391195131927546 14.999300538093893
Ba 18.200273975950854 11.722217329439841 18.865248581180037
Ba 12.325411418584931 14.400659116423839 17.352700161152402
Ba 15.084712175608946 20.296541548869996 19.212204703061307
Ba 16.46100650828312 14.577570421978637 16.389935750195498
Ba 18.498239274574555 18.01236376729224 17.594293664232943
Ba 8.363956871675953 7.975001842628355 16.53326911277101
Ba 12.056526268082544 9.308457313921153 16.516350830609447
Ba 7.168975401676964 17.710086425500492 10.962138385963774
Ba 6.104817744464795 11.41561271867363 15.807277208647392
Ba 15.746472881160848 11.004125696177587 15.435295740473814
Ba 7.596931601293944 19.5253677781924 15.717675291741473
Ba 14.496244430892066 18.053425357318634 16.077226373063088
Ba 6.880605000377544 15.231719547995112 14.189132013296367
Ba 10.529964212268617 17.15974683760611 14.314689872998882
Ba 12.450169702527946 5.091235969480303 16.902903768047494
Ba 14.923723964705788 7.480739144892262 14.563887523193243
Ba 12.101102153800012 21.11523849104303 15.73024014781231
Ba 16.739631467422722 21.11944507310961 15.094305210525357
Ba 5.799951930840363 13.11728553450885 10.636935424268962
Ba 11.299778570844142 17.24062446481394 9.943539681796272
Ba 9.526860980458233 13.753730207767877 11.21810761009926
Ba 9.84504983251234 20.5327562314609 12.025282767478336
Ba 18.522164585231064 7.975001842628354 16.031110901184146
Ba 11.030192372253138 6.724449387063893 13.1653626957729
Ba 16.631497334559818 3.9875900748328337 15.087384981985329
Ba 13.642837678888911 14.786435208902104 12.911534109437826
Ba 17.703862051506814 8.711984137219005 11.99212216007017
Ba 19.207568813395238 12.428309904363404 14.59158693712573
Ba 12.988683082611963 10.297754747471544 12.065274849612496
Ba 9.255697103313857 19.5253677781924 7.864213492993225
Ba 8.174404859201376 9.681171712958223 12.154092312013686
Ba 8.366547201065714 15.492485372523449 7.673620970075438
Ba 14.681211848315677 5.9164854906173066 10.896701442345575
Ba 17.633430806405432 16.973814839156425 13.13789550159906
Ba 13.996300507555535 19.519075145181038 12.132818000354648
Ba 8.701489108665536 11.219903798027659 8.017822955952065
Ba 12.600867501069695 13.097843044119879 8.269790316156769
Ba 16.80205219046238 12.819556261611801 11.143664237706632
Ba 11.16185326014068 7.978582427156881 9.049808994183753
Ba 12.193701671150494 16.97335101094053 6.164537865714334
Ba 15.264134028930034 9.441657559737166 8.398774550731739
Ba 15.414983163093336 16.526876210724165 9.107739393591899
Ba 12.131401591316243 9.69534995671076 5.556802904659267
Ba 10.152327075182491 13.411555522532057 4.308552118919834
