53
Energy = -77.15618155 eV
Ba 21.47793891706501 16.46734123336271 13.326218685894547
Ba 21.581583757624962 16.085279987774264 8.796105920692309
Ba 22.472559496605232 12.210011270319043 12.574130423972662
Ba 19.359450075660266 13.001080527357384 15.191240638233134
Ba 19.064610447538684 18.918695720356627 10.71048757011789
Ba 21.297175996373632 11.590480476980959 8.384411248144511
Ba 20.251887754753696 8.961624894185233 15.603776737372051
Ba 19.182680738789653 14.064578421746653 11.002007153105485
Ba 17.5276185717343 16.71907948516348 14.026364377190754
Ba 18.352680845915515 13.93956611560029 6.927876741966991
Ba 16.38872004600009 10.126408651824834 17.016375433307438
Ba 19.110406411864698 9.83777622021104 11.624507305538124
Ba 15.122478079842207 18.845141844401756 17.02948506452198
Ba 15.19634285553074 19.852432245302168 12.547912711722718
Ba 17.70944410021123 9.653772246070744 7.402778327595461
Ba 15.4205352701423 11.95081646024488 4.709195911717109
Ba 15.654229930690654 12.13542817422344 12.977055967338112
Ba 18.244675784416266 18.054356773233224 6.711348125827143
Ba 13.136414093919463 6.915682335601438 17.314237239716523
Ba 15.30083220322168 14.349785013737172 16.77031564894319
Ba 14.715895181026085 12.406566800873552 8.66765931908981
Ba 15.665689928485357 16.363596707043914 10.133343553150128
Ba 16.826295691962315 7.536089280113116 14.221306104384553
Ba 11.400359464667481 19.863206959705415 15.244757536561641
Ba 13.356252901863192 16.7748462637026 13.73055486658344
Ba 14.43059224045423 15.97921910425184 6.382407047386229
Ba 14.453980849444436 19.852432245302168 8.105170008737092
Ba 14.826133684955373 8.398270460840633 10.47200224468574
Ba 13.409148189329608 5.148212541237556 12.950786957358483
Ba 11.63450549656803 13.054144985039482 13.825570691106407
Ba 12.77920932340832 8.8204147001625 14.071866467644004
Ba 12.220685303301352 11.35049085501692 17.592860237367983
Ba 11.322422968777433 15.235059311957148 9.984070704548623
Ba 8.866252087886272 8.771065204573635 17.53412553160811
Ba 9.12349755383458 16.766326116767363 13.860450225518191
Ba 9.522793971461889 6.008360291717835 14.527604330726348
Ba 11.362134426857521 12.973684918232808 6.22521279736233
Ba 10.822085384919104 11.070821385525786 9.864376047730737
Ba 11.086287256814249 19.333262477989905 10.84598328747885
Ba 11.410367693054395 16.071652611337818 17.46225878420892
Ba 13.08363763866403 8.897957400423353 6.5919054836809385
Ba 10.492569538047357 7.3620041081004475 10.245566615454544
Ba 7.998230934385727 13.322561363157735 12.00141824611974
Ba 10.247380321078841 17.510084561339934 6.702801288698825
Ba 8.127759930167267 13.07308570877902 16.37986710314696
Ba 8.926290735182665 9.736083455460511 13.545503140792693
Ba 7.321152775367888 17.116539952398035 10.147809281944786
Ba 7.899263854711089 13.484117389426686 7.783267813976886
Ba 5.192376110412472 15.539900498095133 14.160456639375674
Ba 8.748483843008547 9.340031574048858 6.382407047386229
Ba 6.805642591801279 9.626025191023079 10.100532757829948
Ba 5.201385677975364 10.922485739699445 14.226513964126912
Ba 4.118001498475563 13.392642610849627 10.423241088283348
