51
Energy = -69.04626785 eV
Ba 5.769412696473208 10.252566889506733 14.347745790877836
Ba 7.618072468200935 9.856290008961038 18.00817156165207
Ba 7.956978188970678 13.711038238113742 15.689494008343368
Ba 5.805060554886462 13.52968893480111 11.933200975894968
Ba 5.479054132922475 16.943153913981924 9.397985544241529
Ba 7.683804512888832 16.930753070907624 13.034679768260263
Ba 10.425497464486734 12.351210319611514 19.024202946948378
Ba 7.87883757966489 6.8641369019583465 13.225467660280382
Ba 9.533680686956561 6.635858257291209 16.84900978391719
Ba 8.071690895336946 10.322508958310685 10.895965611887183
Ba 10.151491207615239 6.854905276490751 9.845977891751916
Ba 10.209267235255803 10.35405757093713 14.725125934237134
Ba 9.978510461327991 17.41985659570657 16.210440655411702
Ba 8.07315014742563 13.83067660212039 8.349177773414835
Ba 8.398439917338582 9.391847766494141 7.076506251596761
Ba 10.159807702553364 13.723401510718338 11.886787635287279
Ba 9.366802806111675 17.999369282300698 9.45460765451631
Ba 12.214169310757358 15.976352730216759 19.024202946948385
Ba 12.319346588808106 6.890054213447394 13.813036752197096
Ba 14.292229725657089 6.613327736292151 10.113336006046936
Ba 14.471696940717537 12.192705158428684 18.69374899625799
Ba 9.989694790152958 20.03998454293958 13.179147053756916
Ba 12.557814812882718 8.704354511734469 18.133126028154546
Ba 12.201594298560751 10.284663138011036 10.77148301608151
Ba 12.37823863041832 14.03495633943277 15.448464980987394
Ba 14.425999827198947 10.583374259618061 14.63752771133314
Ba 12.394274091890056 8.670473338235151 6.958749644120204
Ba 12.363755409905004 17.23795697327038 12.157093635336212
Ba 10.921125409797336 12.468600446293964 5.870071359047324
Ba 16.49158333976435 10.168400683698183 10.807253490650455
Ba 16.330437930853925 15.898650718100903 18.779661095545706
Ba 12.211529309221234 15.658853221747188 7.966348045072376
Ba 16.59311377718612 8.417797375688588 17.640881759609055
Ba 16.445805562084693 6.86413690195835 13.794030775836049
Ba 14.050223948130558 18.02813234472117 15.799454204254642
Ba 14.453996002287901 12.200749983467748 7.536957929270791
Ba 14.349717901730969 13.714248392300378 11.521517657389058
Ba 18.458566267029145 6.656571765241488 10.280407619273698
Ba 16.44232616990862 8.475295917830701 7.07516636741465
Ba 16.85832677307878 14.326720733046862 14.943734975847814
Ba 16.448687781727834 17.47882666908986 12.058609350581499
Ba 20.141059731883274 15.722838927475577 17.672314826085092
Ba 18.54535266339368 12.09841124709392 18.07663566321642
Ba 16.359671897312776 15.922590718599873 8.172067832832193
Ba 18.6377414470045 10.187559545618713 14.355074766678987
Ba 20.416990604709323 10.5171469618 10.828435003847963
Ba 18.501394731424327 12.259075539848963 7.451523768063097
Ba 18.091403887652827 18.388844786319705 15.669464595162486
Ba 18.574901032922103 14.011325944444032 11.193550669430946
Ba 20.248415998915405 8.513371397024754 7.344399028868432
Ba 20.813391543224146 13.405795292248666 14.302101636219811
