54
Energy = -79.38881414 eV
Ba 7.2906930464753845 9.60199576541309 15.557098207459871
Ba 11.031603288745192 7.480889945938121 15.568657860147564
Ba 4.148438442999418 13.088433364910665 15.89919246106459
Ba 13.567685992346833 7.405104931102848 11.456835983547316
Ba 15.138991463396799 5.740005377729915 14.979363748596768
Ba 7.342288607956301 12.325073284204977 19.981522381791503
Ba 10.0468551124437 8.872939682674433 21.015602371719062
Ba 10.12212819547436 10.574480195837586 12.074422618205015
Ba 8.648390654644368 12.06943051556519 8.006035289055362
Ba 10.270503182401972 13.377735666933303 22.609689604362455
Ba 14.318042775657887 7.839226181274408 18.641135249663435
Ba 5.8352862837924055 12.11410900345541 11.825724137958955
Ba 5.439350836861613 16.539572280473244 13.419858944344119
Ba 12.171042147296673 14.089916381170422 13.597434628816064
Ba 14.415698518594372 11.31575082450066 11.15988236073322
Ba 17.30713415011081 8.967021574230557 13.053471147126924
Ba 9.647583242822696 16.47326310077231 7.024795357985894
Ba 8.184664454586212 13.778685694381545 14.919273689361185
Ba 13.833471362123205 11.722672468109218 21.13087118176931
Ba 12.497209172628914 9.760826336353142 7.86956944507917
Ba 6.792621004956528 16.524050255625703 18.888264467790123
Ba 19.097527132598817 6.95746099372683 15.956957436897506
Ba 17.06834835766951 8.703097060135207 8.712984923931725
Ba 10.862389455032547 11.441140051108615 16.99200151272579
Ba 8.64839065464437 15.100527024431079 10.992395127996081
Ba 12.051506366768036 13.317440630740517 5.0588296096430225
Ba 14.168828553182601 10.141601165752839 15.192805756929102
Ba 9.688607079092607 17.833103405033533 14.447422313717409
Ba 13.844692116880852 16.260457525527837 21.95501926092654
Ba 10.856612515762203 15.448367932220666 17.872295231489872
Ba 17.57425278710502 10.69078730911455 17.734101199176855
Ba 12.058696712923668 13.84366200994764 9.01739785159601
Ba 21.821868800571515 10.793415046180725 14.769295840044336
Ba 15.993764774194323 12.78909003879664 7.392871321585228
Ba 19.097527132598813 5.423355924569847 11.64167056985515
Ba 14.839173674739598 14.38478482665024 17.12551885238281
Ba 17.222967136457935 13.266475321082636 14.203775701137177
Ba 22.0517862354154 8.911847476917382 10.953348650069623
Ba 15.44622057977996 15.37784913692779 10.94564106181619
Ba 21.843287401505513 11.949285168532466 7.639667612698644
Ba 14.328143219723977 17.59992177154583 14.311283612932268
Ba 12.500792756566444 22.436629005836288 13.380174725521831
Ba 11.877468004989534 17.878836135103764 10.606057534342359
Ba 12.864686309677957 20.56061541806761 17.616984917823576
Ba 17.703806436455103 14.127701967501672 21.495129743644192
Ba 21.205184369291043 14.680999107262133 16.756678844717662
Ba 22.779274697356346 13.96932181893158 12.076113250490971
Ba 14.354553463553883 16.91534064409267 7.179838102328098
Ba 15.949862230116418 20.701211001125255 10.665735518423979
Ba 19.53149823656281 12.278610866662126 10.657518483010309
Ba 17.09211678546032 17.744968903030475 17.802528331048702
Ba 18.939978491826995 16.085301614613872 8.810839017055425
Ba 18.62909947541562 17.208453391523154 13.376552087453538
Ba 16.540247623818477 22.205127408703113 14.966989266568701
