54
Energy = -78.82450595 eV
Ba 7.312968993860354 11.778810896572296 8.237984707484802
Ba 8.323350930384107 9.393081659546297 11.592465562341651
Ba 7.0572945354353696 16.255738475204158 10.354749623607201
Ba 9.923452341598713 14.972847641778491 7.380298645211182
Ba 11.540330792071893 10.645508118386116 9.08377821849659
Ba 5.403845358718958 12.575256826060867 12.48154931094776
Ba 7.566307118580087 5.39033853979336 11.943212653280158
Ba 5.489437821574237 8.260391437307378 14.67449010997993
Ba 10.716853309531363 10.829292990862358 5.359749274626807
Ba 8.838258721582772 7.47538847969424 7.811859033734416
Ba 8.566819166592115 20.37778643899849 12.575356304612834
Ba 9.580620489706755 13.27697204375653 11.578875138441294
Ba 7.242771212847812 4.524800221522869 16.397938247749195
Ba 9.443697590357603 19.91975118239928 8.496925532726452
Ba 12.863497234553375 14.586677123908022 4.355408798319949
Ba 13.241373877779584 18.092147269901265 7.122862120056363
Ba 8.24990291608313 15.827894869463199 14.65083630091284
Ba 12.023578248356232 10.358871805564608 13.31239070454637
Ba 11.686620258505384 6.8057586989904895 11.121854536067806
Ba 13.778009745142956 14.131637749093585 8.401251505031851
Ba 8.36487953856521 11.599996821201284 15.515084777070705
Ba 11.600243091529663 16.772652299258457 11.38464903240856
Ba 13.490121779225031 7.353749931028489 7.380298645211183
Ba 15.121935971041353 11.210536838960609 6.166047192037328
Ba 9.513759058200188 7.399128328102983 14.994181853926499
Ba 7.743557699643295 8.34978501291694 18.600087838543846
Ba 12.828187608578217 21.164836132474804 11.190451451193384
Ba 12.481982191077794 14.146146998914856 15.387144138776016
Ba 16.344784153622573 5.833237524981058 10.802294858373658
Ba 15.141815506486127 13.710224102151045 12.202617197862182
Ba 11.739419516377694 9.983430361082489 17.65410339901961
Ba 16.19757214537192 17.359714427453856 9.853019779483363
Ba 17.838191225864573 8.152925225007973 7.392662065491423
Ba 15.534448047284718 9.6215961277318 10.855500501711294
Ba 13.89621898213306 6.809830902018312 14.867778398498153
Ba 16.853039075526 15.502953352553215 6.027636685139106
Ba 15.282356426279378 17.788443569198318 13.986330893362675
Ba 11.364365098749701 19.016700669487136 15.639522997598478
Ba 10.331523763085288 14.601622874922915 19.349725531282893
Ba 18.885722737508935 11.647147804818932 13.435349480327963
Ba 18.25758490743399 12.660809765980728 9.141761098966482
Ba 14.740442986869093 12.824634170283785 19.825319450565992
Ba 20.8194043995434 8.644785941559194 10.901117619357853
Ba 18.241280892073426 7.529754505232275 14.552984519148755
Ba 17.018639351126332 14.426316090992279 16.03364343333161
Ba 19.201304533026757 15.8581939124225 12.544765822743456
Ba 15.407513633911911 10.58629895406436 15.465201066660343
Ba 23.078965919024355 12.698110605706901 11.604889380374651
Ba 18.96951362664271 18.643631049307093 16.59782252886182
Ba 14.61805472860877 17.01526611526873 18.936043548880807
Ba 19.51123732764069 10.860542062376837 17.817502923701888
Ba 22.895006041561643 9.754506166450849 14.877969716782308
Ba 21.919587035318763 14.135471696409162 16.005326980280536
Ba 19.201304533026764 15.015573025919476 20.349239537315544
