5
Energy = -4.11263762 eV
Ba 6.9635986348409675 8.895928871121574 8.893282088641744
Ba 12.8501979379345 11.302623099154168 11.286366434395884
Ba 8.734189488539025 12.221730402713714 10.832027472615833
Ba 10.914207296853665 9.974287457105076 7.732418321405337
Ba 10.10508207637808 8.08178755718569 11.616542211201647
