51
Energy = -73.79150827 eV
Ba 9.67983627687186 10.492800461512145 20.108314531426064
Ba 7.633492407022987 14.727201815697622 17.943647106717698
Ba 13.809656493268502 11.687895771746087 20.03326557633426
Ba 7.404853892402096 18.565013645593893 14.728593922962583
Ba 7.447093538133989 10.819970291460322 15.76239349393025
Ba 11.328660952511601 14.893710755906719 21.183728813546942
Ba 6.391675120594456 15.875360636125626 10.61810803326562
Ba 17.40150712023725 9.740522079619836 20.624085356948786
Ba 4.6420806339386385 14.310181275168812 14.60767724582864
Ba 14.044294104035009 18.565013645593893 20.91013247118432
Ba 10.379351401632313 18.274131955576987 17.998339545053287
Ba 11.068945011519222 8.499178834946726 15.671563146759626
Ba 13.775086482435636 7.635183869029632 18.89811166320913
Ba 11.048867534481774 12.856227621216057 16.4964156060889
Ba 16.2025513081317 14.613764218345162 21.751935947937916
Ba 10.67338596459791 21.588026303927343 14.45520468518492
Ba 8.410519866311468 14.314666094066427 13.712661682539935
Ba 17.461145229105874 5.6813479123557835 18.342963507337434
Ba 6.434141516133493 11.407369223819455 11.43354309093469
Ba 14.846792258613611 10.703361696901409 15.657443934886082
Ba 9.475198372971391 19.351336388575092 10.911626712344516
Ba 14.409185262552807 19.92694091210783 15.951994648086222
Ba 14.126997348360671 15.498090172398763 17.490557745472852
Ba 8.7099987508485 16.995391356690924 7.232552664276202
Ba 7.591612655720759 7.635183869029632 12.968374833524903
Ba 17.80568419802874 17.576120491122783 18.25079962500597
Ba 10.317347532947023 10.804578449400532 12.274148450719963
Ba 13.448561202781923 13.663318969754256 13.006397779837325
Ba 11.384888871403314 16.93355814800266 14.408249348613552
Ba 19.149587227876584 8.821752114947621 16.136283378613903
Ba 17.80092121911447 13.188620374965762 17.392591182744056
Ba 7.914421421916242 12.747691892411515 7.87222236774809
Ba 14.564267535998281 9.688590506457405 11.469338874190147
Ba 10.496596884503436 14.985302442622485 10.294092380676908
Ba 15.151607824251041 6.822231523505785 14.639658757555777
Ba 8.949085024023015 8.624765372656345 8.889602517037726
Ba 11.748856530121856 6.80901168105364 11.617185471698088
Ba 16.666450395061496 16.070883227986126 14.097603061372528
Ba 12.012405387345842 11.766988559774678 8.626950555266612
Ba 10.729513131585465 13.905993738898507 4.7888313569039225
Ba 19.091808345562665 8.18263590908393 12.057417955102498
Ba 17.964561430063867 12.129705415197984 12.964177308939034
Ba 13.388596215493285 7.964007397622778 7.898572449487032
Ba 13.85435998857586 17.96987097328953 11.258679666235647
Ba 19.366434494526658 4.742437573235913 14.174419264565307
Ba 10.401076222425186 9.748976031791504 5.12464671160659
Ba 13.004649872792154 16.11148464149632 7.489601424375456
Ba 14.676907620689935 11.928973109980085 5.607799440828752
Ba 15.947165136142022 5.7323705649819034 10.378566690695724
Ba 15.723621879519976 13.771708288978829 9.572502004347903
Ba 17.291226171178007 9.797316349994128 8.547254252893826
