50
Energy = -71.98385914 eV
Ba 9.56427164433711 15.328743306084096 21.893774247723954
Ba 9.224258414568347 11.894585812576434 18.685972941331862
Ba 12.654773897504294 10.75032363655081 16.0097628686775
Ba 9.297076000917647 8.322821162836235 16.51694068142461
Ba 7.522515097958948 18.778754726392762 20.38962226328749
Ba 12.09215087305022 18.7064018117398 19.765049651770244
Ba 9.386231521066398 4.0966842488063735 14.355476287658586
Ba 12.913300120785648 14.398620592632872 18.744948031454523
Ba 9.561902403397056 16.389278433564176 17.16107768691122
Ba 6.361570163735169 7.117178797276152 13.301965180702865
Ba 12.78491936012357 7.31905277088262 13.855679146364592
Ba 9.266715546836851 22.04082505574616 17.388210426405756
Ba 5.936465502805134 14.777570088245625 18.156008305241585
Ba 15.655127870917022 17.331118608130524 16.525758262242785
Ba 5.94563862195161 10.680693111613806 15.732539411732402
Ba 16.337893922637853 9.733660584149442 13.288852244668902
Ba 9.1790230301918 12.985895709353064 14.695776171363311
Ba 9.545258315882613 9.27771029846809 12.575016091258895
Ba 16.352519841161826 12.926908461235936 16.378679725276893
Ba 6.436635887867495 18.809327284611612 15.779122265347667
Ba 6.705061983558113 3.3424328680761297 10.853685515811522
Ba 13.75309287593195 8.69955478132471 9.779268967619712
Ba 11.8835278764512 19.32904274634035 14.961899664230456
Ba 10.100856588658647 6.061680769441724 10.527079742687103
Ba 12.837657404404487 15.096507000127433 14.534244789589588
Ba 17.051983260072063 11.49505431832156 9.154216568046168
Ba 15.329242880227532 18.541497355988692 12.068933771637623
Ba 5.564457315127286 14.931043190471739 13.704572289572072
Ba 13.017400666750838 11.737250161890753 11.821359280373176
Ba 6.442418522785681 7.775286051005453 9.030334137582877
Ba 12.86839483655219 12.560186261293762 7.650097787401085
Ba 16.765814119205967 14.353309782609655 12.429450210815215
Ba 8.260005005064418 22.331541862167786 13.029541630745864
Ba 9.920245964591514 9.700393680218697 8.379592077150699
Ba 5.867020947196265 11.04004163647965 11.289009301989077
Ba 5.564457315127283 19.254781162072423 11.502841754814858
Ba 8.897892422864892 17.439022079779086 12.451207788566053
Ba 9.264851134783575 13.379829702905884 10.583401644319771
Ba 11.630927833516697 20.794283631039978 10.73611509687354
Ba 16.352519841161826 15.822706402587485 8.300452282067537
Ba 12.427979824969622 16.13034675169296 10.396665559053487
Ba 5.9562427164014125 15.576520190876122 9.406321816538581
Ba 8.363126763158368 19.39786903455348 8.195814428390921
Ba 6.727549294525883 12.030324271774536 7.513361860256116
Ba 9.771307923256055 12.967843014532091 4.270881429427046
Ba 9.863716715948977 15.3594189880472 7.49206475600065
Ba 13.604508228166615 15.202529068865315 5.038412323617263
Ba 12.776712468775067 18.607974123827645 7.506724352322271
Ba 6.319159350116814 16.051205442085475 5.483524507773424
Ba 10.07571574442504 17.62790169665317 3.9293547534791005
