55
Energy = -80.36568855 eV
Ba 5.246621056170043 8.839839623207876 14.835623666464988
Ba 14.601464061616031 11.874192655491102 8.938431074472739
Ba 13.11992293887122 6.140601837000692 14.86314070227742
Ba 8.263890084489892 9.198252143456237 7.059935157272005
Ba 13.9176257237357 12.581372216748646 14.45902037891309
Ba 12.93816711184306 13.267591695460245 3.4671913145058193
Ba 7.749229987688716 8.668013331113656 11.624979090500693
Ba 4.5901679869984235 8.759679710642779 9.483538301437285
Ba 10.888164033158429 12.986935907848054 7.363197336235598
Ba 12.091887084691688 9.063464233176227 0.4949687907332789
Ba 7.796471705607379 10.260248724492396 0.548383075058915
Ba 11.124138189018586 12.956386037624139 11.250595430530616
Ba 7.27603924364787 15.421967768606049 7.195622715750707
Ba 3.977938967101638 14.822518193249435 9.227263810256856
Ba 10.661479852415574 12.936366054938691 16.799669588321006
Ba 7.387863423503639 15.822890385570913 11.485381474511824
Ba 12.324743723502946 9.546761223763744 5.464883696912063
Ba 1.1690316744354148 10.192383687169116 8.979878769155935
Ba 15.402801257119018 7.648131314635462 7.488311902140793
Ba 11.522822482896762 8.769390941163598 9.558581461121037
Ba 17.127017979160424 12.440620935864338 12.286832397864536
Ba 15.450868924063816 8.598876973371153 11.783629242088034
Ba 11.341637438726803 9.47562367292271 13.899769243489404
Ba 5.0544217781524425 11.789477106457023 6.455478147370797
Ba 15.971037952965496 9.233970698319892 15.889909086719541
Ba 10.64249196428777 16.637181903928433 4.843218052554727
Ba 4.931041794450687 13.009981489808627 16.72906875682409
Ba 14.375642326831139 15.384101185424301 6.917467360241086
Ba 10.984530973062354 16.67837985105593 9.118610449814044
Ba 7.686285635009505 14.378260109949288 2.1021630033673095
Ba 14.869534699720862 15.742208996611712 11.076170899284449
Ba 11.418757016305099 16.217028066529704 13.938848085972669
Ba 11.10999485710177 12.251955136681394 3.4671913145058193
Ba 7.299975991957255 5.916211210975603 8.575466103994426
Ba 1.1392888695054237 6.363021377845911 10.017752080306325
Ba 1.0091306401959268 12.843353820370856 16.122914563003356
Ba 8.721986200717991 7.06902727026461 15.55782578497308
Ba 2.084351646905809 9.220270973947702 13.288302614186447
Ba 14.713525755862882 12.86011094762448 1.0245983772047926
Ba 8.584634412329722 12.506231177950715 4.059160051582975
Ba 0.7559290152387407 14.436206042836096 8.559080865497965
Ba 4.030284867937808 16.03604736420935 13.62659981734535
Ba 7.287438990985322 12.192947925083262 9.434309696083321
Ba 5.923755346268841 5.509654103341468 12.534198005254481
Ba 7.595799031105984 16.159953582880885 15.9017177261203
Ba 7.8089374564467064 12.240501804931922 14.028908405512308
Ba 4.401630298971443 12.080042966842115 12.259032426857067
Ba 11.811602489238389 16.372031336124905 0.990644218002869
Ba 14.374287335114454 5.035889186592246 10.590133558339396
Ba 11.407022160170994 5.78262424819959 7.488311902140791
Ba 15.628480707603238 16.12632037256534 15.547558960377959
Ba 17.352515382885034 5.689945952673797 14.039939018593488
Ba 10.172802068704781 5.515974431858365 11.675368931520481
Ba 1.7507819361911223 15.867018607143892 12.805959899788874
Ba 16.416113277790778 11.562390648103412 5.566727408544805
