6
Energy = -4.41941123 eV
Ba 6.54956971577432 7.756274311400167 10.363494247802638
Ba 10.576465075560364 8.865370832219488 9.2453503367457
Ba 7.210998058885399 10.498552543377029 7.113606717928154
Ba 12.316488943870379 11.779335189669037 11.42542010543185
Ba 8.040506560966746 11.700066980756732 11.118207357170917
Ba 14.533443066276936 8.681710485874882 10.032543993168131
