7
Energy = -6.31550642 eV
Ba 11.178051747811272 9.005586244148729 9.35583457010262
Ba 10.806954371794333 7.805134434817943 13.469540612212123
Ba 8.373399671509596 10.986843889774441 12.14783449332638
Ba 10.885317049072253 10.23711453118369 5.269207714173905
Ba 7.522861862396451 10.634023064383957 7.983288150438036
Ba 7.594516148699029 7.101329024359867 10.633924880440274
Ba 8.685863082298857 6.842329532788081 6.466963423326989
