7
Energy = -6.69164313 eV
Ba 8.406575725402607 7.153151825184935 8.967760934642948
Ba 9.617285156638987 9.914806422850331 11.928931487374266
Ba 10.865253912562839 10.633408808959526 8.309221904798502
Ba 13.42898535745866 11.521649009820237 11.517296108197353
Ba 12.548535303826778 7.332884274409905 10.600134880206266
Ba 9.808852061727256 13.917338180996225 10.956969692215177
Ba 6.681293161631457 11.27180296972614 9.205771363845662
