7
Energy = -6.45231317 eV
Ba 11.061506505571158 5.4464068381116295 6.109269325366278
Ba 11.655736616825868 9.220374923562423 8.113744747128623
Ba 8.698579704561059 12.184358173366949 8.30366511406619
Ba 9.717220255673249 10.204100377398031 11.698989178429882
Ba 8.91131987016004 6.383393653385839 9.837836286100226
Ba 7.841463962547108 8.461960849752057 6.266626197264715
Ba 5.86526020363936 9.489396678361686 10.007215868373361
