8
Energy = -7.67027633 eV
Ba 9.123296356726513 5.722787314519966 8.826458954765318
Ba 4.892791610535498 4.942964803360105 8.809837277109914
Ba 10.918359255114785 9.073558341681338 6.682600353835512
Ba 6.635682671266905 8.257235419304381 6.667226544368671
Ba 8.375768762930221 11.691841827814274 8.686549389182515
Ba 6.594851151329284 8.346725643333254 10.830137666197233
Ba 12.610034778895107 12.467855306116066 8.709230980016502
Ba 10.876402221849201 9.172257986893243 10.845381756024175
