8
Energy = -7.92069188 eV
Ba 12.507642353440058 12.339224402061781 9.972260713954215
Ba 12.399227416701322 8.035213337458687 8.118369667503742
Ba 10.348984370422462 9.152946320439579 12.050743678098408
Ba 8.989961973271605 6.122269823225212 9.684146229677934
Ba 7.929334781135711 7.429817060297348 5.974924669048482
Ba 9.166892064840471 10.535699217365215 8.244798257807622
Ba 6.057258200402092 9.058890429570958 10.430280936481688
Ba 8.387011576295171 13.023283428694278 11.499404300085978
