8
Energy = -7.81157542 eV
Ba 11.898097919058634 12.31876035791192 11.288523914211144
Ba 11.149845961545724 8.108509961205582 11.199514612719652
Ba 7.95341466256836 10.560731199890759 11.564133344557
Ba 7.281486647621335 6.387768776729689 10.85686547439452
Ba 13.313635529373617 9.939782267690783 7.978097140416866
Ba 9.314144240074375 11.63594164682493 7.873150962107306
Ba 9.702490088411889 7.565713771420916 7.427837691146494
Ba 5.7429997167280495 9.30185228323842 8.09476863977982
