9
Energy = -8.89174652 eV
Ba 3.960815324195849 8.360300696932201 5.640981360654173
Ba 2.4061089808695817 4.252017326646693 6.332030025913674
Ba 2.917251056946866 5.808466439204504 2.309191215104166
Ba 5.883079366653762 3.5097243268784633 4.291771633241997
Ba 6.1248332661966565 1.8637046786594995 7.956260877852632
Ba 7.98701994459463 9.151852854967464 6.8553268319920795
Ba 5.690782977174433 5.856725077963139 8.241052093951724
Ba 6.882698252057949 7.208608828691478 3.1441741783957875
Ba 9.178040271603747 5.0192285093127245 6.25984098950778
