10
Energy = -19.47925516 eV
Be 5.151461796099992 9.569336880837566 6.258696649157299
Be 7.475196302000855 7.738209785819809 7.192872419423221
Be 6.354553351866251 8.142590770046608 5.519774300079621
Be 7.578357485774463 6.334838307832553 5.694708283852436
Be 8.570913274065028 4.584526286789155 6.104765278519133
Be 6.794809273843478 4.740668173534181 7.041131776089353
Be 5.619183919667117 6.415306703540061 6.4629254580740225
Be 8.37269630332846 5.830383616852029 7.6430949180577725
Be 5.471545474846908 8.12551561600056 7.590742489253927
Be 6.43294565947488 6.340286699715692 8.312951268460917
