16
Energy = -38.02297945 eV
Be 8.486583239106913 6.4232872832303585 8.951660944365889
Be 8.326392328493636 5.9438023031776765 6.9092373921428125
Be 5.249454707019645 5.2038496849501374 5.630771394186669
Be 7.449500961865131 4.749768987999545 8.521506367445339
Be 4.633080240668216 7.262667488624841 5.199374278394852
Be 3.9853833741473688 6.239128902595791 6.822904967346548
Be 6.082394438936678 8.449417700592333 6.0983153079721495
Be 6.970383703242594 4.416972647185585 6.564208760479907
Be 5.367622965786018 7.396307941581074 7.726864318444536
Be 5.502975068371595 6.063491314523159 3.7574033427141638
Be 7.911392332979322 7.600473710488023 5.693800857165646
Be 7.416946167317993 7.741516584919284 7.761355439865129
Be 6.478307270431364 6.444347193911192 9.213330734911814
Be 6.471699721099717 7.729710387308147 4.2177172997454955
Be 7.18543575416005 5.792743328391172 4.937752081728484
Be 5.503984690789217 5.184349810460202 7.861083583761973
