19
Energy = -47.37395079 eV
Be 4.234872418713085 7.63408680652688 8.296343498530627
Be 3.339072196709996 6.842594382358273 6.574751425691454
Be 6.371457588677218 7.05446309533604 8.466352768582222
Be 6.1160357642950265 4.82515084661126 7.542935366194355
Be 5.715517571142554 5.292138553807241 5.398884739795772
Be 5.7014094531361 8.914471585243149 7.729847521865869
Be 3.8893774954167677 8.736624230053689 6.604943882799921
Be 5.423938890313962 6.721288258924196 6.778735810293633
Be 7.11795275547469 3.832241791223145 5.986950313522683
Be 4.645945466246038 7.363916149517217 5.029578018959213
Be 8.241485861150402 4.197862849961792 7.638469045861885
Be 5.75025055034878 8.934089833490374 5.724805358071261
Be 7.682293187995122 5.139030651036358 4.576511372251239
Be 7.391494517048658 8.079734246271281 6.768969619574208
Be 7.520533793986004 6.0723203503929195 6.923727967146797
Be 6.784357383200253 7.103642630021381 4.969375080551118
Be 9.591786524646295 5.737412616566837 7.204492962033378
Be 9.169841894018406 4.418092554871781 5.8173347992703315
Be 8.812022526051718 6.600484406357128 5.46663628757524
