16
Energy = -38.67859698 eV
Be 5.504279890940057 2.4119893458243484 5.986979850740284
Be 7.654365521203258 5.126169510337242 5.069312512111522
Be 6.309542503803292 3.607949680065444 4.481439047330651
Be 6.8418218118757474 3.8974099550301435 6.500501486819093
Be 4.078344396917496 3.2951875813444995 4.82857408325838
Be 6.512471156684553 6.144115221022082 3.7349583297518616
Be 7.425257220650896 7.143766990466202 5.198280848079217
Be 4.7654744308363 4.171620758198906 6.754486604285545
Be 5.04728468074667 5.1844834221814065 4.805708138721459
Be 6.256429976024513 5.908912986806236 6.474086169070887
Be 4.168988241895819 6.196318428315456 6.573298121200333
Be 3.1865043845531176 4.9769955154549415 3.8061133250903394
Be 2.9418113230609597 4.704233123707424 5.769735972115929
Be 5.294400056673785 7.352955033508428 5.167772562594003
Be 4.453351153888459 6.710779161961727 3.4611077737097915
Be 3.1103730438928534 6.717813079423143 4.938344968768477
