15
Energy = -34.72179168 eV
Be 4.7239015262375155 6.357918692597853 7.035372102204275
Be 4.490673450949195 6.9993491892070585 4.972498640052355
Be 3.432350384875146 5.226755084824087 5.766174597330344
Be 6.520659769540212 7.066184683750815 5.942878721465438
Be 6.605286723106 5.417694841580662 7.216921746039638
Be 4.774698535250219 4.190313169453867 7.107673665262816
Be 6.028548712889277 8.240099518316114 4.336129471307102
Be 6.250796234064158 6.260139028493899 3.841938392380911
Be 5.455608769966771 5.293965622628803 5.462601739288501
Be 2.804222356823125 3.866845899373725 4.362546891667081
Be 7.546122977345519 5.368676390211189 5.327499612565329
Be 6.497284876112166 3.568900926658593 6.0570789284130475
Be 4.604129702738883 3.367122145667699 5.209390717524299
Be 4.3813007783549045 5.078727571407888 3.7662524205670516
Be 6.320877979493662 4.133770013574637 4.031505131677996
