19
Energy = -45.85788573 eV
Be 9.13814651238768 7.558425159455828 7.74653105554886
Be 5.865295997793437 4.39583682114315 5.183659018388682
Be 4.63602231335357 4.99927597578065 7.122686756744223
Be 7.018376416962726 7.4154106522834615 8.246656982996795
Be 5.255328214764713 5.56723237348019 3.529697266573554
Be 5.134588589399113 7.2295071905442825 4.659724743905765
Be 4.037000870724992 6.966927712464543 6.380344837451516
Be 4.99040669739025 6.994293000913718 8.215154720225087
Be 7.926384980674113 7.182070170739243 6.107776403950531
Be 6.281771420957883 5.502482742211077 8.613522311275581
Be 9.707149240146117 9.52528797948535 7.509856876827455
Be 7.744234618153114 9.084343461538937 7.249974757261107
Be 6.943123868569013 6.291075682567273 4.319557220476879
Be 6.152002801200406 6.184208627766256 6.340242958656807
Be 4.069195350959446 5.388924580059506 5.1680788689291965
Be 8.111339120492811 5.69330052010899 7.652303935640835
Be 5.8515198237513175 8.22543307390996 6.658049214343987
Be 7.90263177478283 5.061836815152875 5.648566198618998
Be 6.697205480467216 4.1958515533253316 7.109339965114761
