15
Energy = -36.01410927 eV
Be 5.637809839273706 5.977437258014766 3.6061311699714484
Be 4.84258247580652 5.571409055479954 5.44788270672456
Be 7.250239276137848 6.881708527043823 4.4786673627164335
Be 6.759358228872404 4.955150499957144 4.990728856641195
Be 5.3511466892691795 7.505586379360379 4.9475415638834095
Be 7.031243040351437 8.371956235848282 6.015088876405161
Be 8.160059011233797 7.431464743631456 7.585112289919862
Be 6.491961336296967 6.495713693455071 6.503995581970002
Be 8.372770695775298 5.936324731036121 6.050629274690658
Be 4.6289775323719615 7.1154063453922385 6.937887822069184
Be 6.013079834616416 4.601079261195437 6.9776737286747545
Be 6.248251003299277 8.047560671831219 8.009509859751457
Be 7.65215220653687 5.497577849278074 8.047689979081431
Be 7.330156589967782 7.003727524241433 9.406251480018572
Be 5.730212240191284 6.107897224235356 8.495209447482758
