17
Energy = -41.93321366 eV
Be 3.0859225434670288 6.502601148933431 5.961104982629101
Be 4.117622814435367 4.732233819063795 6.566406639464777
Be 7.722439426760404 4.842058707377286 3.5723928256660655
Be 7.606444629435898 5.402615594820505 5.74726033504806
Be 5.595768483838067 5.369889296034881 5.29581274093518
Be 4.409155468476836 6.623159974243936 7.505283039784091
Be 4.833401057570054 3.4883248361987182 4.724092650922174
Be 4.670412689113046 7.036598212369456 4.499769663262221
Be 6.637613613884056 3.1529742536475633 3.905047483953732
Be 3.6390499257596027 5.220652296570353 4.514815769620957
Be 8.260126840204729 3.572822041056935 5.037792850857122
Be 6.062059598461887 7.211041315498332 6.098908259730894
Be 6.032374609701687 5.433457983189688 7.321603393624428
Be 6.8047095955716665 6.560906071302139 4.105804351196504
Be 5.61087408678173 4.924503573654485 3.2949963079383364
Be 4.225472376822455 8.154905453341307 6.212925835791167
Be 6.436172965711136 3.6460530107587585 6.061304492992777
