14
Energy = -30.86084332 eV
Be 6.375300521191311 6.996783195175961 3.6169449301827865
Be 6.652481887676552 5.3742618203115216 2.5667614455776047
Be 6.822881721644635 5.177642926441031 4.73591274245668
Be 7.22800476648013 7.116045996682257 5.521202766965438
Be 5.238039057403706 6.716619393360127 5.420893148058718
Be 6.632945574065089 5.552295851998658 6.785015916264275
Be 4.905952491386169 5.412727279186107 3.7110383540025103
Be 5.987294608853421 7.385274262479358 7.271257389584362
Be 6.565909218989108 3.566961351895624 6.321634435175626
Be 4.9346010698495615 4.538451830949842 5.647697953633338
Be 3.407325657700682 5.7490737822918865 5.184232617289914
Be 5.096095534809354 4.106707218379429 7.711942129481519
Be 5.590714353888218 5.859208524010794 8.670876399087625
Be 4.303884899779449 5.983721421945164 7.139706256503622
