10
Energy = -17.51621886 eV
Be 5.463087915620511 7.522057628005347 3.0426349741724024
Be 3.8288203606101043 7.454322012663261 4.365545373579106
Be 5.387777147626821 6.069477625738853 4.569397753136806
Be 6.905031453652384 4.617661771681662 4.7630004430435875
Be 6.994723361282702 6.076716387376098 3.2305384735195277
Be 5.421878344206159 4.712081557050447 6.257455144183484
Be 6.995170622154102 3.3266634741968657 6.446509662422065
Be 3.892252943552747 6.17731965369053 6.060790211069765
Be 4.078986019352102 5.027394963627938 7.8326809614786574
Be 5.6493178921072404 3.6333509861335944 8.04849306355933
