17
Energy = -39.72929497 eV
Be 7.713201440767787 5.726771559947 2.086068852721465
Be 6.976414469930558 5.263599756459454 5.751787633523076
Be 3.62263338015664 7.015159418429428 7.445613629451636
Be 5.9780878716714945 4.918045751004855 7.617192445971612
Be 8.080271108552754 5.269416861655434 7.547135779247646
Be 3.902577325563616 5.017641175749228 7.611191823520335
Be 8.685606142783765 7.195794484514672 7.308938142913181
Be 5.237934515443003 8.018642426532379 8.258094718079176
Be 4.939417628405247 5.994805123350833 6.050300222360438
Be 8.346308042740441 7.745449834332891 5.358204275840085
Be 6.846422647025607 6.7406922235570805 8.48699879725908
Be 9.052909874965016 5.793738519298895 5.810867989316105
Be 4.897772308700416 6.111798867431563 8.971000153483097
Be 6.376150160137375 7.182085104469008 4.9967100231374095
Be 4.909135629811181 8.083201378201002 6.263549908328625
Be 7.997657597766812 6.192518701979763 4.089887063600537
Be 6.955688620243056 8.248827577751578 6.864647305911266
