12
Energy = -25.87875833 eV
Be 5.08152360907665 6.813268972380764 5.754266248679177
Be 6.0014489979332275 5.5812462724953535 7.418685828056601
Be 4.877119461332163 5.594892373205093 4.0095417017201065
Be 6.790474231589879 4.875900853583035 5.55726777632219
Be 6.618543832199476 6.700537587232797 4.250444427780974
Be 5.671019178332219 3.520427190798284 4.457949012472347
Be 6.802557496360996 4.84801107940672 3.3945412942438664
Be 7.0919426677008435 6.810037781073151 6.222693232413287
Be 3.3087576284429234 5.768430987386949 5.476120538748589
Be 3.6980096746668987 3.9947456584866887 4.56655353600967
Be 4.836945762868041 4.314029609152156 6.262681585091628
Be 3.9917969470980457 5.948611122400101 7.399394306062258
