15
Energy = -35.10282645 eV
Be 8.369789489570202 9.370339069658826 8.248440342673666
Be 8.169604433523721 7.44299123739028 7.482926355191852
Be 6.88484613299593 5.798905432935665 4.4503329612345635
Be 7.224341015629073 7.5717189353938945 5.622047964213779
Be 6.788812379038059 3.881849296131104 5.398817361590396
Be 6.475714398088354 6.373692737291179 7.95301455031806
Be 7.624897723660904 5.663300468147227 6.3410990862307965
Be 6.984722172297214 9.330706458216305 6.771553703560683
Be 6.645524575094734 8.458966650384765 8.591219754585975
Be 6.446251047961076 4.330485804112145 7.402967694374506
Be 5.009783494119248 3.589539941839332 6.15328394055866
Be 5.0042447470165206 5.801426754435575 6.6208849346692515
Be 5.325167800471497 7.038052487273527 4.957202558460166
Be 5.526737448335186 7.858341718171537 6.850070611794805
Be 5.0194872741531675 4.989607140573268 4.6560623124985305
