17
Energy = -38.46474024 eV
Be 7.3175245773615325 4.126983963890064 3.206322423244724
Be 3.3892592888864295 5.332079394677462 3.941669709196569
Be 5.630255654688146 2.9233598609375946 2.737983095563778
Be 1.1632409193802795 5.219837918475443 3.534718115780339
Be 5.373621721989297 4.854911826343816 3.235935501508048
Be 8.26327028947686 3.075304557990351 4.617328736537386
Be 6.787494722328746 5.9571707749722815 4.147135155423344
Be 1.8332464533834014 6.933349330782616 4.368600114315607
Be 4.250498970537797 3.3164055329627 4.341477611963626
Be 6.269539006940655 2.6117165736785277 4.594223822865603
Be 1.388922170567036 5.331293484364698 5.5766267100590925
Be 3.1396340901217457 6.410766227399926 5.841435569518287
Be 2.061181680540715 3.6785293443849656 4.519223751263066
Be 6.995847015464391 4.461935870005431 5.44693546282282
Be 5.087160529211775 5.455862671264032 5.351350238517392
Be 5.318517538062481 3.5186927227207323 6.167928171312986
Be 3.3208103136711156 4.3818248877604065 5.961130752718719
