17
Energy = -41.35558975 eV
Be 7.197679488720042 6.855057928205832 7.699798922653337
Be 8.972471697203499 5.719917481291781 8.352571552614751
Be 3.44223894370929 8.407730138198636 6.040508220278892
Be 8.950351040083818 6.916400498950961 6.5982100559283525
Be 6.245773163489511 7.555647651299733 4.262301595812082
Be 5.348751739702229 8.960627374671125 5.345225001501582
Be 3.769490973709815 6.452207464347458 6.378439254584299
Be 5.381538349851039 5.756793884864713 7.595111581583942
Be 7.654750135892809 6.096235974542742 5.219419825459473
Be 7.1232119455143215 8.097475785277037 6.049101115069548
Be 4.1508466694423145 7.35364780563344 4.529322485712803
Be 8.447409178653276 3.8440772422501452 8.04033297921271
Be 5.28119190262825 7.781219391598074 7.125525773628537
Be 5.610531401882162 6.014073943147884 5.492704832972955
Be 7.029140423963728 5.068634941032582 8.773357025819159
Be 6.903590133962417 4.683702726313471 6.668093533926393
Be 8.998756345255842 4.944273302038619 6.337699776905151
