10
Energy = -20.43866086 eV
Be 9.151199971649293 6.946357580480118 7.8016641728223775
Be 8.83557515712241 8.268909661929296 6.394577676302123
Be 8.347638139069772 6.318029199790773 6.030733507398937
Be 7.541344239991739 8.193782051709324 7.974390601200217
Be 7.0884466114132785 6.153360791998595 7.711236797970798
Be 5.4688572151079375 7.498422634241882 7.785705423903627
Be 6.72798619406806 7.663084220114149 6.105216324434381
Be 6.275152149203692 5.622708014152831 5.842096960224707
Be 4.665241857370025 6.870110757353622 6.014786653213885
Be 4.980867193911553 5.547544516833587 7.421901311132217
