18
Energy = -43.43812051 eV
Be 7.789023102685097 7.167091721539085 7.16696914315077
Be 7.344518300197909 5.447877440226508 8.177473380624912
Be 6.65257926846981 4.672664606621837 4.640640756628199
Be 8.596565450726773 5.26147101439271 4.0979742201729294
Be 5.809999190733991 7.820564073418274 6.884201877462652
Be 7.342389205584708 7.660049711194947 5.214169520627713
Be 5.309552400251316 5.283295818092049 8.712288302579626
Be 8.780318016013851 7.237059278593423 3.6741618463261325
Be 3.7412793875285835 8.065696499750768 7.392623778442599
Be 6.345885587546975 7.066602731270906 8.8839525768074
Be 4.155658414697046 6.993449886745167 9.06238050800095
Be 5.9569882749476095 4.828525925812338 6.709992855650151
Be 5.672182868726212 6.43526829937514 5.31327418321198
Be 4.387295145826754 6.100890162789565 7.102302122754803
Be 6.916615931128408 6.378861432898057 3.5581917598857613
Be 5.09624040567131 8.735576679172476 8.688424389035294
Be 7.951474586202573 5.172579319141816 6.137703775243696
Be 9.178814035007486 6.699854970911476 5.610654575340452
