17
Energy = -42.23843265 eV
Be 8.99596551888257 6.493303637393734 8.196379456106953
Be 6.803686467183527 6.570735682502567 4.663209126585808
Be 7.059832539885812 6.9969074759833765 8.551864790099845
Be 5.125780316181424 5.325970701235865 5.226731446268738
Be 8.26833369410032 8.233585555940957 7.43038097270416
Be 7.576078690275311 4.987532512602907 7.70732831413119
Be 6.268061229374313 8.4938397600101 6.98706311723804
Be 7.801167472164044 8.21208586385397 5.453519199780193
Be 5.665787078292737 3.991556031440964 6.971894338797559
Be 4.284666722879281 5.4461714335177716 7.084760872919098
Be 4.8827795947282695 7.052523586179299 4.00669794800423
Be 6.229482813040801 6.465267794992921 6.760280318927427
Be 5.863457038009199 8.567444013114386 4.9615528450661905
Be 8.336819998079166 6.359063914650544 6.22453687625179
Be 7.046323626139517 4.722501832713562 5.720516275144473
Be 4.549726261533206 7.351478942650343 5.991035252831243
Be 5.734148316519552 5.2221286384856445 8.554346226412104
