16
Energy = -36.44452195 eV
Be 6.247824308429942 4.118925366675384 4.871362434642416
Be 8.039594765650891 8.469991435846746 6.170723093015755
Be 4.460735638413904 6.376782417041425 6.350595794374848
Be 5.689096289593592 6.424895166559264 4.537108815322367
Be 7.398083345087948 5.460080431846239 3.551733488475358
Be 4.196114250478338 4.983864298905447 4.751697379210299
Be 5.503917729810243 4.899020451955446 3.1412084561142035
Be 6.150589037718027 4.985285541404777 6.75572736175583
Be 5.625782704557644 6.583414028980058 8.14553915852137
Be 7.739038999923506 5.555427475903474 5.559382903582215
Be 4.366610969944731 4.9201476641523625 7.93502884071254
Be 7.692355536921243 7.30820527033544 4.487927461242446
Be 3.0102053630716594 4.857989740370706 6.4564979318319535
Be 4.628427765150567 3.6430315674856826 6.2662388321022116
Be 6.5175394741605395 7.09705438687861 6.348399792077534
Be 6.984081232637727 8.196763934119735 7.990531201072938
