19
Energy = -47.96002194 eV
Be 6.256118877602314 6.705690317400641 9.171374363996904
Be 5.252219095178013 8.502045271410314 8.967146062429281
Be 9.37718914940861 8.502045271410314 8.967146062429281
Be 6.280299390043646 9.191699754523887 7.3147041222933105
Be 9.37718914940861 8.502045271410314 5.66226218215734
Be 8.349108854542976 9.191699754523887 7.3147041222933105
Be 7.3147041222933105 8.54008994475886 5.458248774358027
Be 7.3147041222933105 7.317730373308515 7.3147041222933105
Be 7.3147041222933105 8.54008994475886 9.171159470228595
Be 8.373289366984311 6.705690317400641 9.171374363996904
Be 5.174915244586623 7.266535146111996 7.3147041222933105
Be 7.3147041222933105 4.937090959667249 5.6490058655454645
Be 8.415444221618298 5.479936992448495 7.3147041222933105
Be 6.256118877602314 6.705690317400641 5.458033880589722
Be 6.213964022968326 5.479936992448495 7.3147041222933105
Be 8.373289366984311 6.705690317400641 5.458033880589722
Be 5.252219095178013 8.502045271410314 5.66226218215734
Be 7.3147041222933105 4.937090959667249 8.98040237904116
Be 9.454493000000001 7.266535146111996 7.3147041222933105
