19
Energy = -48.15863348 eV
Be 8.0919133437175 5.2925612238993045 7.395120554578225
Be 5.565850317043622 4.216862601367432 5.50497205880509
Be 6.955332936595772 9.364969081472069 6.213058389011868
Be 7.20328377035122 7.0911435444005315 8.47156301920064
Be 8.155695464095578 6.016092106973329 5.193844187314272
Be 5.905862946330825 8.868827024675646 7.94875358575547
Be 6.414687094779672 5.209227416125063 8.65843278311446
Be 6.645888605098501 3.671989753302562 7.316558126265933
Be 6.463701355177686 6.126273902469065 6.4509425624647445
Be 6.327283180157142 5.7488824986985945 4.23137031779898
Be 5.3655449443374374 8.026430228546307 6.119337060639595
Be 4.576735865651913 6.067751038266391 5.578160600075358
Be 7.09814138931281 7.762574783113751 4.794448201599577
Be 8.011273646722518 7.557332619631327 6.627711466790919
Be 7.879147103719511 9.078378058115037 8.0188517368873
Be 5.133352687861638 6.958205744288765 7.921273613065315
Be 5.210188449307386 7.4553640095091245 4.107252084765556
Be 7.550184493927608 4.145672499052801 5.605766286829273
Be 4.945394308637756 4.840923768918998 7.342045267862991
