14
Energy = -31.52044707 eV
Be 5.114574075280403 3.1022561615418867 3.9411971203815033
Be 6.987210195311598 3.7435266037250297 3.4452489725023283
Be 3.7161244220577077 4.645933452229155 3.4683978135280307
Be 5.669986293582878 5.258689457179338 3.579821646007997
Be 4.350938037377179 6.682357165882199 4.34008577709615
Be 3.32632902318342 3.145227203892347 4.833607088544749
Be 5.150397656249299 8.092321897329438 5.619916433379196
Be 6.510584576386468 4.2211530984557335 5.3384404148023075
Be 4.3637351608905774 4.904875876711006 5.385110197415661
Be 6.326351704713718 6.347157545065147 5.300456344013251
Be 4.976678768358914 3.080792036596901 6.071788976164576
Be 4.0908920856596245 6.672016456524097 6.560115825260506
Be 5.6208208270169395 5.10093269401037 7.004297413622896
Be 5.922602143093608 7.129985320020417 7.238740946443768
