18
Energy = -45.56460422 eV
Be 6.46410606243151 6.581478121873188 3.2578236381230097
Be 7.6620831662896345 6.601086051040102 4.85516111700538
Be 4.631250566633114 7.45109082184611 3.3466031955471185
Be 5.872266092354927 7.708745881183517 5.005549379752551
Be 4.79765329807831 5.452531879964252 3.7413271456000667
Be 6.900217060049842 4.6705508688958135 4.104104028395736
Be 7.013549993025252 6.498289759043011 6.871486349095813
Be 8.107630382415362 4.910494393454282 5.9134182361733245
Be 5.606006334801829 5.658441126594225 5.6665579875093295
Be 5.317067592019314 5.75194350712058 8.043677361693359
Be 3.815658894070689 6.930569130082601 5.190053268110298
Be 7.102168780843689 3.1663964964859606 5.660347055420477
Be 4.930836370303961 7.422453299043461 6.881968776154106
Be 5.261214297310182 3.678649959456787 5.102809871665294
Be 6.6483713406167215 4.364097639782729 7.266847767275233
Be 3.4929715035939224 6.005971765679599 7.189982434807143
Be 3.5454908669204848 4.9222650343480945 5.467776525740519
Be 4.580360592313656 4.0495272883884015 7.050821989730485
