19
Energy = -46.81600799 eV
Be 4.262701445974131 7.370103295125356 8.465469551515438
Be 4.081779438619187 5.537033270228414 7.522468602621328
Be 3.4602616989572397 5.6715296848356855 5.440755021413915
Be 8.088391592144278 4.263785624928675 4.55066619628693
Be 6.078334060818704 6.462197991807692 7.809301346892444
Be 6.910340529504066 6.003505650061988 4.324722314452923
Be 5.747521733443992 5.467966658351949 2.649426654954137
Be 4.898380930232724 6.683730395860105 4.222181337312625
Be 4.361511322534778 3.907625316021173 6.160322498229802
Be 7.755788420577791 4.979159254471439 2.6422875894335682
Be 7.439741170363485 5.380330729485077 6.286599984116287
Be 5.593246010041884 8.479393124024549 7.492331832744893
Be 5.937483746482365 4.402128532434751 7.456783484062906
Be 5.448447910603058 5.691531904792016 5.9328297447770515
Be 4.23222285300833 7.400887535802904 6.326493840125395
Be 6.318061675452085 3.6519397700547915 5.404811169069062
Be 6.518492448056832 3.580713579236868 3.2887673662105343
Be 6.368908279032091 7.478553388567564 5.874361989653978
Be 4.784814822464543 4.454549450151897 4.15105315445079
