17
Energy = -41.83863499 eV
Be 7.139715882955762 5.2328012609679035 6.153761293189836
Be 7.284748189850066 5.583096163855196 3.966749423471246
Be 5.8891481560042465 3.3322736249592886 6.4502463303595965
Be 6.772180164316192 3.713199800493536 4.648925958303281
Be 5.407699560145517 4.943602686410632 7.602801587810568
Be 5.808804753484828 4.603905937980166 3.0517705125545733
Be 6.7930906255402554 7.1846279941015965 5.0949301841700345
Be 3.9656987707318905 3.7671293813128073 6.837952125855555
Be 5.2200745802202695 5.329588410762191 5.220145548959523
Be 5.836454202768669 6.80578722948689 6.876191126480943
Be 4.608688454236832 3.306914990667647 4.745822500700804
Be 2.9558807245911463 4.605446068140862 5.289902222524271
Be 3.8651632158645657 4.892630283530006 3.4608811430587663
Be 3.788335302121807 6.00666896500917 6.692904981579391
Be 5.347632222804531 6.64009530977681 3.4861429587529478
Be 4.867544933276334 7.6804710279894515 5.272633922997597
Be 3.3728270846204413 6.5132307341465605 4.624514322586988
