11
Energy = -19.89226753 eV
Be 5.710867634908954 7.674599896912468 7.812028723086668
Be 7.147225696270738 8.23590238974938 9.195741695238619
Be 5.526470557117294 5.581495951609903 7.430027264856202
Be 7.838664196604561 8.123189645937538 7.329470262104634
Be 6.690681112765821 6.864466663549064 6.180226448927336
Be 7.724587710126483 6.080268867710508 4.5850560518580865
Be 9.160899850810054 5.54760254889941 3.1209245023771732
Be 5.73814202619431 5.358497273620049 5.20188009067194
Be 7.359557664853534 6.448532961589575 8.314106263364176
Be 4.5344339845597865 6.7649237263840165 6.157203148448498
Be 4.064716700752308 4.8167672090024745 6.169582684030511
