16
Energy = -39.02788279 eV
Be 6.609652992463073 7.194661409117231 3.905631620565674
Be 4.171181767624857 4.080049500491927 6.887591099360912
Be 4.714166838109383 7.479656165313079 4.520497006828452
Be 6.101875114302413 4.8040158303519105 7.393690138315267
Be 4.43096876980557 5.81385860919388 5.687178052823055
Be 5.425471916055574 5.4938744343199915 3.763873542536736
Be 7.517812799170578 5.285939546591906 4.050698413389216
Be 6.409426030721197 3.5858150211416384 4.131289734588606
Be 6.73791526993985 6.165531502634981 5.825257110710551
Be 4.512277965961864 3.8862953622654297 4.850641726730909
Be 5.765623092386988 3.0171424541678746 6.199920017332668
Be 4.3991699593277875 7.694122243127174 6.64383797012385
Be 4.429585468079828 5.938381984268289 7.864439573201395
Be 6.088926390025664 7.0411434110392275 7.567721674387478
Be 7.410635928027208 4.175384045902557 5.804174523953201
Be 6.171468520246344 8.200786948569183 5.745437499522818
