15
Energy = -35.8429385 eV
Be 6.143132634742672 6.637178404539807 3.996677427086616
Be 7.596285868891184 8.087600111597332 4.649625848774282
Be 7.861541204042064 6.074182820695908 4.898043285026065
Be 5.492687929301545 8.29390210319657 5.029614625190705
Be 6.170701113530322 5.104614429488901 5.764292742350358
Be 4.581244554476572 6.486754282322998 5.293880948237791
Be 8.471258976463922 7.332644365984777 6.417147053998574
Be 6.867888280707283 8.630432639161556 6.478007190891438
Be 4.620848226906129 5.334638172576374 7.178332315102859
Be 7.928483622778057 5.363437250219986 6.986895139058436
Be 5.316039059957628 7.3268062433418395 7.133470065890158
Be 6.237893097090878 4.268295390726111 7.728199845510677
Be 7.224790891826416 7.188011337569824 8.127039766460292
Be 5.548482496116534 6.049913322660224 8.82247104969626
Be 7.438722043169694 5.321589125918823 8.99630269672601
