16
Energy = -37.70585469 eV
Be 8.406593262512189 3.311275501311386 6.264382355526854
Be 5.548589410677007 7.539588057315214 4.894775607072613
Be 5.629663970787979 8.70960252074025 6.576074621935483
Be 7.600126335480909 8.542526404047045 7.070974339497544
Be 6.9015700728684655 6.580076544306606 6.794207576863169
Be 7.255952466873884 8.636142706140076 5.066587305091716
Be 6.800337480850687 4.400075145809579 6.998046821687941
Be 4.5940659047666985 6.90137221607082 6.619131946470014
Be 4.8785317783917925 4.982915622956351 7.290829386592072
Be 5.7717689021378416 5.458635882584187 5.3607339988915275
Be 7.276608308160504 6.657608838747525 4.261956287031836
Be 6.025749399355129 7.745198005139941 8.355327317037759
Be 8.629756578089708 7.223001178775176 5.685400372731397
Be 4.452982685817038 6.502811056794585 8.643115877161948
Be 6.278499492048002 5.6517998848360165 8.660183972429945
Be 7.976519793755002 5.184686276998606 5.4855880565510216
