11
Energy = -23.47725745 eV
Be 7.896731284684638 7.285310972954731 4.63520614670091
Be 6.516319389063533 5.826713035848867 5.03908252616176
Be 4.693015244640805 6.726111206003517 5.732349249109322
Be 6.418741696837245 7.981678870413398 5.8656762533482505
Be 5.202330636170314 4.723283960352898 5.981391648423908
Be 8.106046956175398 6.541142434200977 6.530370009591456
Be 7.1465765017030085 4.632818431105316 6.705392444194659
Be 5.071441516167115 8.072605516446009 7.276789775369684
Be 5.734073322216709 6.07827659526656 7.5192586576343485
Be 7.030738271739738 7.784051944941331 7.904769791664683
Be 7.681797364633127 5.845819216497781 8.307525681833
