10
Energy = -18.2393789 eV
Be 7.946198985325307 2.6548727771819682 5.2068149782305815
Be 5.853955022011745 6.1201570975752055 5.126213190684651
Be 6.996264576375861 7.80020655704532 6.049742006567575
Be 5.163065727318028 7.17276636554699 6.892262103239519
Be 5.865811024168299 9.127584364733934 7.245625817189302
Be 6.868964941360738 5.881828508250942 6.912591294323563
Be 4.998634205189164 5.102675900201674 6.508380996111814
Be 6.813373476822625 7.700494100852267 8.183037100854502
Be 7.866393325941093 9.16855816624634 7.310756722294783
Be 6.615022808424482 4.258540255302288 5.5522598834403585
