17
Energy = -40.61596784 eV
Be 2.8837048040469306 6.772390069750307 4.722271345011003
Be 8.548232850775385 4.836566773040954 7.062672107860379
Be 3.742563279414517 5.805172916110503 3.2082528421688545
Be 7.266545181741953 5.893236173447533 8.266428550673618
Be 4.473836813998305 7.151510269847261 6.062596523279844
Be 3.8966193877836455 5.165799199356173 5.707168486661103
Be 4.352199028580819 4.054422468878857 4.04788617767779
Be 6.242816311949606 7.5118394431524935 7.3571927420454335
Be 7.663051461240532 3.404670354455028 5.857273772468399
Be 4.64070576476122 7.495347256564368 4.009809704973406
Be 6.716402838406792 3.9615957790685115 7.539395313675663
Be 7.390310800056663 5.4295379769299 5.406903854272689
Be 5.637644021101611 3.9607475340485903 5.675668283999589
Be 5.568132555359277 5.6239830938500885 6.999159357009394
Be 5.692640072022015 5.6172915356071345 4.13817515104039
Be 8.047854458458414 6.920944769035049 6.673564175260311
Be 6.403434851969605 7.295986653319837 5.242277505575134
