13
Energy = -25.92831374 eV
Be 7.5935454070421455 5.744210762526933 7.148407941315307
Be 7.124855765571942 6.29591249368919 5.182668456005399
Be 6.68653588933149 4.261557453080387 6.054483079567114
Be 6.622919927598172 6.68711048995835 3.1892860750397105
Be 5.644982205452878 6.092918740424357 6.6681710622645465
Be 6.142041867789125 4.796148800475439 3.812882906897249
Be 5.3301954706770465 3.251774085666733 4.8937976922502955
Be 5.136227118683643 6.599591876056678 4.579234281633497
Be 4.557607127617627 4.171305452546926 6.551429086861074
Be 4.161454319191352 5.603020891858614 7.968341598569808
Be 4.016498372172642 4.7178904065567435 4.318249445447037
Be 3.655067293408991 6.1519840079085055 6.0045250160331065
Be 3.184183296136706 6.564188458159365 4.004401493524704
