19
Energy = -46.45634242 eV
Be 8.083911128675533 4.895499953368275 5.314731340291051
Be 6.710445117324356 6.023580874199315 4.207820540286105
Be 7.630779607305892 4.20956634835856 7.209127968812161
Be 8.561037295132156 5.621888431718773 3.4256400926892896
Be 6.025920153402695 4.888237619923874 5.881454242749693
Be 5.861655468553569 4.602508011960231 8.068162709037743
Be 8.643751396248966 6.15444148975525 7.026708418477105
Be 8.497108474576516 6.949317707745896 5.031635772693588
Be 7.563253702212362 5.435640266325179 8.839790591045443
Be 4.595770273055167 5.94504933299826 7.095911773223773
Be 4.890285386131487 6.604700988533337 5.095540964216379
Be 7.7187968421852124 7.423314549707221 8.488318074648728
Be 8.099643521048243 8.177674502836899 6.619229469532837
Be 5.78446549450532 6.6633653907066455 8.714906532047907
Be 6.580718536944842 7.892462025680328 5.200035511479147
Be 4.693285055785889 8.565225187490508 5.93347309761016
Be 6.165895968135991 8.360615201308958 7.391176635247221
Be 4.201020396480695 7.869446738986508 7.808046139654814
Be 3.2009066544259226 7.2261158505267975 6.156940598387805
