11
Energy = -21.55765525 eV
Be 7.030840598010765 3.939815428320846 5.995447494421889
Be 6.022819135742447 4.084604292294383 7.54614500266415
Be 5.752286899050816 8.941652416752818 5.451609694235174
Be 7.222959777872453 9.125389143827071 6.965527388691615
Be 7.8935049619063 5.010755577595202 7.578400424805964
Be 5.622905663447693 7.851622845076475 7.1207496970004796
Be 5.20858518081276 6.934266923529546 5.261820085685476
Be 5.135751167682229 4.783450438809388 5.778819634393784
Be 6.48562619436171 5.957887501636831 6.585727629915032
Be 7.352092707811101 7.655661475784907 5.6011546560081005
Be 7.779176704673038 7.221442947744357 7.621147283549389
