18
Energy = -44.61336619 eV
Be 7.783736615332054 5.186376207739535 6.425733806946942
Be 3.6902771480846837 5.792154004028229 5.610721429532741
Be 6.498862911673921 5.851034330958427 7.854999875018145
Be 4.800978541678504 6.737541878988535 7.148454796557671
Be 6.729746986569685 5.9807483484639805 3.156030712929559
Be 5.949062168066959 4.0971854622416375 6.831667811533375
Be 4.8790784442014745 7.596285702643808 5.055010827574757
Be 4.734543450165513 4.013951445360455 5.155608853475584
Be 5.828325734335991 5.874938753014439 5.5341021919463245
Be 7.008275935678109 7.289170248344669 6.343960414933283
Be 4.742351082560753 4.957919699711388 8.416618068284738
Be 3.799399767393182 3.9361862185566463 6.937683354071694
Be 5.28558385645347 7.449946585194602 3.0175710819737285
Be 3.0438085465162312 5.659344241176027 7.627142652705595
Be 4.833534386162834 5.565765999432432 3.74570204753093
Be 6.885243155595518 4.42663374852142 4.6045998644820845
Be 8.038254442950851 6.224394332265689 4.687920546885476
Be 6.813533955696198 7.768385082725507 4.3114441028444626
