17
Energy = -41.63015339 eV
Be 4.813245235799118 6.4429764224333805 8.898780529598007
Be 6.6149899342422085 5.764670019576154 7.947553040939087
Be 7.094344158723395 8.662994199357309 6.896889891047381
Be 4.971072135196568 7.718313667353962 7.121608298836727
Be 8.231076360131196 5.694536756291033 6.343782022681531
Be 6.3823100221556555 7.790903370606448 8.618639071322356
Be 4.727053467053319 4.78237191779378 7.624501844681929
Be 3.4283753866067066 6.273446065400659 7.4426254905321265
Be 8.75688945194945 7.713018181789203 5.882203232806733
Be 7.224281282280317 8.027697064475703 4.6203038632201325
Be 6.2719522264495735 4.652526393274847 6.145802647124811
Be 8.185449921517952 7.223000320254809 7.799923431022562
Be 7.792871071321507 4.558147031130153 4.627378547889647
Be 8.41631127684902 6.480889595985936 4.27628766534354
Be 6.522221474331681 6.8741523976726215 6.112551645374646
Be 6.386042161914789 5.898398289514652 4.337242147673746
Be 4.681514433477687 5.941958307089752 5.803926629905186
