10
Energy = -18.96152923 eV
Be 9.263156601209802 4.938977286113273 7.885055385157383
Be 7.333403596995954 5.576180698006926 7.8024197135559294
Be 8.836093053127 6.57005573830632 6.767281117846435
Be 7.172155682641455 5.953553417317612 5.679056109862541
Be 6.977271708334735 7.499069812743619 7.103420667772749
Be 5.3858966690083125 6.051043861052745 6.925509069346914
Be 5.276134209520193 5.810704058494515 4.7122578562480255
Be 5.848304169602265 7.6225390756496045 5.281463586367895
Be 4.959219685596483 8.074358934161886 7.078679784819409
Be 3.956001668932026 6.911154163121732 5.772493753991078
