11
Energy = -24.18348284 eV
Be 4.646931111462424 5.556037912368735 4.793086477735247
Be 3.7480125291330455 5.7683203546050565 6.737708807875928
Be 5.734271654095407 5.023355389503122 7.153178829205374
Be 5.309191141464163 7.017879585438476 6.314507474616119
Be 6.138578428514684 4.081558397507321 5.265431533475048
Be 6.723797271397953 5.694585915993606 4.154965814920548
Be 7.2563826300911245 7.300287824903269 5.4701587905905384
Be 5.573201426830913 7.344705380158318 4.295274927407853
Be 4.237658645825175 3.9713090600357854 6.112664228441373
Be 7.607921872114103 5.269263222102708 6.040303631647847
Be 7.021119320005801 6.632591925300959 7.402439207181079
