18
Energy = -44.15404431 eV
Be 7.624399785392263 7.30439955054358 4.7303178777730945
Be 5.973516055595109 7.299141733860281 3.495038556517555
Be 8.088258963921096 5.329186986396293 5.304202135849239
Be 8.528792895858366 6.827327786505376 6.6421301691557675
Be 6.57777249848467 5.4782951968208575 3.9898962338103106
Be 7.467765943908239 8.58716040753736 6.418950426713246
Be 7.295191408861201 7.616707485520349 8.296029837679537
Be 8.786370892026271 6.169263042119365 8.603756072403305
Be 5.713233818715966 8.261643963099727 5.302452572848524
Be 5.645463499052358 8.580873241941307 7.401874305361807
Be 7.7719329188392985 4.869074763302336 7.37474253444682
Be 4.843927645169892 6.224997955678023 4.906677311696823
Be 6.913967659582408 5.726526809772973 9.169224937601356
Be 4.225825637424194 7.430747059676418 6.512974546926058
Be 6.109790985214192 4.599089990088613 5.838620550867668
Be 5.268027905635292 6.687533373658866 8.306638127673592
Be 5.815086426895927 4.596487416047198 7.932986720972658
Be 4.349179657325249 5.41004783533346 6.771991679604614
