11
Energy = -22.70310589 eV
Be 3.632047252454401 7.608185075524985 5.12292707811266
Be 5.212387087626562 6.247613720641136 4.358780964751128
Be 5.552837801597867 7.986782480434713 5.477975974448169
Be 6.7402901699292315 6.386958833034566 5.82766143452493
Be 3.3947303955718033 5.631522916880482 5.1992816351859545
Be 6.8384127793130505 4.735601853855404 4.551892647678068
Be 4.757820110252823 6.401260129344326 6.596275775835839
Be 5.0446790449064975 4.5406606866776436 5.608963349847618
Be 6.289157414702626 4.9197907620230374 7.2436546073423065
Be 6.721023087105377 3.309846532301248 6.031578031680518
Be 8.062880457736519 4.7729782650747525 6.205944954221373
