15
Energy = -33.5941347 eV
Be 5.353746329070301 10.5795800589941 8.556885586902405
Be 5.885027525839404 5.115277161212564 7.900231597217418
Be 6.126394785126812 7.321191377234063 7.965981711039338
Be 4.6808908436246455 6.494606032024861 6.734155266429809
Be 7.90371704595063 6.025984426866228 7.804884839666648
Be 6.138877784306334 9.233283367639665 7.178037695797824
Be 5.57703242806324 4.160496702373993 6.028131491013537
Be 7.44475855575651 4.07189409922566 6.829858689747441
Be 5.767480728739041 7.882446048269292 5.636644711177257
Be 8.579723514792827 5.467100021246046 5.848467077832209
Be 5.3749791487432175 5.870764710771997 4.782385804187671
Be 7.104871791784968 4.572270985813244 4.748448443538112
Be 7.598792892683865 7.892225585669989 6.5730720494490225
Be 6.627470490877655 6.092305877812728 6.319457740440504
Be 7.394299916520101 6.778637326725392 4.651421077440344
