15
Energy = -33.82959064 eV
Be 3.559583476758593 3.8216856816885865 1.9097957209943366
Be 4.487487787811441 5.624369258522205 2.2041337346731535
Be 2.6823867191198665 5.238155539674419 3.0896948277750624
Be 5.334292745760919 4.017132853185797 3.2037755836644672
Be 4.070465821081086 2.4048372814255665 3.364341482211573
Be 2.2029262914267114 3.2269219418751174 3.422016406261582
Be 4.494027398898791 5.733328343268272 4.29127042871442
Be 6.3756584183985 5.023833642821901 4.896498545773554
Be 3.046455322691654 2.4871319713854927 5.13662524983083
Be 4.882074383243036 3.4820984121865157 5.1370267574450805
Be 2.9667521085093824 4.555321216375391 5.005792863352399
Be 5.746393756108816 6.875537946387509 5.567004532311781
Be 6.183884497580155 3.8658301861294757 6.765620153419005
Be 6.630478210644032 5.766755743913608 6.91803906102879
Be 4.620055023671079 5.159981942865229 6.3712866142487625
