12
Energy = -24.79343778 eV
Be 7.210216648864074 6.713425428731175 6.723594418509896
Be 6.418016668249747 5.770962482845057 8.34482823657049
Be 6.568735606474459 4.70585139521518 6.488676535832237
Be 5.121212973300977 6.364672536615009 6.621979434617468
Be 4.870192702892816 4.588671154706134 7.752879596060083
Be 4.571093584987103 4.531553701215995 5.708107585237227
Be 6.189086839785501 4.149054337908415 4.475650334779393
Be 6.367013339542416 6.162899043185575 4.917904360554615
Be 4.279341328831906 6.336310722014243 4.65094054646562
Be 5.682845478781623 5.556357446816741 3.017008929719497
Be 4.281721349896834 4.283400493317632 3.6335510028390923
Be 3.7100971159080256 6.034458516691873 2.7356195910311842
