18
Energy = -46.04697021 eV
Be 7.182656122009944 4.561398416442836 6.92912664812975
Be 6.9524524410153585 5.963013293106343 8.580977172058066
Be 8.412797514284101 6.895387712369209 7.26951399495191
Be 5.069456087254951 7.009815984383488 8.223393879857843
Be 4.118139816382384 5.686276932888047 6.700991564225228
Be 8.505885204013845 7.615647495603473 5.297586830818485
Be 5.250781885251247 5.873399741355843 4.934571854069413
Be 5.784455430114662 8.830871062797922 7.162186284122945
Be 7.220220075125196 6.458836627521206 4.165968280582933
Be 6.8780061821574 4.539513527651002 4.8514015009581595
Be 6.48583400268914 8.2039515356474 5.27628802565556
Be 5.26866844290991 4.110429221933877 6.123647003739029
Be 4.616871553803893 7.548544176427152 6.138466953328045
Be 6.496390144506534 6.502305547725412 6.4957679972534255
Be 7.059192350029417 7.971635983809366 8.487844279401747
Be 8.541549488816374 5.560101405091336 5.529651999661286
Be 5.3836535608183365 4.812195459250487 8.030835720437068
Be 7.7863102302793665 8.869996407457528 6.815100542211045
