13
Energy = -29.51820162 eV
Be 8.303008207776864 6.387948138957999 5.944726954015359
Be 6.7720325737631715 5.0569628626085255 5.625703654404501
Be 7.50782638069909 8.178914490182983 6.06960126842379
Be 6.721504748379218 6.875159169042021 4.539439676632905
Be 6.635976103616196 6.523396968713749 7.194489219586597
Be 5.373016123029724 3.4918283707089475 5.52182788840061
Be 5.892080545180306 4.500683988635867 7.361755757209349
Be 5.6196021665272475 5.022597519346493 3.9724013756100347
Be 5.514465553739917 7.894995002653076 5.9545205253633515
Be 4.604633457861835 6.69246049265071 4.54245105698723
Be 4.699892347980595 6.040877569603953 6.525940954646332
Be 3.9947391347701093 3.935203413366321 6.849414304264274
Be 3.8228589349858617 4.791052575913511 4.964675888390484
