14
Energy = -31.51354469 eV
Be 6.222992630381692 8.419901630816556 5.347087645367122
Be 5.252207605367947 8.767185743436597 7.135367375579991
Be 5.841566342340177 6.633774693245191 4.219966734528122
Be 7.452863907035785 6.7001659548001635 5.592874853337585
Be 5.27123513280156 6.8666922538959385 6.209140940169378
Be 7.091459360384288 7.898090980258056 7.326302697126811
Be 5.444469785812176 7.080204337200581 8.381196759259948
Be 8.577394865118135 6.252341282410576 7.3454932953627585
Be 4.672754801118598 5.358045146700224 7.420095128104745
Be 7.226288975178157 5.102935598626206 4.108330533431496
Be 5.863469605813104 4.922829053725599 5.532474940998072
Be 7.4298788660784405 6.7478011844326575 8.98383433737417
Be 6.6874240487813195 5.557202507722021 7.39963469525703
Be 7.9651753281347935 4.692010887075932 5.9973813184489435
