14
Energy = -31.82532338 eV
Be 7.048185947723761 9.285867162707722 8.68984333838352
Be 8.577617480935505 7.886573386356915 9.24955599133037
Be 8.836549152793177 9.078637248215893 7.591298193737806
Be 6.346047234682433 6.103959139259714 7.591298193737806
Be 5.567005846945363 8.094185756169276 7.591298193737806
Be 6.604978906540107 7.296023001118691 5.933040396145242
Be 8.134410439751846 5.896729224767888 6.49275304909209
Be 9.615590540530246 7.088410631306334 7.591298193737806
Be 7.048185947723761 9.285867162707722 6.49275304909209
Be 8.577617480935505 7.886573386356915 5.933040396145242
Be 6.604978906540107 7.296023001118691 9.24955599133037
Be 8.134410439751846 5.896729224767888 8.68984333838352
Be 5.570505017149768 10.115739999999999 7.591298193737806
Be 9.612091370325846 5.06685638747561 7.591298193737806
