10
Energy = -19.24313968 eV
Be 5.943595060337331 7.63015865362793 4.347247738283546
Be 6.640632415510635 5.851906280828283 5.068752534434734
Be 7.164916038444588 7.827673898969873 5.966989488572694
Be 5.082804552632195 7.047661040975355 6.104940649759918
Be 7.296130429725305 4.179279910572795 6.042680545092663
Be 7.91104616376626 5.930618067079214 6.875607316384136
Be 5.8328425117250084 5.180999411184895 7.048637050715367
Be 8.298610410238643 7.79070608600081 7.670126754004993
Be 6.363075970837666 7.1612894819038395 7.921265207460427
Be 4.465327218419045 6.398687940493677 7.952733486927961
