18
Energy = -43.56013027 eV
Be 5.964571145982311 4.546998458595348 6.238567988027207
Be 6.793624008825862 5.713101338723617 7.912318963835247
Be 7.684815279623325 7.106865827456116 6.682230999102761
Be 6.557133522509034 4.303740368115774 3.3461962611529263
Be 6.096619882987834 7.658835798819881 8.088797137834579
Be 5.318961404586762 5.845252239308131 4.028431255294131
Be 4.870338036218723 3.8512120693943315 4.4750103068750935
Be 4.268183349743387 8.28346433433098 7.40523504061349
Be 4.7924077260089435 6.084008444184103 7.549547377904189
Be 6.283643465382344 2.404143598902359 4.200321032888051
Be 5.907391566569234 8.66431621214963 6.352394662721335
Be 4.168891094311894 7.579578172723573 5.360643850755179
Be 7.621269457423737 3.6914888046455974 5.004200057531978
Be 7.361680557857718 5.771777238000994 4.6519917023550255
Be 5.926484857044703 6.736793776382425 5.79673267894912
Be 8.05712243107672 5.100118790910505 6.471211924186789
Be 2.9894352571762144 6.812243601521778 6.77949243089699
Be 4.072941859639293 5.445377433395167 5.615071748336439
