17
Energy = -41.02097038 eV
Be 6.19817881057981 8.500840882784104 6.506463279524852
Be 7.780796618246241 8.19451767358697 5.284758215088694
Be 4.579713339838287 7.443583592000574 5.700956009387494
Be 7.013992903497696 6.53147375578652 6.247284089041806
Be 4.590501162497597 4.970096210681761 8.362763908841526
Be 5.944954964922998 8.423975406063336 4.442457164304111
Be 5.339458920361786 6.7739373054428 7.549877439583038
Be 7.116629459070881 6.5084344305403095 4.156123179255761
Be 6.4116816969619945 3.008251705803612 6.552806449874734
Be 5.072778650527486 6.721894103912375 3.7925248556253797
Be 6.144294155431133 4.864197583889831 3.5863222434093585
Be 3.6432581228532412 5.786396948713888 6.86432353086581
Be 6.363968210077966 4.867208993801148 7.289984195559442
Be 5.101488365907721 5.402151641577073 5.400350912238921
Be 7.255198586108759 4.558730840547203 5.329448883138919
Be 4.477142575013176 3.770436004633739 6.68554502184086
Be 5.5079105228962355 3.339042146464698 4.833929369401829
