14
Energy = -30.58159234 eV
Be 3.868466906624984 6.107478073161224 5.130846328667677
Be 6.7356874796356 5.734219871156834 7.4654992409228464
Be 5.387517553168604 4.832421192145884 6.036542217929432
Be 6.83827640528594 7.9079347472934085 6.382247677697108
Be 9.881797320648692 7.3948892302536136 8.247415788710422
Be 3.979729702321376 4.153954277435062 4.662125070539572
Be 5.438013200662966 5.401264402493024 4.007188592436258
Be 5.51516290123381 7.304529542371738 4.784907784754349
Be 5.118432984407416 6.8431815579694675 6.749157995322948
Be 6.99542239191837 6.060124915168505 5.4266511808499205
Be 8.19521408133775 8.459206904396256 7.998819942634486
Be 6.385345746422964 7.531104851850436 8.354771807560022
Be 8.530368110066748 6.656914430838292 6.841761897858576
Be 8.136019648274116 6.618230435475585 8.91751890612558
