17
Energy = -39.9716039 eV
Be 4.344165976537735 8.359051755938799 3.011758944256004
Be 8.096348318150698 7.895546605626349 6.396084825657289
Be 6.7156910594963035 7.907437102365109 8.089759798541305
Be 7.1529106775262 5.037989442074371 8.36589901807661
Be 6.693683155916017 6.326889945810801 6.775424378747429
Be 8.396173554704266 5.729669800718065 5.8505456461714695
Be 6.496521956930763 4.365689392116271 6.30540459162013
Be 7.5387938034774375 6.73695596528668 9.552241948140697
Be 5.014010283668059 5.786535051607394 5.591981788258222
Be 5.1176318301151795 5.0258562978445545 7.717989835972411
Be 6.78951475673292 5.401153450018414 4.569364312714466
Be 8.557146041250473 6.58152946038845 7.847247216451204
Be 4.78562045662568 7.0309153098668995 7.360238691143469
Be 5.668261697786751 6.930428637137009 3.8516384229373357
Be 7.67882544793905 7.195452844123344 4.523567209911364
Be 5.569760298577087 6.409280913479323 9.108120604612516
Be 5.9938934381110665 7.8885707791441275 5.691685520334045
