13
Energy = -24.6260977 eV
Be 7.9730454681534555 7.51720022287818 5.900245207948629
Be 7.768851526814143 6.41547072144444 7.712135611184356
Be 7.6599446149886115 7.569300247024645 9.414626108352
Be 7.6612298111373125 9.635742858882645 5.888272118040207
Be 7.24394292004987 8.512761974480517 7.585417997987029
Be 7.502993813860153 9.686103377679137 9.280119903022337
Be 8.36850294801453 11.477037155741487 8.669146933334822
Be 6.89895813904401 10.639669866403347 7.529810105249839
Be 8.470160301280066 11.462522941381106 6.597889132779452
Be 8.200522756130034 5.442508937873362 6.018013562834949
Be 7.890239406769354 4.311488249799612 7.781365041579482
Be 7.9579730065689125 3.441477662468739 9.667473608432744
Be 8.003494780990428 5.488574577669715 9.555343462981268
