13
Energy = -28.03320427 eV
Be 5.737353985245736 6.271153583917094 4.308918047958767
Be 5.0616842583366095 4.627377401256324 5.1500124089735575
Be 4.531635154331921 6.390567161471099 6.0608720441790975
Be 7.653272250522884 6.830681214643389 5.310850964136475
Be 9.072011036097779 7.180299983585137 7.075907720243876
Be 7.562496416214952 6.550094567906139 8.225615327479636
Be 6.27524284145732 5.4531904976094125 6.913709471722823
Be 5.59850918571 7.237265458710523 7.704742863094951
Be 7.09530242910102 4.840442967687336 5.0496165245329
Be 4.346355643811654 7.693543122444608 9.377474155838485
Be 8.309128588735536 5.3332599960579925 6.616478334861986
Be 5.922353283007141 7.85499288559142 5.662997509820395
Be 7.349970880782061 8.25244711247503 7.058120580512426
