15
Energy = -35.14051954 eV
Be 5.704751457423174 6.0348252135030185 4.066701910896273
Be 5.10524230569978 3.9628948520754688 4.153609735538993
Be 4.122051535373433 7.630202615051452 4.309722965784199
Be 3.7074518658363487 5.651808166763091 3.7048239805217693
Be 5.984924085531385 8.169132222667221 4.60135339991778
Be 7.193507693707416 6.650054834617972 5.3557717523219965
Be 6.928137469874103 4.559719960319116 5.098144720196543
Be 6.381548942557254 2.5068567717115577 5.136399217114517
Be 3.3851762181954994 6.318571808006314 5.59852503320675
Be 5.284347187560316 7.072102585110707 6.200218647937938
Be 3.2871936236051265 4.2475060682982315 5.115046367826748
Be 6.291506859023634 3.4463118900557217 6.89500410921235
Be 6.731816800498873 5.508509332661098 6.936304504561654
Be 4.608332782424553 2.829623978074285 5.971434528901701
Be 4.824915603980164 4.952784132375649 6.397843557352171
