15
Energy = -33.60393113 eV
Be 7.240773030362919 4.467665570188445 6.260698236754198
Be 8.224946167229268 6.084753940713141 5.479413668260069
Be 5.5894760463519 3.5085717651638624 6.764246570672058
Be 6.068259610109779 5.394456686160624 7.653274192925861
Be 6.3415292899790074 6.752883285230161 5.881431769100943
Be 6.596315213885675 5.2762055522118905 4.405802231496301
Be 5.809566422957027 7.456061936487058 7.675917307445262
Be 4.474543123513107 7.480363100376303 5.994470488955956
Be 4.874584929237238 6.533112415555674 4.158927124769942
Be 4.886761620145364 5.250224906283201 5.868956105032359
Be 4.891428655042002 4.422416089318524 3.5427415335879573
Be 6.196479481666213 3.2778533547725175 4.818218456982523
Be 3.00061759922526 7.179030331748579 4.529736422621819
Be 4.187316507869199 3.3805654293729104 5.076562469247607
Be 3.2074224950285135 5.161021390936854 4.329018921726032
