12
Energy = -24.63329891 eV
Be 5.067366392567113 4.865148755852305 3.6195157301477128
Be 7.278772183382617 8.00284531777536 9.292361396100718
Be 7.253249390704778 7.364623313768827 6.252307590774373
Be 8.420873827534095 8.520006218659947 7.845021406796631
Be 6.483587858973912 6.061693468635855 4.531500636909032
Be 4.79031858248899 4.917058147391975 5.642104412202715
Be 6.639147804208773 5.359348287794174 6.520791367093182
Be 6.345628359050592 4.003045816364672 4.795820704257674
Be 7.976701258124522 6.509810607561364 8.110967397398463
Be 5.341819745009848 6.962848867707743 5.9736856053839755
Be 5.978655749508076 6.706759210724578 7.876366996863248
Be 6.434594483845825 8.737527623162732 7.5502723914722125
