18
Energy = -43.95363799 eV
Be 6.231804501798807 3.223729755824654 4.963922248618101
Be 8.543242896397185 7.204921711382498 9.123914603870237
Be 5.003243026116754 4.783612733310581 4.586985135054561
Be 6.539130840118409 4.810525203985895 6.242666850658938
Be 6.946988409847449 4.848192852677129 4.015382824877622
Be 5.959904810285739 6.680796023334123 4.454671442422592
Be 7.1646572448970565 8.242858633367417 5.144350498483213
Be 7.857715695758715 5.770652187143206 7.791457624150293
Be 6.638918677900481 6.705554940544452 9.487194038271483
Be 5.353550966968926 7.6847587290963375 8.009109311062799
Be 7.0948133846171375 8.579376256538486 8.828822335005237
Be 5.749549496245419 5.563597814876893 8.072586159197972
Be 8.310496956194605 7.837934067773838 7.127494521193439
Be 6.616229037458314 6.8953300014376895 6.649023666152285
Be 5.234284963279684 8.20096350118557 5.686485497420201
Be 7.86102022074648 6.19472020420236 5.28061695859278
Be 6.608610713415682 9.141706845523133 6.933748605200978
Be 4.81462484323215 6.159555223074481 6.130354365045756
