11
Energy = -23.73777258 eV
Be 3.795181682257425 2.4117576942932053 3.2380639698261513
Be 1.7095858102965622 2.4938921391303164 3.1239730320897587
Be 5.507154412570037 3.090708574393951 4.364078621563819
Be 5.035098800138156 3.871841119839284 2.5021936773577305
Be 3.8542246194827134 2.2301226629671573 5.2770840190127775
Be 2.51625980518748 3.6464728191380655 4.673081528088417
Be 2.907147022805656 4.2407359211878255 2.698064732244228
Be 5.453662188543127 5.179683898918408 4.152501221148766
Be 4.3623468813222255 4.204276069909053 5.657566431536349
Be 4.299454284445973 5.801775626287785 2.6014345501096026
Be 3.3436473166346374 5.505984582268532 4.408522929870468
