13
Energy = -29.8676655 eV
Be 7.488813959223385 5.782297115890485 6.984309762996298
Be 6.437188153517431 7.65917278179795 4.222204089991778
Be 4.393815166510207 7.409823557057182 4.562858686379034
Be 5.931529300205868 6.863359269849299 6.061627651863279
Be 7.245677397470788 5.770080288271645 4.803255425470774
Be 7.111584146807558 4.064485753157765 6.019986960795473
Be 3.9584706651575177 5.408140539598811 4.616357871510412
Be 6.591367354433543 4.284746217600415 7.987426137894489
Be 3.9450242795470363 6.423055771009398 6.357024239545559
Be 5.442585927081456 5.971044197289505 7.838595419921729
Be 5.544262964622951 6.130497482559308 3.368846930851028
Be 4.9794813261903474 4.556799401653159 6.39647722409637
Be 5.7265290481036475 4.372104027814513 4.472946621104341
