10
Energy = -20.18542351 eV
Be 5.84965667633055 7.041925973873795 4.617389198410605
Be 4.96490697704234 5.215538849122386 4.349785002456126
Be 3.966236160005245 6.600714758159686 5.4339692393528365
Be 6.792454777506878 5.313577357253205 5.413679814038284
Be 7.49702470694383 7.270354519952091 5.847616674307442
Be 4.7782344549314315 5.008185715640027 6.4306675868781555
Be 8.31164503566613 5.677692791036598 6.8422995656226115
Be 5.4849639227502855 6.963648941871792 6.863568202908705
Be 6.428723200102054 5.2339544374115015 7.658105339676732
Be 7.311840691262077 7.060093258219861 7.928605978889706
