15
Energy = -35.16671077 eV
Be 6.343912862552511 6.410170943349538 7.685645511095615
Be 6.259161173242833 4.324033827141206 7.118658089062773
Be 5.99116099918969 2.41803829637452 6.207833574487404
Be 6.794560379105004 5.826478309109394 5.694753734868131
Be 7.0102880267821 3.8370142565564667 5.181307933081017
Be 5.499080989845616 7.498029553568906 6.006906022195887
Be 4.374789933703296 3.6266064659953425 6.381332386326362
Be 5.901099563717761 4.956290461073756 3.8187925131495977
Be 5.147129155512076 3.1205873810092264 4.486872386771295
Be 4.656600715349573 5.647547136721437 6.645221673442001
Be 6.25638126688389 6.992609048312493 4.078279523523734
Be 4.61077664437134 8.169069394864206 4.1914304334817825
Be 4.381558653855539 6.319877395671363 3.3664421960869118
Be 3.897716921067319 4.789002459514175 4.711765123190465
Be 3.6178549148448464 6.7796888742041155 5.2802751742799625
