15
Energy = -34.31409633 eV
Be 9.391538449556515 6.116551849219916 6.123989894060294
Be 8.485378204040234 6.582480057219389 8.002321501122621
Be 8.574456513969519 7.897368405438475 6.272916782038445
Be 8.033983794203314 6.658890481131902 4.682248110551193
Be 7.293228105577472 5.670374283370093 6.4844987179310944
Be 7.220901080151506 7.2572634274423375 9.5077874458956
Be 6.9681170289837 7.944957697435189 7.558589676293669
Be 6.503663792093585 7.736943892260336 5.561839121282606
Be 6.441983760333775 5.847466737091473 8.309828782573819
Be 6.09117791779725 5.816718670736009 4.788585165364164
Be 5.301118113113334 4.953642576650686 6.6512398284952985
Be 5.1885841393449805 7.019404606138501 7.079818058654216
Be 4.468531131704213 7.053747937633658 5.093450166785168
Be 3.45272521491638 5.903990138897758 6.507858611611432
Be 4.098203616620328 5.05379010174078 4.888618999746612
