13
Energy = -28.39340407 eV
Be 8.029011546769675 10.20433615394301 9.526373927421394
Be 6.574363766643722 6.983653156460894 8.794677560507932
Be 6.574363766643722 9.07436993707846 8.794677560507932
Be 6.98056930934307 8.029011546769675 7.07320738976644
Be 8.029011546769675 10.01139073511065 7.441880615137806
Be 9.48365932689563 9.07436993707846 8.794677560507932
Be 9.48365932689563 6.983653156460894 8.794677560507932
Be 9.077453784196283 8.029011546769675 7.07320738976644
Be 8.029011546769675 8.029011546769675 10.002330015179874
Be 8.029011546769675 5.853686939596342 9.526373927421394
Be 8.029011546769675 6.96820872988356 5.556593108719227
Be 8.029011546769675 6.046632358428702 7.441880615137806
Be 8.029011546769675 9.089814363655792 5.556593108719227
