19
Energy = -49.40501351 eV
Be 5.920525840351132 7.766528902001194 4.502394893182174
Be 4.815744641145249 5.927390412064561 5.099629048028877
Be 6.670065986817351 5.909455927164746 4.149545769532664
Be 7.920740947231521 7.526375126905277 5.033827305643168
Be 6.408606900643295 4.427029263430257 5.5901551614351135
Be 4.510440380388124 7.796668598523394 5.966862771775434
Be 6.493903849276374 8.772731450468005 6.234447678566262
Be 8.332066080448266 5.495091509206654 5.24485341131767
Be 7.919955526822261 4.584796094412018 7.0154208903680235
Be 6.510274856749957 6.510186856647188 6.510214948901233
Be 8.746617170968014 6.650815186278098 6.9280254259475225
Be 8.497077756028593 8.661197076511208 6.637794664879783
Be 4.523025709962016 4.359633866283253 6.38344396535072
Be 4.391507458833111 6.190553854940557 7.288312144121599
Be 5.984454873765915 4.68954974417706 7.778707106650645
Be 5.27833884514328 8.164147801541304 7.813189428763116
Be 7.690051542287096 5.892056557351004 8.555545313135127
Be 7.320200534275979 7.89764655139689 8.129043704913816
Be 5.760925344665875 6.472669466500243 8.833110613290208
