18
Energy = -42.96278474 eV
Be 7.385740357827267 9.498544205460615 9.500536091782669
Be 6.942339941646366 8.739273452031167 5.9465235611986085
Be 8.552016352584387 7.736316924727096 6.662840101839219
Be 7.0729096537612985 8.124750960324887 8.03460831495986
Be 5.284914707432252 8.478673535720706 7.086884060611068
Be 7.602408210022654 7.065253966900215 4.823273874589536
Be 7.726344220079718 6.112039167126616 7.820489237420667
Be 9.010382708549933 5.797839289397321 6.02137732040057
Be 5.401674773727285 7.557906366748044 5.10549277259094
Be 5.588870175559236 6.592479498221572 8.089271798118796
Be 7.897453924714291 4.2256811673999914 6.652585934793327
Be 3.916052856372272 6.943511962856011 6.657820856421258
Be 4.272385255091723 5.650639316256215 5.1395026406184785
Be 7.798482838620766 4.862000407702603 4.700321741171091
Be 6.064469127357225 5.771338400138188 4.229024134930587
Be 6.242447695461018 4.623010872469639 7.755707277571775
Be 4.3660821280415405 5.013919497936204 7.0896845625823355
Be 5.901468204724672 4.2332641401568045 5.710498849973372
