11
Energy = -23.10143428 eV
Be 6.242218499570569 8.276986333843016 7.0740011458154575
Be 7.552319875402795 6.555005564632337 7.008728802042179
Be 8.07179290019678 8.628657205946714 6.314247175839768
Be 7.725437839241208 7.080082306710425 4.986230749587328
Be 6.529887982995808 8.767745003535902 5.144345681982164
Be 7.086700448110492 5.168894231483134 5.578837337345856
Be 6.832677546733481 4.622231036853434 7.529940381536117
Be 5.550513251117186 6.379976365135932 7.730955142484303
Be 5.762338353377993 6.72845114659376 5.631303351078605
Be 5.201703517091052 4.7859795345069545 6.260888917730022
Be 4.9493970658343205 4.510978550430559 8.245508594230245
