13
Energy = -29.53031278 eV
Be 6.006949470120811 6.15963446275675 4.368616736822338
Be 7.891271183924389 6.000626601101017 5.19132095472189
Be 6.513302622644565 4.512948379401288 5.547239666150531
Be 5.0171653452355285 7.4778124264620915 5.606062677497561
Be 7.191709783908671 8.108101186851162 5.5656654418873135
Be 4.6736941391148275 5.454340206147283 5.802206989724911
Be 6.490933576300133 6.510887949742271 6.500256896413864
Be 8.33167246514813 7.525855393868214 7.18297228614658
Be 5.801842676907132 4.906699848636416 7.440210048663826
Be 7.963821414018406 5.506705630339496 7.3749162745322625
Be 6.516904449597464 8.495891013373443 7.479511866439896
Be 5.112182830101461 7.022001717449745 7.820851337951538
Be 6.997853620736668 6.827798761628896 8.6294724008058
