10
Energy = -18.79276115 eV
Be 5.094566759278402 8.162039732558265 8.723342918138247
Be 4.474794649592012 7.021875131037281 7.15145069708392
Be 5.694234266178819 6.89724091425333 5.436289012101157
Be 6.478119750957446 7.529602989664761 7.3738526858783064
Be 7.130861559219197 7.03979159882314 4.0225967877539555
Be 7.85645153938709 7.409973690307336 5.86472466626891
Be 5.775035376502287 5.398000337293429 6.855269056961608
Be 7.2990071902813884 5.417263199859141 5.306201361270531
Be 7.852433207069409 6.004828429398278 7.350652696978103
Be 7.328527280366213 4.103415555637936 6.89965169639804
