14
Energy = -32.14938065 eV
Be 5.3700871567548925 5.327109307348201 8.486333501135372
Be 8.604720351666913 7.401155018991523 6.872313464111011
Be 5.625645420068017 5.0540490514865715 5.451745318320703
Be 6.918271299440013 7.675170346980419 4.624165283971051
Be 8.91974126922294 7.1713203048567875 4.832161499620836
Be 8.309317407025103 8.90739362020876 5.505797878659359
Be 6.972164740088592 6.617817973473572 8.02309291433027
Be 7.316852078197956 6.072104978486924 5.898024788780521
Be 6.662076189718479 8.25384729405168 6.716091374300714
Be 4.087933316202466 5.678577318403994 6.763584735863667
Be 5.0236567147252975 3.86350095953801 7.067134844622883
Be 5.034810826656369 7.247876044064815 7.7603581658110175
Be 5.225767746073281 7.084456229926991 5.730490563176143
Be 6.929443375975912 4.646109443997856 7.269193559113068
