13
Energy = -29.22185529 eV
Be 7.496171230273534 5.0063731861282985 5.216309563185876
Be 9.055558756031742 6.198920660180289 5.861572523330941
Be 5.833720183935389 6.109326894997942 5.521196618685295
Be 5.3145629518227855 4.289367040104012 4.934414655403535
Be 5.2160299469013145 7.950040704526507 5.123509898150423
Be 7.423891888552217 7.336370765392449 5.328521906418663
Be 3.9307344043845958 6.093079056703505 4.887214971687563
Be 6.14172667507796 4.34472468387434 6.77929216639781
Be 7.387081267637463 6.070952147526554 7.101426914723677
Be 6.05163504690278 7.753217909718007 6.953160582383422
Be 5.414220928205916 5.980127983621713 7.84700356404488
Be 4.083722617706953 4.96801649308855 6.5790514763924515
Be 4.02969036222713 7.048022965434653 6.684371241884521
