15
Energy = -35.43594281 eV
Be 2.6671140161320035 3.967557311845696 4.8773420779705985
Be 5.0525858832101695 4.952782508494488 7.483940841226576
Be 4.805199392111717 6.677089590151788 4.257110232931936
Be 4.540891831846681 4.654839142240896 4.429745025136264
Be 2.895517950040726 5.819194129740873 3.84561950221593
Be 5.114495465740711 3.783252072929783 2.610903418164928
Be 3.7881470274621787 5.610565717940577 6.0108612889559
Be 6.1936513343475434 5.401187627913802 3.4865732588326264
Be 4.057184625940732 2.694716297001346 4.107268386799089
Be 4.378438576632356 3.4291345036760332 6.145373186895816
Be 3.060723747407833 4.070099928823466 2.7412586916465362
Be 6.023613378879675 5.5236483889319326 5.666470834796381
Be 6.417622531607452 3.7147718828093446 6.726257641268126
Be 4.349025979613049 5.697255449840269 2.36877381635048
Be 6.123643942261197 3.4717611308943135 4.7103574800437045
