19
Energy = -47.2718625 eV
Be 7.046580686626037 4.558750870149733 3.842843078108219
Be 5.242149678029081 8.399742639224405 4.856215131294154
Be 4.418031656402967 6.561949372659862 5.050849523354991
Be 7.2243054652306276 8.091493534877355 5.0569114425979285
Be 7.81168374874557 5.899452893693361 5.205558840087011
Be 7.879758742480212 3.919997042380008 5.751223475842715
Be 4.281844732620865 7.689331428003192 6.802263302859623
Be 5.952244783185537 7.425825474650049 8.294110105294967
Be 5.744029794181966 5.3342431914794135 8.151235353547385
Be 6.317530221844004 6.824711291592687 6.427580014212605
Be 6.105003478233689 3.1404540196365502 4.96409541709223
Be 7.592298746858545 5.363059938781555 7.260390952412672
Be 6.021479904600207 8.867312728582043 6.658623567859004
Be 5.035657600198292 4.769853199148301 3.9484990350920417
Be 6.208782003294085 6.5878849583326415 4.007172853437978
Be 4.127139185816974 5.5195523978860415 6.824960760177279
Be 5.801069066543309 4.989581585449814 5.783130589505581
Be 6.4142949690785915 3.5886138595775323 7.17156864325993
Be 4.140107998018473 6.527775233393996 8.57695172837279
