19
Energy = -48.98664967 eV
Be 4.53647089926552 5.993669475323811 8.056102931770678
Be 5.941597377880814 4.511321858321006 7.952132030225648
Be 8.521512953568974 5.1377201480214545 5.831888920364593
Be 5.085171221911744 5.204053589715711 4.748303908481944
Be 6.339004897870645 6.309441151320751 6.2928805698022465
Be 4.483111916323947 4.590128222642502 6.540062339057311
Be 7.92514641139185 4.735798194670882 7.706685386369958
Be 7.074101103612422 5.5393683685064286 4.378092720817503
Be 8.22985620802832 7.165978823368054 5.379546463854094
Be 6.5889029622421695 4.148244596971556 5.993201797525339
Be 5.509891999521143 7.179687416584516 4.400123480881498
Be 6.90817804777171 8.696371973010079 5.028927826049755
Be 5.140033483611293 8.507371379474158 5.9594565737189225
Be 6.703758092691233 6.442996365557826 8.429590149476667
Be 7.153771003516521 8.19666959318153 7.02514701708024
Be 4.128722598220341 6.676031670126086 6.091309464585542
Be 7.33664014070351 7.346621260151746 3.503412374732326
Be 5.247929518976325 7.841472341996233 7.830653358800306
Be 8.541595733301891 6.610214278513135 7.365052519264921
