13
Energy = -28.26940727 eV
Be 7.343171827840713 4.304336173491966 3.7562126752759775
Be 5.430863002334666 5.835086482804912 6.328865956118838
Be 7.502539595139366 7.054083720952857 5.97775756548546
Be 5.79584823619719 7.797252257702242 6.872314782075904
Be 7.0095877876762 5.9395936139228915 7.614405687272907
Be 5.20324048868247 6.53050814234659 8.47182872010567
Be 5.633767224705032 5.264687544058033 4.1968106837829176
Be 5.803723236592939 8.425232861484751 9.015326908953028
Be 7.387365439369173 6.3079401595724836 3.9045666421902454
Be 5.803366569377769 7.208145933328932 4.888963334896055
Be 7.553658395012723 7.902978437317205 8.06539581182415
Be 6.799695918483299 6.917366003959961 9.693695616694399
Be 7.237201943978322 5.016818334447303 5.717885280714853
