14
Energy = -33.21920933 eV
Be 7.439247871344489 4.42630537055495 5.753064665525296
Be 7.324040550320748 5.881985811806162 4.20199573603182
Be 5.550344993745524 4.852133022105488 4.8309384404516935
Be 5.654993042453704 3.5637121184489646 6.539952989114093
Be 7.5852476135269224 6.400000772146335 6.134798915769674
Be 5.42513572743693 6.475096461489007 3.4348221210159795
Be 3.754865448737095 4.1570754581567 5.779007876365751
Be 3.63911565834371 5.612422356808949 4.224662027385146
Be 4.499784780637819 4.905653779363776 7.499122583066496
Be 6.625734691212518 5.05746269364233 7.483472451483273
Be 5.44800616980809 6.427475583721079 6.321012880818538
Be 3.337174175034695 6.0900582049691145 6.161044959460067
Be 6.419714952834312 7.58241675087526 4.796932265051568
Be 4.2966549507234815 7.423956403930118 4.807679890246937
