12
Energy = -27.2765879 eV
Be 6.633059477938554 5.746817847510532 4.46693386034143
Be 5.2012793728986395 7.212992400598383 4.947263254020847
Be 7.220353910229495 7.610262810089934 5.2297464445252535
Be 4.777418614345812 5.221448129988344 4.936311099235943
Be 7.753036936568809 5.990944947172167 6.346949001961127
Be 6.258197408772374 4.5594705522818915 6.18237382910292
Be 5.796996568193512 8.179696184185001 6.683424895761135
Be 7.812029229750496 8.053681256036796 7.1683572149390615
Be 5.2485079822289515 6.236685876774816 6.950492607084959
Be 8.209478135644323 6.599328602341077 8.536715406259948
Be 6.359687759978456 7.311035768575397 8.507948260995464
Be 6.729954603450413 5.277635624445373 8.043484125771508
