17
Energy = -40.69922639 eV
Be 6.049858149347977 8.30953126270915 7.5397579097575536
Be 6.825638820166047 6.4384393169882985 8.06679732130207
Be 7.838660781879643 7.675054402917 6.613180015765507
Be 6.019628016676944 8.60833924744331 5.53458385028379
Be 8.947469463211851 6.382567794109403 7.855115934465675
Be 4.260552006585969 8.549622169017283 6.51194108452306
Be 4.724470224225442 6.700056346242625 7.519644296584852
Be 5.647485967217933 4.820193143514061 7.433626031226939
Be 3.1114808042272677 6.830660385955238 6.164535626909432
Be 9.871170838186014 6.91503613884354 6.16053838396784
Be 4.454275646793139 7.301419645780752 4.814095815255032
Be 7.736213129188087 4.725773955274008 7.346269295828978
Be 6.2143053880706285 6.578071587471121 5.73720396572086
Be 6.598866038000056 4.499766045422325 5.671357226015622
Be 9.638222207293099 4.961265661336971 6.451638864302475
Be 8.146030448661328 5.927137270071354 5.420822595006448
Be 4.502453761619445 5.363847318254725 5.745673474435023
