11
Energy = -21.97705725 eV
Be 7.441962296610937 6.106588956376674 5.395733066289987
Be 7.007971690909333 4.444754580472094 6.507000358273349
Be 6.8123398328510865 4.2542477881495655 4.473213462289378
Be 5.661953754815076 7.473306097982213 5.369476381621649
Be 5.25997642769238 3.4189768613868896 5.598660791118263
Be 5.4537863593716605 5.441642742048829 5.507538338424192
Be 6.291130791515232 6.432293812624602 7.090609303989619
Be 4.634417149624992 4.477257440708508 3.886901820434397
Be 3.923907217724618 6.456175613748938 4.462100852702568
Be 4.105535939665841 6.657066668248799 6.498936697416493
Be 3.472627400840682 4.7954435027729145 5.570000538156277
