18
Energy = -44.62662416 eV
Be 8.223424441432527 8.417691039936313 5.331269570029796
Be 8.265964275517158 8.22337825523427 7.387533125806756
Be 8.323121454361731 6.434332464030792 6.244948722386797
Be 6.6744242660407815 9.114642330960649 6.507301923883404
Be 7.292586797336475 6.505373161448497 8.154111574842755
Be 7.046738120975435 4.788569294886711 6.851718977995036
Be 8.00694682575776 6.813159093721699 4.1143014879463475
Be 7.797875590624245 4.90202708099917 4.874484746715554
Be 6.540613229241216 8.533483432030174 8.486843696884831
Be 6.210770243095358 5.795020857096005 3.9907534487719682
Be 5.355194539723674 6.990923080762131 9.05114096743054
Be 6.210077900126655 7.6185995683372445 5.073280524374359
Be 5.910851445839876 4.085996027932787 5.116880166901977
Be 5.819168217619703 5.03526281089981 8.560611590799924
Be 5.185014720174612 7.6877938962666015 6.984012526837572
Be 4.231509487268463 5.927086156262381 7.677780265906246
Be 4.953236804057173 4.149935591208413 6.902004923464571
Be 4.942590329870233 5.966834547049044 5.681130448083876
