17
Energy = -41.90417012 eV
Be 5.917683687384291 5.163575810333984 2.687602300848928
Be 3.9329472799101524 5.649478189970064 2.833533317616991
Be 4.416728769346673 3.6738071920644177 3.0769256523937885
Be 5.370413241030048 6.7170456499068525 4.0382569893798825
Be 6.374698268397415 3.392362162117546 3.609377270810252
Be 6.960447991286442 5.24771218217615 4.54279590160212
Be 3.2416930157575545 4.604308223445683 4.590437813415771
Be 3.1978808920497546 6.807569146286387 4.430757636914518
Be 4.8313371168317705 3.134935205846645 5.095210812039779
Be 6.967413392583628 3.3230707653908462 5.628427245667026
Be 4.427726625767597 7.433958127610878 5.921367994942545
Be 6.309152746771559 6.694292243775833 5.907107977817498
Be 3.0002171551516676 6.017234440215027 6.291700300777973
Be 7.047791995534328 5.011752082813848 6.75388612217714
Be 3.7602365604039156 4.1645329287241175 6.568426232047008
Be 5.620724422654176 3.595675378622135 7.123980577593951
Be 4.9944116486777 5.740195080238671 7.2717106634935105
