18
Energy = -43.97977646 eV
Be 4.7081150416920385 5.68720703149877 7.631364876177585
Be 6.915009089412514 4.1120555746963685 5.2358948922706
Be 5.203447775250893 2.7375050216745707 4.799896457422124
Be 4.0446796001820635 5.445881322401722 4.3038822558799135
Be 8.193895857084943 5.732483021746039 5.328386563613171
Be 4.468081402339999 6.771846514014862 5.908432327671389
Be 5.03945561835535 4.415631262362313 6.039086825226869
Be 3.7274237934381715 3.440799656974907 3.634434351109658
Be 2.1783678744542527 4.3697502797310745 4.642487312034441
Be 7.877513085271539 7.574338631470753 4.55122480871264
Be 6.7002304546712494 5.563071619282187 6.8262696964938865
Be 7.841419804430159 7.396174488293397 6.521802390665983
Be 3.107087722305772 5.156479721343675 6.305669748559825
Be 6.108589334944487 6.0864362202744635 4.656885828474441
Be 5.895933170393001 7.383945625164166 7.347524649478798
Be 6.093155248497952 8.044346702388385 5.456092225765795
Be 5.642056101202828 4.297463414997293 3.5946268152395464
Be 3.336117494461464 3.172182653594273 5.7346384974114155
