19
Energy = -46.16587641 eV
Be 10.01846748837933 3.913103795473 5.744658168028981
Be 5.153796935546297 8.607054306251326 6.345018436168997
Be 7.198818941123922 7.978530581951838 5.100848638719209
Be 3.4935578744670734 8.592737071654781 7.696219693660262
Be 5.563294418410215 5.958536954019864 8.87137416729962
Be 8.525002022196452 6.75402732769382 6.341984164920074
Be 6.752965144665463 5.538905190472987 5.799600108889291
Be 4.996513248112215 5.885750981167268 6.853269000578577
Be 6.447030450082684 4.55834809664385 7.633847944463648
Be 3.565065900328866 7.2658104400552395 6.212935310446092
Be 8.602366751929356 5.102743771026324 4.854247930585189
Be 8.435667672183309 4.738261712370275 6.894969750050681
Be 5.365889554837202 7.938688788615637 8.451841556164048
Be 3.6627333846908026 6.667951179585521 8.27528108711838
Be 8.941340159460806 7.01179570633468 4.29637695466213
Be 6.715036424855238 7.5108844226048275 7.004430073214897
Be 5.3893413805587045 7.025440197842609 5.044495815074039
Be 7.560958503529888 6.153446594937008 8.223523371961624
Be 7.124465446439333 6.3102945830968515 3.8673895297912724
