11
Energy = -24.76198099 eV
Be 6.993493181371834 4.827819630282389 6.586767090039139
Be 6.387314158343225 4.052926015206533 4.800136198847075
Be 4.7560980232538 6.4131893859268265 5.495769347686998
Be 4.344995529277429 4.468193527194727 4.671118157538049
Be 6.61897874533962 6.8775638125990435 6.467780380298706
Be 5.680375831751571 5.677891489715035 3.696864884292445
Be 3.5732372070683636 4.986565516445233 6.511773513116534
Be 6.304431581742293 7.465318984555919 4.516170186490034
Be 5.281880220004681 5.668245944628125 7.441726500270526
Be 7.499176684670223 5.853345547918873 4.807832099714781
Be 5.177786035660812 3.7484531892692288 6.506287597512882
