14
Energy = -32.39413128 eV
Be 5.731962925830177 4.847416055467678 2.6446099991291008
Be 5.430997506876733 6.774070350701894 3.2489578821760836
Be 3.8331092385523102 5.382899433907233 3.2877212789112686
Be 4.487949588442231 3.525334183615576 3.8556127054556617
Be 4.050130249348983 6.655494635637991 4.834113592300582
Be 5.5840611247361585 4.836819415312196 4.795392800033377
Be 7.1194357559618595 5.832075589489039 3.9093463433697306
Be 6.007964014586793 6.801962251910781 5.3887558639756605
Be 3.4733749500050894 4.6500203029679295 5.361445730002068
Be 5.1025617256502125 3.317433235276001 6.060479047784785
Be 6.780814290272556 5.037117986031198 6.377802773467949
Be 4.727827524351974 5.805654977887938 6.731207927417409
Be 3.7436162094628833 4.096372352234765 7.396814585352237
Be 5.68158560065797 4.19271993429527 7.863130175359143
