13
Energy = -28.39683683 eV
Be 8.86696385435163 5.672969232211934 6.763966429667437
Be 8.747192399971274 7.5178222462910425 7.004221051114497
Be 7.41272242333237 6.313078955463179 8.236688583338704
Be 7.912385757793046 6.7483503862071235 5.141443974175366
Be 6.839345494046084 5.410327577241473 6.39773072029809
Be 6.70369978405619 7.54201482820902 6.678261206917886
Be 5.989400320194583 7.713525862462367 4.7753319753939705
Be 6.088945271319849 5.744092179287174 4.518697891094688
Be 4.907877314555536 8.486471401383058 6.5373826110444595
Be 5.099949205856557 4.434570690243222 5.983544050264123
Be 5.536038991431099 5.249997480371766 7.972730978181764
Be 4.965111255813483 6.451209410966994 6.24433593183807
Be 5.43262221200573 7.217824034388959 8.247918881397892
