12
Energy = -25.77836325 eV
Be 6.360670376920792 8.510637181406944 7.01866940287413
Be 6.360670376920792 6.494555990454307 7.01866940287413
Be 5.98514011427327 7.502596585930625 8.800430517423402
Be 7.502596585930625 5.993766919363934 8.701234210650956
Be 8.644522794940457 6.494555990454307 7.01866940287413
Be 8.644522794940457 8.510637181406944 7.01866940287413
Be 9.020053057587976 7.502596585930625 8.800430517423402
Be 7.502596585930625 9.011426252497312 8.701234210650956
Be 7.502596585930625 9.548538409090453 5.706996550309567
Be 7.502596585930625 7.502596585930625 10.153445229872972
Be 7.502596585930625 7.502596585930625 5.3857134017342165
Be 7.502596585930625 5.456654762770795 5.706996550309567
