17
Energy = -39.94117801 eV
Be 9.565336312489322 9.503073973330899 8.464614106655013
Be 8.15998931144768 8.45760224122511 7.353052084221258
Be 7.5390113621934915 6.623465113157659 7.94073638462492
Be 5.96073581503444 7.98251266348263 7.518711756306463
Be 8.90241538678464 6.7734041659860384 6.389762216064958
Be 7.066833897242718 7.52633656076097 5.724127263237415
Be 5.4177047386494035 6.399520929713673 8.696860271475776
Be 6.046997096657143 5.914925098155617 6.755540878355253
Be 4.904620945774347 7.556892693330324 5.763051410977766
Be 3.972158638496998 6.980752800971333 7.44233472439349
Be 4.355823610233449 4.9587749694063366 7.495423510285463
Be 7.789070080267857 5.036269981578318 6.239367263121011
Be 8.131301534796284 6.19330877007091 4.541006772924589
Be 5.92724237193764 6.096947986876173 4.512841248263362
Be 4.088800379441594 5.730530851754092 5.613591319546376
Be 5.530842495090393 4.279127619370283 5.705904144702183
Be 7.119650149629945 4.465087706996584 4.321608771012046
