12
Energy = -26.56918595 eV
Be 7.6945252130226365 5.637342373252017 4.1026911972917235
Be 7.6188809054112525 3.988433834255929 5.124625676846401
Be 6.119991166308078 4.356977967374803 3.7707099788706238
Be 5.700111799044862 6.322194962787461 4.3367192004010855
Be 3.8337658199717266 7.015995560651819 4.7075437285773925
Be 4.139992251311007 4.949426525078636 4.583481477426507
Be 3.707755369830274 4.189747274128089 6.486395277410021
Be 3.3376822965403377 6.167707784799204 6.46737716841061
Be 5.242479187602151 7.139324218955614 6.227910537996489
Be 5.59814647845731 4.034907022911862 5.770297930619456
Be 6.8375006785528205 5.778632538893082 6.101549906557197
Be 5.162923337398764 5.4130644403625565 7.314452423044007
