17
Energy = -40.5219024 eV
Be 7.561273448682438 5.149256854865316 5.2153740290828505
Be 6.841629791350932 7.218522363285475 5.2756550159988915
Be 6.21338093707222 5.913427647337419 3.6303326292825897
Be 8.19986320421948 4.50354905591421 7.030849996869731
Be 4.529503649818824 6.583216151057422 2.7149302085980564
Be 6.930187835043566 6.148710163191002 7.096772015606933
Be 5.958963638728435 3.88539316844959 4.41854532309263
Be 4.832524574718188 7.337853185781618 4.628394151298638
Be 4.21628300058144 5.0194862447867035 4.039278091813683
Be 5.573845769937085 5.588833917897589 5.56776704520051
Be 5.193440551222103 7.291017897385665 6.710961550093995
Be 6.311199999368067 3.8318030218416355 6.502072553393574
Be 2.9422288353832275 6.653554267332772 4.0986196435703635
Be 6.612499321094643 4.572463385206459 8.414590975739616
Be 3.5864328163425476 6.028979599858994 5.920026256061978
Be 4.93432994886123 5.264865328228328 7.505272605637811
Be 4.299923370809423 3.958324039221199 5.865238121977175
