26
Energy = -69.00977055 eV
Be 3.969380585102666 5.184828177771317 4.620060966825551
Be 5.469094819346791 6.3203359045315555 3.3834516292935946
Be 3.6282241519907372 6.237719344938905 6.489996705767712
Be 3.950050468770896 7.344248047462421 4.586035990651964
Be 4.94502362888473 4.39068496852086 6.372911726283923
Be 6.110095701743105 4.468623272387517 4.456225153421161
Be 6.809055024249743 3.323169071990965 6.253902675863615
Be 8.311801048498765 4.470839499909151 5.0210725388357575
Be 8.478884641343033 4.407542329124757 7.177116733262465
Be 6.410201693767573 4.420335626350629 8.096446216522937
Be 6.959445575171394 5.314355747886967 6.234013737799834
Be 7.404777749202127 6.298533899857817 4.316856049114028
Be 5.612088147223038 6.232806803766005 7.293360685995284
Be 4.27760323264444 5.143703822110463 8.315716532937413
Be 5.456552234500353 6.286406774071495 5.3776555682712015
Be 4.907054498120734 8.114440503976706 6.396761515918469
Be 6.073986306397872 8.115918277797052 4.462144563579897
Be 4.242011660102606 7.303074206779752 8.284138202948471
Be 6.935704000238879 7.2404376130374155 6.207351131174785
Be 8.262726655412754 8.177784595491973 5.036745530248728
Be 6.371075534552509 8.069938795853854 8.098890681267605
Be 6.741427260445007 9.223782319557614 6.216462876537235
Be 8.445148932348783 8.114142191115898 7.185570499299986
Be 5.950235477525813 6.205009717034516 9.261123580858136
Be 7.705848159821033 6.270735154054452 8.025197540550623
Be 8.855495737897817 6.299859654611965 6.065613138813295
