23
Energy = -59.68736261 eV
Be 9.560671499854976 9.427069049617971 3.5342511815760305
Be 7.95875866670131 8.009665501885495 6.691919314543013
Be 3.759900203703575 6.588730156548886 7.331033860207052
Be 5.62017151260556 4.849950336070926 4.932779231950893
Be 8.696495616024682 6.159485231416181 6.026048883812081
Be 5.275127140519933 6.852883077843016 4.311909484006418
Be 6.1655576070820555 8.94649799212013 6.993183801828144
Be 8.64762008573899 7.880552660750697 4.70359999269239
Be 7.24347237348265 6.318696400482443 4.52218242913461
Be 7.97305704329074 4.666063772353361 7.437002921133069
Be 6.0949740098267755 4.293294653207058 8.354360084567073
Be 6.3222651685532645 6.347495439346704 6.669545572792339
Be 7.213932597144998 5.728024206710143 9.21232297547655
Be 4.5927646312570225 7.973497705615603 5.9698109506571155
Be 6.569888112472654 8.228404478864016 5.113280769001527
Be 4.604250464466818 4.716121590294263 6.957137248027735
Be 8.561888490676452 6.596861883398429 8.033857871186248
Be 4.799762282393963 8.096986619574539 8.16141760818016
Be 5.206751610564256 6.134720840234181 8.76667070456829
Be 7.672189789154165 4.502105108807611 5.356884294124271
Be 6.302328136273047 3.588637250415507 6.478841922161287
Be 6.833461980643197 7.708100698987716 8.584220556367221
Be 3.8934487615431164 5.954893129428658 5.426476125980411
