20
Energy = -48.87514145 eV
Be 10.259620813223089 8.867231103310385 4.359053562014139
Be 9.21617730209689 9.388644515625764 5.985636135297467
Be 8.576719953541554 7.777215832606553 7.193424839018622
Be 6.587292488605367 7.816892068794957 7.73502300866189
Be 7.128277470206578 8.848093447841565 6.003741242194961
Be 7.409230480362858 6.040805814984964 8.152354438882865
Be 8.613294296763408 7.7837051080377 4.928029363923316
Be 5.226412031059705 6.218994436948415 8.72632395966043
Be 7.6579001458008555 6.305248663288738 6.003231007876698
Be 5.1998865147816895 8.018881922503034 6.1560643555844745
Be 3.776512197206282 6.348043697943179 6.851419334070692
Be 5.753713184903962 6.0486018130540655 6.786966979454058
Be 6.167373137968256 4.389539427459447 8.661656383666381
Be 6.484948063545232 7.34835435649571 4.576319606918503
Be 4.176359061328111 4.670986295569178 7.966903451353929
Be 4.583086338145053 6.490565227870473 4.917383396265336
Be 6.217917225900368 5.287466646740336 4.815853301654391
Be 4.537246440167531 4.533182247303999 5.8865943421907145
Be 6.826230019127988 4.350344245833899 6.696025280562915
Be 5.265458873320212 3.1308591658419487 7.261652048802242
