26
Energy = -70.24496362 eV
Be 2.9535159670686135 4.541989408582472 4.014224151029797
Be 4.0423422897243135 2.910968470034387 3.866008897779415
Be 4.51559286481162 4.392550768470109 2.4067796079976813
Be 3.7785187391958717 6.412371213243419 3.90965442777291
Be 2.4508499161715833 5.698265925996183 5.737462472140203
Be 5.9946339936202975 3.065307717842199 3.2516154754219175
Be 3.2896496748283273 3.525040958681613 5.7813500164153195
Be 5.298006955821869 4.947331588661277 4.151753107840835
Be 5.681079316451078 6.417622467381891 2.7406671389018062
Be 5.513019835375285 3.2451725999792154 5.397062310249532
Be 3.7683365843006045 7.513022422539553 5.68548589261439
Be 6.807116051768679 4.742292695749499 2.5363334646511535
Be 4.4304587266755675 5.354305165756152 5.949151175053597
Be 7.333395595415146 4.118968798994773 4.550401614417024
Be 3.1747416144149065 4.709500827107842 7.537955689877441
Be 5.567175160665311 7.261665914981508 4.653495909855718
Be 7.426876393512465 6.212814504451475 3.946570831232435
Be 4.8216208276306505 3.53095680416999 7.333533106014295
Be 3.6122548203123572 6.65391257639442 7.52845339512009
Be 6.356373924756928 5.6638577342632965 5.706364499814117
Be 7.430200492561304 7.4180604497408025 5.845000699143455
Be 5.515194084031252 7.315685436549784 6.892645641544126
Be 6.81417264922846 4.138723973789064 6.907663288973344
Be 5.314403017864998 5.48864713830676 7.997847098554181
Be 8.351009433673685 5.586772151088834 5.819731923209667
Be 7.2641284258913785 6.257288843727445 7.518376342537875
