27
Energy = -71.00545327 eV
Be 8.016754570989432 5.630744609306742 2.4637970132179596
Be 4.7904224646108675 7.999383342762029 6.667847085842807
Be 9.265119127580824 5.600040115581071 4.178409018601623
Be 4.298321630672513 5.936384012759813 6.209567916751257
Be 7.154670048430346 6.752858497925341 9.71571161091789
Be 4.7019715617067375 8.57788624037218 8.791677856349654
Be 3.8511684203700645 6.763083475566628 8.074002579518234
Be 7.488698407398652 5.6152085486470344 7.590089731089147
Be 8.483441980278021 3.924327977955676 3.499932283054165
Be 6.460720875818835 4.332219592738903 2.594987963834651
Be 5.112547205778594 5.012038670445316 4.270746198575851
Be 6.7416560558400285 3.7253662223784016 4.461871448702083
Be 5.243580604091309 6.961262130365707 4.75134868992113
Be 7.66566737994605 8.787832511090933 9.440825197158654
Be 8.161298998716275 7.569385001778252 7.8432805758785475
Be 6.005213229107466 8.256173514476021 10.535304167037069
Be 6.7602179962345526 7.427468543285177 6.107293132640333
Be 6.0855538661714474 10.010386593501792 9.482831995293079
Be 6.519399096799521 9.113846997115516 7.640134229817664
Be 8.603329968711323 6.415949205761634 6.082486286890793
Be 5.9971498982184555 6.241348332766079 2.754223461449416
Be 4.965846661021233 6.67182986139711 9.793386957221891
Be 8.234602895807267 4.446484144062709 5.733892515838343
Be 7.238361429102237 6.1631784556315 4.4837260527577145
Be 5.268055324323607 5.3125724195576876 8.029575247836952
Be 6.187631399696843 4.963888949057313 6.119531146361167
Be 6.101853743742814 7.192106874878591 8.086774478607227
