25
Energy = -65.0976332 eV
Be 2.903033746008636 6.083646937660371 6.060280751901227
Be 9.380804001611406 4.306437607764184 6.319908225604368
Be 5.857265790479701 8.21125194760568 5.017068105670748
Be 4.7186714147034605 6.306486000300384 4.99849316383364
Be 9.320310658708523 7.433156902546373 6.561536647206531
Be 10.705803725623612 5.79990011404899 6.333841686306856
Be 7.560230316987054 5.462972106985656 6.7306562589855385
Be 6.797898890049805 6.18836350661302 4.519951770394877
Be 6.5557717650981004 8.730598725883668 8.55379496366017
Be 3.893604166460051 4.4054704261532045 5.420600245165144
Be 4.038784901514989 7.849905665940854 6.264800384365222
Be 5.307589693222039 5.05638755383657 7.1651416656591564
Be 5.96185518273327 4.531682582308515 5.3268803625737
Be 4.600217704134745 8.287707113941154 8.339201697264741
Be 9.401285675769575 5.684820001331052 7.817166257859437
Be 5.977425118101388 6.679565175002894 8.679354551639772
Be 5.570274334988787 9.25337564759354 6.825496689884233
Be 7.591316893179387 8.795685640216455 6.740289398007692
Be 3.9840513759423093 6.427451010093817 7.859220263522556
Be 7.9335589297974 7.734868878116572 5.111076882168505
Be 9.096422857022475 6.047141073210107 4.9642644984659
Be 6.128597796748363 6.962276737898922 6.612394848534205
Be 3.273480535898484 4.53023565041779 7.296936674326352
Be 7.937151306822393 4.3977336575847215 4.826199114256675
Be 7.979707606802391 7.3079937253542875 8.130559281151381
