27
Energy = -72.34026472 eV
Be 2.820622369844428 5.824840703654187 7.136242298954763
Be 4.671853871740646 5.153726095380967 7.9324686465982595
Be 4.2636396164185815 7.222152355996947 7.524261150457768
Be 3.625633627522057 3.9723465226456485 6.347816690072629
Be 5.246283106509635 3.1178371579878346 7.572568772071958
Be 6.267147693563605 6.438003848592869 7.039081740360981
Be 3.136050986331408 7.44502747270563 5.759468277757603
Be 2.8498875535559893 5.323686029441674 4.8276631951254725
Be 4.490767517021212 5.995062413394921 5.885310327858652
Be 5.714127675080447 4.476240730010697 6.0946916817098185
Be 5.325952066477406 7.8876610678489 5.586357924390737
Be 6.695738135977286 4.511349548913711 7.942686711870466
Be 3.3340304254077138 3.229536898361786 4.354514170993357
Be 7.353654755900272 7.340240461899476 5.4252779471837345
Be 5.110375861881655 2.6311149512813183 5.319953126800002
Be 4.251224439545996 6.787908926165968 3.8748885421518136
Be 7.01449916423589 3.0104815700946848 6.434821145331367
Be 6.258873009823647 7.740537013026867 3.7012564536012507
Be 4.748953838345727 4.619342365585312 4.3486700486861505
Be 4.073335496779001 4.882508687918909 2.5395380097975724
Be 7.63601419981529 5.196226185633607 5.882291369673423
Be 5.059881137438146 2.934310384078721 3.2354379863822698
Be 6.106262435426525 5.977098641604668 4.712368597411481
Be 6.792167630354954 3.8394205170645397 4.313866645458463
Be 5.584430510298536 6.319130383754942 2.3527752459924343
Be 7.479057038773585 5.829222390346504 3.3338493910265585
Be 6.213915300168693 4.445439696831675 2.4082397779939977
