23
Energy = -59.81819395 eV
Be 3.576517076537511 5.700848370051089 7.4109979376399275
Be 5.466790622048281 5.845600536220291 8.329971850414301
Be 7.485016659701966 6.1872613910794865 8.14910540059195
Be 7.298796894565829 6.062983245941295 5.8479399193304
Be 9.091129845302882 5.857396395194794 6.705165343091242
Be 6.880944419658214 9.408355175892009 6.8289258885517645
Be 5.648613740957709 9.161498532391509 5.279184043009604
Be 4.821200049408987 9.067222485736615 7.121827714144984
Be 4.874479136790824 5.438836093135221 4.383831338288956
Be 7.532781781112497 8.070988215815929 5.195478915012382
Be 8.600233295310437 4.433527584414299 8.106582504176886
Be 6.717151818900436 4.329416669710627 7.336640914334181
Be 5.229033263367535 5.28776063188284 6.288909164868235
Be 8.390090706487936 3.621252107000863 6.276703323076098
Be 6.012057053285009 7.290679809120008 6.6987038675576445
Be 6.266792244964939 7.987587506830867 8.514999714493332
Be 4.222507903258146 7.44233065801202 8.162893249507968
Be 4.078660112581042 7.15745065459126 5.966826355722805
Be 5.75402361447603 7.24945759721328 4.596400962114704
Be 8.596483625271986 4.863723183942957 4.79648843341315
Be 6.637379308578644 4.080235134477979 5.136085310195751
Be 8.088444470486177 7.801406913760706 7.166964323136546
Be 6.853477645942597 5.776786396579156 3.821978816322005
