26
Energy = -68.77188013 eV
Be 8.51956264011402 3.8240138171925944 6.364554082182265
Be 5.450477598733447 8.232417812759518 7.1457442070692325
Be 6.61474456472806 4.280226539317196 6.719501958492236
Be 7.384780406089393 4.57836960922603 4.79009117794066
Be 7.382855719910437 8.468846039325035 4.077899960907702
Be 7.283418005272659 8.704844800719425 6.160369508157278
Be 8.242384160576846 5.309481376529046 7.711498832811263
Be 4.003298402799684 7.255785192372034 10.242349364036636
Be 6.818348814834566 6.450193215842998 6.057133213968093
Be 6.088686829815435 7.332591958784406 3.0311242466408075
Be 7.293195259149306 8.506965112099001 8.191052270938643
Be 8.917093864534102 5.740570763370869 5.707029908391459
Be 5.237542516149306 5.001234905477808 5.375215144845664
Be 5.564721689443249 8.040478521401258 5.036678586913046
Be 8.573440258261732 7.246381524570491 7.228947972333482
Be 4.310910326341054 6.691277670412368 6.121781966587641
Be 6.108435822536555 5.386431310573612 3.407604930039294
Be 8.848170208992741 7.748248785477881 5.24367535160833
Be 5.31439486579617 5.830693443476151 9.58524013348306
Be 7.979251596525451 6.431352932394645 3.848054204346372
Be 7.259650637684516 6.601414441402701 9.090582313498533
Be 4.941080700784577 5.247774790083092 7.565337251671313
Be 4.072794146255819 7.03877270251522 8.227294516743946
Be 5.629454896352128 7.977944510283893 9.308508814790693
Be 6.651478214964263 4.583112199419338 8.72001897468318
Be 4.510305374199286 6.491053545818926 4.043188627764553
