24
Energy = -62.43342873 eV
Be 8.806090138340233 2.8787959442670017 7.457711313011462
Be 5.675593686859162 9.957419107478525 7.893764327577754
Be 5.366657709449204 4.77595884244655 4.814377165226758
Be 4.454343678174972 6.168994961447495 6.405355977587187
Be 8.325028976453426 7.604567394989741 6.865933392467565
Be 5.070532185505268 10.091636203983246 5.903981035152154
Be 6.845030305835889 9.115178407325288 6.451694300619757
Be 8.090212106143852 5.627249181431976 6.078936326096124
Be 6.438774425257181 7.015764776233747 6.323791215543806
Be 7.115452310158518 3.181729255797819 6.260668524235748
Be 7.379923526880095 4.3100307059768035 4.613162547724255
Be 5.708799170358386 8.422703071543186 4.861471182853765
Be 6.004441230349991 6.187270064082098 8.243321148342892
Be 7.385331460903571 4.2981438027040655 8.094439586079952
Be 9.402171140222642 4.82565003922221 7.480709483548213
Be 8.051248591047832 6.206437767260673 8.310369436464299
Be 3.7103634423333123 9.631938942166379 7.255091880002634
Be 9.08729278107939 3.777900459160238 5.700092726185219
Be 4.963981347595405 7.924379843271733 7.527505026096573
Be 6.7612562631100666 6.318084926226923 4.436373923201345
Be 6.912453199858061 8.13630457521912 8.278639199401837
Be 3.853902995295588 8.135801686488104 5.7764153464540335
Be 6.085138986826653 4.888081390490802 6.6695259161723435
Be 4.684589820061196 6.698588128885873 4.475278498054643
