21
Energy = -53.73439085 eV
Be 9.136222338030167 6.883930299849831 7.197257734444774
Be 8.008973593675659 7.324099299237181 5.403048993055191
Be 6.438069606098283 5.697539574036606 4.622648420702204
Be 7.48684041093557 5.597785483841093 6.598048539889104
Be 6.425491197613516 7.815586617924797 3.9602341071864573
Be 8.768549972774226 5.147255007427959 8.33380455279594
Be 8.223596374258086 6.968934876476228 8.960439395744691
Be 7.4425853493021945 3.653773737412871 7.5499824779724385
Be 7.716334698049854 8.41468145049392 7.212140733048497
Be 6.952372776595537 9.220958727746424 5.390438759580709
Be 4.941760150605589 8.833679593591581 4.866454714744351
Be 6.768736401638626 5.14547749321589 8.816238225781326
Be 4.602923518381357 6.890682486804208 4.110459898772596
Be 5.610232801146092 8.887288672244722 6.8606976254332785
Be 6.41046798659513 7.140239702843781 8.109146810751891
Be 6.087808547279343 7.098866978554061 6.061682918461233
Be 4.093152348370886 7.271896828866564 6.044560206697561
Be 6.111017585916063 4.008947805360585 5.933623363374114
Be 5.481371707494448 3.6505934070840595 7.80593261234005
Be 5.27136569897147 5.609771491651996 7.281629776994517
Be 4.543298995091984 5.259182524159069 5.402702191053557
