27
Energy = -72.16688889 eV
Be 9.449900763938373 9.998148540431028 9.233881752233557
Be 9.31296806319979 6.352868515849162 4.9754491364412905
Be 9.184013032881692 7.714354949170885 6.709474995087206
Be 8.146901484449174 8.658245524386054 8.29881642077817
Be 8.6015288907048 8.222843355672245 4.748929361085856
Be 7.507189795521228 6.5356455038149015 3.893396120425061
Be 9.204108951448742 5.6150297237922 6.843139505528926
Be 7.999421237399672 4.692062280877963 5.362514531973717
Be 7.428292567714119 8.95128985855522 6.3079798900361395
Be 6.21243764022951 5.036919933763366 4.56643570725333
Be 6.639945333980312 8.437743990662693 4.428727864423755
Be 8.022470340518124 6.581438677351061 8.223700396429194
Be 7.228829912343642 6.7221684458558535 6.003001921332957
Be 5.402011927838216 8.214568273717008 6.06484680765985
Be 5.389173160388409 6.828676878846262 4.442810184067428
Be 6.343929914317375 7.78404160961541 7.786260825281824
Be 7.308397182965083 4.865942847189526 7.340488920983193
Be 6.074836263562112 6.007605017173465 8.777251447734598
Be 5.438495519204524 5.944584313953491 6.6590834249759405
Be 5.98514431043342 3.8052489923721207 6.123325236288007
Be 3.690179982045489 7.158404814061571 5.5388469945290275
Be 4.195946514402162 7.284737143430563 7.67797988243501
Be 4.163011086941515 5.0898451459857155 5.137638211375853
Be 5.582467554245945 4.036290289475589 8.225610626348125
Be 4.057664043476288 5.349034826665941 8.512167776860158
Be 4.022446573288076 3.9627034225563587 6.889514305824227
Be 3.004426039667888 5.7456952118800375 6.824865839712461
