29
Energy = -78.17503215 eV
Be 6.641977928175807 2.2641664926281733 6.004704758811495
Be 8.434584563624874 5.1796086164777995 8.226395426236582
Be 5.499547079059298 9.317776144767114 5.288554011409373
Be 4.463138556979773 8.577839272806848 6.9917333830010024
Be 6.407629204688255 4.881353531296217 7.712974962790808
Be 5.73086925401639 5.191098427189302 5.458679336663619
Be 5.664540129620801 2.988012623652566 7.5679845604138105
Be 4.917680227962771 3.366825294845355 5.675779328176079
Be 3.823770820840741 5.72575791652376 5.390982893275453
Be 5.327302290343789 6.619567879727484 7.1987131583303015
Be 4.348416852206193 4.7291134403354835 7.135416433078792
Be 7.379294748935105 6.21078812535461 6.379031162318164
Be 7.869421974753282 3.38001012619035 7.306010374325203
Be 7.557246631784775 7.162232195584895 8.320170976543803
Be 9.170513416996876 6.843413546612491 5.300784008730118
Be 9.464401964055707 6.695629424015131 7.334282479899323
Be 7.598338375689378 9.346700642693364 8.139649940382327
Be 6.5843637273340185 8.144971849818774 6.628086876917118
Be 3.297161536138503 6.748491427370347 7.024285175648157
Be 7.395486679200624 4.116496484854589 5.430095509868944
Be 3.6757468703059963 7.8409039078998894 5.288464082246947
Be 5.804495272961038 8.471473370947944 8.549388818572004
Be 5.808022120521011 10.176479173583811 7.263731897167789
Be 7.410426086262956 9.985409122489305 6.0744785117420586
Be 5.594359860916236 7.1736347141174015 4.956254623296206
Be 8.659904054703318 8.400614717266823 6.555835480639965
Be 7.506708064859456 8.116359766234968 4.757548182898268
Be 7.423050758249584 6.076040976440915 4.2973404317345
Be 9.115757367473845 4.843387206934693 6.316799633542049
