21
Energy = -53.03556453 eV
Be 6.317868375659576 3.96708910148949 3.587470213742542
Be 8.022493883843607 7.823697116971198 9.67647702497599
Be 6.292043777575813 6.181504328045724 4.071303995903547
Be 7.351643058243279 6.004554767344875 9.083981557220023
Be 5.990748013211006 7.643315767628983 9.239902401741505
Be 7.552111215426538 5.042039123256376 6.935876282679735
Be 4.740791825621822 5.117021153447558 3.123673248804953
Be 4.4566544028843165 6.96022257455676 6.964158631299244
Be 7.590269038015587 6.802010776942109 5.5992349802684265
Be 4.327723606599515 6.229392339025859 4.958885058649406
Be 7.750990852680835 4.890727108224248 4.761707282354684
Be 5.520905673115108 5.227207551102103 6.280399911492485
Be 5.462600586290989 8.71313462194422 7.513893321086161
Be 8.903065124391292 8.898523083326381 8.193193507697712
Be 6.431033799389568 6.764987730145299 7.438306652716716
Be 5.702417776416354 7.713057719811141 5.551147555398188
Be 7.432097142727245 8.575064521731932 6.749013473811622
Be 6.527165036695323 3.568287271784338 5.615357122694626
Be 7.026489553821021 9.379292499557545 8.715873955871931
Be 4.621837277285212 4.086631507915398 4.823647336340203
Be 8.499205487107547 6.932394842750136 7.636651992252395
