29
Energy = -78.82682592 eV
Be 7.387684439792737 7.387652802833842 5.790259510750765
Be 8.469457850155694 9.26155338905015 8.498774890067109
Be 7.387684439792737 7.387652802833842 8.985046094916918
Be 5.224059747291756 7.387652802833842 8.49866338707489
Be 5.036785977135645 9.260043952006058 7.387652802833842
Be 6.941540821058031 10.359797379640378 7.387652802833842
Be 6.331116977106277 9.217758042312937 9.273608233366424
Be 8.04292321993878 6.252587803239779 4.3042300287255415
Be 9.500789155594223 7.387652802833842 5.501555825469494
Be 8.469457850155694 5.513752216617537 6.2765307156005745
Be 6.331116977106277 5.557547563354747 5.501697372301263
Be 6.07713485712354 7.387652802833842 4.304130465667683
Be 8.04292321993878 8.522717802427907 4.3042300287255415
Be 8.469457850155694 9.26155338905015 6.2765307156005745
Be 8.566591758072002 7.387652802833842 7.387652802833842
Be 6.798150809605022 6.366552716823684 7.387652802833842
Be 5.224059747291756 7.387652802833842 6.276642218592794
Be 6.331116977106277 9.217758042312937 5.501697372301263
Be 6.798150809605022 8.408752888843999 7.387652802833842
Be 6.331116977106277 5.557547563354747 9.273608233366424
Be 8.469457850155694 5.513752216617537 8.498774890067109
Be 5.036785977135645 5.5152616536616295 7.387652802833842
Be 6.941540821058031 4.415508226027306 7.387652802833842
Be 10.18452786197027 8.487419627895195 7.387652802833842
Be 10.18452786197027 6.287885977772494 7.387652802833842
Be 9.500789155594223 7.387652802833842 9.273749780198187
Be 8.04292321993878 8.522717802427907 10.471075576942143
Be 8.04292321993878 6.252587803239779 10.471075576942143
Be 6.07713485712354 7.387652802833842 10.471175139999998
