21
Energy = -53.30834682 eV
Be 7.051504029635087 6.785386716187476 9.65656221215422
Be 8.414245183234122 5.654741857554471 8.57195364448792
Be 6.409524074478686 5.262197878667632 8.383198371175947
Be 7.877367527507319 4.506686790095678 6.943763464883004
Be 8.008494354791345 7.730832814564909 8.139840212944458
Be 5.893477373684052 7.704887511745089 8.22110267750738
Be 9.194108569982959 6.531728124183051 6.8580934027765945
Be 5.767231537961667 4.644135874805289 6.382720645336741
Be 4.872049578052724 6.2122853601907675 7.312533063170131
Be 7.017950346038982 6.414995086275712 6.685703589775625
Be 9.308766965729141 4.9466123771223565 5.5639269050898434
Be 7.36874574617305 5.1842021707368735 4.9112368823412
Be 5.453752073365095 6.067293578080667 5.01235075171707
Be 8.04912611510852 8.121135092897644 5.98680841770276
Be 3.631351797714841 5.706789395450727 5.792338930718375
Be 5.798755053112491 8.000814395352412 6.141289882167572
Be 6.899268708954978 7.344059518479466 4.453696236138626
Be 3.825437023410075 7.874950384661131 6.7306351068333425
Be 8.859438658988687 6.75919859886514 4.733450270436156
Be 4.343594921644102 7.745232482502422 4.690870686275035
Be 2.4617316623685537 7.30775529351757 5.333845948304056
