26
Energy = -68.4258827 eV
Be 1.9132203976262419 5.106003413081798 7.60928200030659
Be 5.822512622419601 4.929316177685625 7.258381090764522
Be 4.688616351720948 3.7001624473544776 5.9265961653782275
Be 2.7139079113704585 4.563439228355616 5.855486049123065
Be 7.910031433155988 8.367829449779508 8.50751328793366
Be 4.698381784655628 7.725487782229334 6.1225441158066936
Be 6.874325761348228 3.6652358396445046 6.029705569113279
Be 5.932212131708336 4.6266791927500615 4.564975522434988
Be 9.525168684432867 6.932391805951787 7.707122690081753
Be 8.034930669345657 4.907471531190749 4.879411080940944
Be 3.849103860518102 4.534162746585164 7.663516702496459
Be 4.520058744957478 6.5522306672710595 7.840216021388816
Be 7.553890966074562 9.773070372100648 7.049253811550039
Be 8.680443151522363 9.030676141117711 5.465530302891239
Be 6.61927422093175 6.610443926028067 8.08958035804984
Be 6.618846838946646 8.563872159204765 5.5606809135557995
Be 4.416452453899502 5.7177101924860105 5.500424307155175
Be 9.633822025456935 5.789040447805214 5.924365154160878
Be 5.96056730727072 8.456348004842484 7.586483920851689
Be 2.8706241111198634 6.5492302738930785 6.582381721097859
Be 8.370078368457312 7.016159116861327 4.752884328290392
Be 10.171284112929841 7.756901183960456 5.877590471369622
Be 7.918315673348256 5.3254936078641455 6.991897401707807
Be 6.386443987484218 6.410219770015632 5.6598342829747255
Be 9.505396913773172 9.044581543308041 7.386876598250964
Be 7.895378600625969 7.429132063734727 6.69075521742652
