21
Energy = -53.98465246 eV
Be 5.480964426601705 4.25474296759035 5.648108004084409
Be 4.2204832570216295 6.3861392791840625 7.958843622619497
Be 4.147099530007455 4.390000924840652 7.347865452632417
Be 7.6030562221992 6.110282453219922 7.921484482902648
Be 7.293007271225368 5.442478430889722 5.258775554272956
Be 8.382336766500563 8.115553402047494 7.44541095163046
Be 5.849196270737624 4.879929231565773 8.53353180795366
Be 8.11799829877024 9.237407677242732 5.616582311467598
Be 5.997460083669814 7.547662628310493 8.079021536087769
Be 5.807837236201199 5.871010922291624 6.793756365388092
Be 7.003971789236275 7.3250988896805636 6.220042569235167
Be 6.508100430921064 9.214256730306445 6.926649396924803
Be 8.146420498210528 7.380627356203416 4.574853726719836
Be 3.936969550033357 5.848409649767414 5.887533296242629
Be 5.551945175986405 6.640786412120727 4.828392266932657
Be 4.837032221314409 7.837029200636728 6.374804566319248
Be 7.381737161427551 4.341512551903531 6.954208911954526
Be 6.264774049745388 8.643991968877254 4.856352737358551
Be 9.681086051895518 8.013540579056588 5.82287232043105
Be 8.859461706063971 6.150241201901559 6.335101177260581
Be 5.709454757840336 3.149690297972822 7.396201697190633
