24
Energy = -61.61872002 eV
Be 7.9365641092495895 4.859183136246448 2.507014464348538
Be 5.070115743904547 5.804922160665265 5.37126980554504
Be 8.257595650413649 5.572359440535872 5.788275788466527
Be 8.524140854049538 6.277520119401416 3.863638050624188
Be 6.626251626494111 8.726011545933034 5.973381459341227
Be 6.743881700397019 4.944008103323198 4.22797396336167
Be 8.449286692014738 7.5939428410732095 5.664125449829923
Be 8.424686367848357 6.548680233571825 9.183559586642923
Be 3.440880995309917 7.026351228193413 6.053658865442536
Be 9.184989651621803 6.560054302326386 7.34054798909528
Be 6.570340273037276 6.6463949683751515 6.8468080587909785
Be 4.552791246938389 8.679511044749571 6.614749956264262
Be 7.720293049466797 5.095165481021019 7.90663428149925
Be 7.355335036927088 8.20705680205703 9.554367680914803
Be 3.643576515467933 5.243324501161018 6.983814447564649
Be 6.688138110771341 4.408021182647032 6.190556352891251
Be 4.905274321279521 7.896335024115132 4.843580010270277
Be 5.9694977646768015 8.43738784943527 8.064456913016876
Be 8.01958450555968 8.283672770409398 7.6206865108243225
Be 5.528728012731614 4.903314415222533 7.801855966287238
Be 6.339107520491999 6.5014836910509075 9.037362961612802
Be 4.782766913406264 3.882835032346069 6.048156852151292
Be 6.755479252679878 7.047615748435991 4.646301780701945
Be 4.52565740554446 6.869811697985548 7.882186124794503
