26
Energy = -68.64088905 eV
Be 7.559918887407807 6.805936397121949 2.9569085594252806
Be 8.784980520814221 4.496059429150712 6.196873201168794
Be 8.363391006659086 5.647633952807727 4.50930937984534
Be 8.229568776044879 6.760989828608388 6.536140775982375
Be 6.9522207446695665 7.250876891497955 4.841604978735553
Be 6.495600308361521 8.054911206725034 6.600239933909451
Be 5.4144939300983275 7.175678396509027 3.3948714566809097
Be 7.976482000003928 5.148220382484111 7.972711851103835
Be 4.7628432895728645 8.121086503166467 5.295528162973017
Be 6.646476360928206 6.742501449848886 8.096212314358073
Be 6.466499583566737 5.224546495836068 3.6031996742489296
Be 6.883896381328026 5.3544887784486255 5.976758158483233
Be 4.6311293347097955 7.835119549179256 7.502508677922899
Be 5.126301708347623 6.218641172610635 6.194564169101276
Be 4.389946946611855 5.381270774987276 3.191831601916015
Be 7.211892903228009 3.6541552366689887 4.841219671443905
Be 2.9449253790574312 6.765679715673391 8.181357685868711
Be 4.769168782989446 6.221135846493631 8.832136606832247
Be 7.225716689779615 3.4386548967064936 6.944660408412109
Be 3.5101173641128676 6.911445655789867 4.15737914901024
Be 5.146602014389991 3.767492598282074 4.216694727231634
Be 3.760988594853605 5.051928513691823 7.3285619006900955
Be 3.1282020289694286 6.895468324743359 6.152245004197214
Be 3.5869863130742736 4.973633043332364 5.149910335509714
Be 5.888509811547124 4.759482960283686 7.9575146324755215
Be 5.238545130696902 3.873684844889925 6.217380398669931
