25
Energy = -64.52947903 eV
Be 7.396203706209553 7.706157351172499 8.029454248982818
Be 4.484616885111731 3.1467584178464567 6.695721050181285
Be 4.286555565201857 4.972612520105626 7.470863061205473
Be 10.269358426673842 8.390237803342856 6.966558377034745
Be 5.720910007662585 5.465471530732399 6.028140851804643
Be 4.168907994837163 6.873115981486569 6.543104279817812
Be 3.9135661024004285 4.778952837856663 5.33541634349799
Be 7.141827017457476 6.229963440080482 4.700030956426053
Be 5.7822154300827915 6.420358193479622 7.8836266015200485
Be 8.383258873346104 7.802077972027865 6.020769215253202
Be 6.676428182519989 9.538319295510352 6.3899029495598905
Be 9.319447936102335 6.807935327517151 7.790786920757894
Be 7.67866692792875 5.904042283049146 6.7556409181465344
Be 4.864408645080041 6.766297026026913 4.632336052505994
Be 5.203769384932443 3.153858674516635 4.810941845389157
Be 7.310508155568589 9.751714890193844 8.291771431492368
Be 8.69207474936176 9.761524998941946 6.834321963366511
Be 9.231087980032537 8.728002887353508 8.605462874964028
Be 6.34522413944488 7.499891292507136 6.049928123816723
Be 5.666287304622934 4.9172016117038995 3.9766320839233016
Be 6.34668419596703 2.4309320673101307 6.331459578303816
Be 6.330089056675393 4.191243373674175 7.464215796364706
Be 4.709975212594136 8.647031700731047 5.781974238066077
Be 7.134411579113854 4.116516683593228 5.38849053494922
Be 5.4466969466620485 8.502962244829812 7.725630108260388
