22
Energy = -58.45438947 eV
Be 4.853846182394613 7.810387168057303 7.388265393816095
Be 5.939625037452946 6.8912331050274815 8.934160137001543
Be 5.005501419863854 4.712721966281544 5.927339711559713
Be 5.958509981971533 9.053951185127815 6.125541254453506
Be 4.762526055485562 5.687385663158351 7.787926001449795
Be 3.8762423385866036 6.395044763042975 6.099966980837507
Be 7.430056427655134 6.463928971053247 4.232200834150753
Be 7.975312187558906 6.766063059881609 8.755305709727319
Be 6.529466494595654 6.439746855189012 6.417785348021186
Be 5.405592572399871 3.749944146588914 7.686895198837824
Be 8.956906781120434 7.657888744032102 7.245920740635138
Be 4.3694686791701365 8.112668163530783 5.2625814585175705
Be 6.506241122812224 4.600336548773913 4.554047614984823
Be 6.833160175119002 5.077709699064258 8.363624860144345
Be 9.18565032639079 6.724451144698336 5.460545267699768
Be 8.436015647570429 4.886608022729002 5.162582441253813
Be 6.972012381489015 8.317619500135423 7.781082040161644
Be 7.8481424365448635 8.243818329736282 5.64332738171604
Be 8.592236314725646 5.50085881297916 7.178468234748162
Be 7.071190575531184 4.106658071445532 6.517983358109881
Be 5.236589908148771 6.2699983112580915 4.441485340564125
Be 6.1895678258614035 8.126936272270209 4.333710911102104
