25
Energy = -66.29227435 eV
Be 4.36434741275014 4.3740777200146725 4.279279857704415
Be 7.336210329259983 6.085936599913144 3.766399299924909
Be 6.477083135620778 7.754127646912737 4.650311581266584
Be 6.2742533861059595 4.38582789407654 3.644162454089482
Be 5.8606270824343305 3.6355133390895564 5.555601413752914
Be 9.25937797544674 5.417870780444309 4.145827067045542
Be 4.361527999109409 7.740361042442225 4.832279659085763
Be 7.868974133954669 4.112115559839135 4.91630097964247
Be 3.3320567214334846 5.973366047328418 4.950696919363088
Be 5.205998505626518 6.224903164317932 3.7450728376058744
Be 9.196767479641924 5.211374209212414 6.117253221342558
Be 8.569962439839761 7.036287686351152 5.214860971269458
Be 7.462293063216655 8.354828285666871 6.388083424400349
Be 5.412498884245128 8.319839613703051 6.521968718002704
Be 7.405984540631583 4.465974267205478 6.972471188409288
Be 5.489678909141318 5.966515242467916 6.087372677985828
Be 2.3853883798696445 5.539754294914829 6.7101543529694885
Be 3.5218908543692287 7.211216462686067 6.672124380664522
Be 3.8556821518739803 4.22817827182287 6.231404414429066
Be 5.430048408923334 4.047958835128326 7.534865225108023
Be 8.064469299417388 6.493213610985875 7.247893164934457
Be 6.727797808624664 7.783064703135437 8.169076584074569
Be 4.012032595569207 5.463353304887488 7.9532953519837175
Be 4.780661167327979 7.304377835822391 8.273645068686465
Be 6.249254934179305 5.774831180243169 8.324466784870788
