28
Energy = -76.76318158 eV
Be 4.852749771968 3.347479214938983 3.8963657080391836
Be 7.344108674809937 5.74958205154337 3.7862986912737493
Be 5.093847464849471 5.462635945590343 3.211178671074628
Be 6.446964867232295 6.616235158575833 7.698401129975558
Be 3.0796860238346704 7.006940606118929 5.485577747632068
Be 3.202907104398838 5.471549231192137 6.901382186460392
Be 4.492470354491933 7.331424430981482 6.9865049342929275
Be 7.0570907883110126 4.331329592762507 6.857182498494727
Be 7.391497136881795 7.729435922567994 4.511288373703967
Be 6.031451714412627 4.773186800710255 8.764290828296945
Be 5.764077912495398 8.866236765412584 4.104823169874771
Be 4.521842102639338 6.138484698355489 8.664683916094443
Be 3.8219628353800403 5.174536329078711 4.858696095572459
Be 4.290424315529495 8.686673559964829 5.407025934789317
Be 5.9197452488908535 4.666686079393255 5.003917544695735
Be 6.240974702405215 8.272305292724688 6.206665860876142
Be 6.7126815770893975 2.3415279904511683 3.696345137106504
Be 5.203476904024492 5.321082395529655 6.71527828011242
Be 5.429139980590646 6.645102135381703 5.09224542793135
Be 4.1179208674480225 7.4213224721378666 3.6741884096631474
Be 6.119460087314717 7.226795823598568 2.938191999779609
Be 4.218298116278099 3.5276624450791965 6.132604503965656
Be 5.625811553669549 3.046359536940514 7.623999983199483
Be 6.15522246326631 2.7007722734365083 5.685172022808398
Be 4.100241256369858 4.159031079453901 8.336770557233889
Be 7.774844262651959 3.8718099794158842 4.7162438521397805
Be 6.6245867166947185 4.090829917706563 2.8476461915800244
Be 7.360598354585931 6.1394726097633265 5.869425124432245
