27
Energy = -71.76672497 eV
Be 6.2988096200203225 1.4123579931517496 9.107912503131061
Be 8.821326400033673 5.883972552392204 7.844860867199116
Be 7.959233493750482 4.310636035761739 6.767913037587225
Be 7.250043039787468 5.0353056766035635 8.970841569605609
Be 6.915944420980049 3.1481940335091187 8.11365831063204
Be 7.546021509276156 7.112861860227001 8.91174246138228
Be 6.011083441474951 3.742710053177359 6.332834304268437
Be 8.475769396856679 6.181356385857826 5.79544087141577
Be 8.32782668955752 7.81720111055379 7.096248817955125
Be 6.698931844193098 6.064352199426672 7.140439730728517
Be 6.879626872292246 5.117543557441972 5.04008660533489
Be 8.645981625507922 8.137935164303638 5.0682927870066115
Be 5.336337786035825 4.597896001954835 8.123281178076365
Be 7.388717878338479 6.833817135296033 3.8402724124076517
Be 6.518403112355723 7.43268359409127 5.682225605912707
Be 5.571148752448571 6.475402549864173 9.022583315425829
Be 5.396792227600425 6.102064491313321 4.083931304960108
Be 4.908037928306538 5.41170547194195 6.006140669397144
Be 3.7880045800230513 5.814408447976223 7.667573283551221
Be 6.479080732350729 8.458916167066961 7.794971256475859
Be 7.356337922929244 8.918441756748791 3.783186031024727
Be 4.8966716932748655 7.357753133279839 7.271616089655856
Be 7.3004527051314385 9.463051722278763 5.993859116887537
Be 5.4120422452322545 8.236668308965314 4.00543431288843
Be 4.165730148257659 7.251927923528591 5.413041938537836
Be 5.193880097001736 9.043926303749604 6.092360996748777
Be 5.972250522156503 10.151397054709442 4.543737306976396
