22
Energy = -56.36570424 eV
Be 3.937649341592193 7.055581987277765 4.651776534244523
Be 8.811778639638462 6.876250454701047 5.17787080661247
Be 7.390432020552036 5.5952841131913535 4.534503895703357
Be 8.698277544816738 4.8183494770695106 8.04250673122277
Be 4.399791268323815 5.69707695434282 8.913513800000294
Be 4.273651682648309 7.576255323228531 8.362491398479388
Be 5.59202942188713 6.412457625969196 3.3637569283218802
Be 7.233971814735821 5.538955419697755 6.627770681259141
Be 6.16323289774648 7.1616144453860695 7.484628410344384
Be 3.841418909613866 6.4351824192581155 6.80513667235246
Be 5.468221069538675 5.9579518388416135 5.472728603712949
Be 7.384480602067268 7.371150898404712 3.5390453925033816
Be 5.9296904546482505 6.849245060022396 9.598075975669921
Be 8.183219155348178 7.6372173110117085 7.008580921901047
Be 4.812001243382858 8.092074299481135 6.174410473965147
Be 5.427768115239067 8.258806377391362 3.9583379663983878
Be 5.282227555337536 5.0134387832602 7.272091816035672
Be 9.17705683821996 5.056081807292097 5.893441261473265
Be 9.725016993155489 6.409388278295694 7.243768602264724
Be 7.974109888888429 6.58621770462337 8.744737503068286
Be 6.8257309865175655 7.644635996555452 5.490736961015113
Be 6.626057162958378 5.1145970315540445 8.797902270308485
