29
Energy = -77.37099055 eV
Be 10.32474506044696 3.629217719980983 5.649387762810647
Be 8.912283795560787 3.3083793997375293 7.081070705553974
Be 4.252980806391295 5.843714358327906 8.749036653680227
Be 8.453172940653852 7.5899318591817115 6.661605419467555
Be 8.108549162892084 9.672411520788076 6.472012171316546
Be 8.345194430532471 6.6373636704847065 4.857713997163096
Be 6.947063908099247 3.556902003007346 6.437994003500645
Be 3.762367898136298 6.525517472262649 5.479187909694747
Be 6.507006166031516 8.29063334903096 7.359886265100246
Be 5.430115215780376 4.88137898587654 5.749787082229725
Be 9.110442971758365 5.374902880839898 6.411260592652697
Be 6.194055565261095 6.702249028867166 4.855353667417324
Be 3.7858619558907267 4.908150493673238 7.0034032222533265
Be 7.110872504987426 6.037473161333739 6.670710944572817
Be 4.502332584614898 7.975256785925908 8.345782737738244
Be 6.264033742328051 10.228145738211868 5.743620030695385
Be 7.785467305690731 4.713868869765479 8.075460145991864
Be 5.12211443866141 8.459453218892977 5.378612681783191
Be 6.682573160979602 10.416934734247828 7.706778759928602
Be 3.4246403575071875 8.34095081221694 6.539346820774292
Be 8.523783814425807 3.0436896663973965 5.062117943869414
Be 7.362583028568126 4.8129749387956835 4.81858850967708
Be 6.254537863872835 6.438232148132368 8.572434490215338
Be 5.7181067744732905 4.60353613565052 7.834261477776551
Be 2.879276719575201 6.662987428313564 7.525139958537765
Be 9.394023863641024 4.862671677066782 4.349871446454755
Be 7.252057028532544 8.48543840986731 5.0655532346435805
Be 4.830331273094801 9.677584227872117 7.137327176118881
Be 5.185709028318757 6.746332671956849 6.83297755508839
