23
Energy = -61.61338118 eV
Be 9.299418014918677 5.246532119688123 6.1652740884957105
Be 9.055460212438462 7.234498990929552 7.283522055626865
Be 9.309360822460848 6.796325904770557 4.869600261945113
Be 8.121969040247015 5.212900214077617 4.480769771541528
Be 7.051590637109557 6.936357005458323 8.48816636507745
Be 8.30649025245629 8.437117342281157 5.57043321108131
Be 8.28050054441747 5.370841425708928 7.942069974204844
Be 7.431367753896923 8.619186717659511 7.412216412349418
Be 7.203450583320549 7.194741852223592 4.216187637889258
Be 7.446535350407392 6.534609915671351 6.21064698438344
Be 7.26810486741923 4.397536654796052 6.289955425811971
Be 6.204605086084495 8.45565059045528 5.7458838929467655
Be 6.2776443325481655 4.951345230283449 8.11883106568603
Be 5.554045099473322 6.46529156186926 6.785254619080877
Be 5.154163125034908 7.155009216406808 4.517937368385707
Be 5.216934258032828 4.292274042487897 6.343141322519144
Be 5.0716181356642265 6.497062459993191 9.013552511599263
Be 6.056119332518115 5.354572608751845 4.782562527003639
Be 5.4222610625444 8.308655369187566 7.81561048235266
Be 4.090035566798145 5.112952232042737 7.849417569018778
Be 4.174243619104078 8.008855520357661 6.09761039374449
Be 3.9309488467070075 5.843432108512527 5.682646869597994
Be 3.55944958234751 7.060567042335686 7.805025315606551
