21
Energy = -53.73189229 eV
Be 8.015307890756624 5.12029917024663 7.506136323652564
Be 8.04050022945632 5.8209784244786835 5.636087193814259
Be 6.995517681552059 3.9545805220660712 6.078099671766137
Be 8.29519702363519 6.55197805774007 3.7367390226073165
Be 6.0736528984949585 4.821586069167451 7.856385339827655
Be 6.7523543352364195 6.763512143205455 7.126749906266678
Be 7.127595476866352 4.79425253368308 4.016216426903851
Be 4.848633990014405 3.6333935194783975 6.5906195071633675
Be 5.556711399583316 3.5148776646243496 4.605147094901059
Be 6.44721595958559 6.644761318278224 3.058533576355166
Be 4.142745476465012 4.440653335244701 8.428727136576194
Be 6.892924834041616 7.501047098364175 5.026494537287225
Be 5.087360310525621 5.152128405079033 3.430038550310688
Be 5.620895112917255 5.620135252699631 5.612685212790704
Be 4.613530822405888 6.344548999022164 7.602346627918419
Be 4.90077788607624 7.308380833213637 4.234678485353646
Be 5.182944206990556 7.83202622269818 6.216883341346467
Be 3.749988566895294 4.4707939775105165 4.939629474203902
Be 3.1103583879051793 4.948315469629971 6.82823195414727
Be 3.3161493169732266 6.1008176548005295 3.7901698459581743
Be 3.5624931254924994 6.63001303837014 5.745798058778105
