21
Energy = -52.26790034 eV
Be 5.847059090220026 2.7099472994070997 6.019671996134242
Be 7.359953134276156 6.4515727451143325 5.305070798940945
Be 7.660508059420235 5.507160712780681 7.194388141665774
Be 5.380734279083705 6.157890983244267 6.518273036260669
Be 4.431606564076396 4.419253479737682 5.844065513717628
Be 8.133376699933724 7.1774930662336365 8.616040518607358
Be 5.0446568037417 8.052006824884286 7.507137905549131
Be 7.635055898812367 10.446896605862024 7.197305171953335
Be 6.924991405687973 7.576731744622643 7.00634307457961
Be 5.718385450854112 7.868754427394293 5.346809517013914
Be 7.791993747009813 8.888682823131285 5.75167113877044
Be 6.150500904219102 6.314835627727665 8.413897117962414
Be 5.613583095565482 3.575778382218512 4.149732590944073
Be 4.1212396330516405 2.5467171015632917 5.021517135000252
Be 5.940894693723876 4.351961848414741 7.353499287228919
Be 5.950333221462197 9.57152024991033 6.5514298961837625
Be 8.777198447811184 8.88193225560188 7.718351441480471
Be 6.806766980276063 8.984604559762458 8.487847646282425
Be 6.959250777163674 4.426885449055216 5.524735523875651
Be 5.566021062527765 5.652581097650945 4.562829907864998
Be 8.915500831740477 7.166403496341299 6.638993420642075
