27
Energy = -74.3924199 eV
Be 5.433637777497151 5.7646882370944725 3.482409467157665
Be 7.260233324177521 4.792611733074368 4.101585381098617
Be 5.690939085498444 7.931201910651687 3.8164771935088626
Be 7.2551517816063775 4.43173663491184 6.2450314673411995
Be 7.284991156070606 6.744114712395913 3.5854235538489028
Be 5.524034331336922 4.268362232693482 4.917458360837306
Be 6.167012607919392 9.026543698926728 5.4696241308873015
Be 8.349347286272224 5.996483771458736 5.404020785743653
Be 3.867175343015139 7.06388707008806 3.7443268879929663
Be 8.821243810471975 5.316955332327761 7.396064621072388
Be 6.106648171686739 6.53105570708328 5.5610003900952565
Be 7.906537145562492 8.030001557915261 5.104460576826617
Be 6.999957493062353 4.473585914983989 8.365172988090906
Be 4.100737329488737 5.746363831663812 5.270317322087599
Be 5.200821726972087 5.394197590950587 8.843833345902697
Be 8.580942637048988 5.143307624971404 9.439949939450598
Be 6.873169958650699 6.437619623716255 7.450804337947692
Be 4.3586836162293325 7.945224807287873 5.545866274889515
Be 9.118339935833555 7.304972971835376 6.772049641127374
Be 7.623396656918183 8.664461358790888 7.057423088433907
Be 5.3396074471488 4.7961563460470105 6.8880379224119626
Be 6.867775035620993 6.22172015204598 9.756896106525467
Be 8.64551888444794 7.034459125665489 8.734436446602787
Be 4.408216253726359 6.600456128996554 7.20203408905223
Be 5.158815709626334 7.366883984547166 9.091762347014976
Be 5.563530223628385 8.334626326913304 7.291051965311499
Be 7.015134264296072 8.15992060677556 8.98408036255454
