23
Energy = -61.45539289 eV
Be 7.587878388094268 4.2851346738638485 6.052439836948751
Be 8.33016328239488 5.766444653331379 4.885688773177892
Be 8.802677997085345 5.564598321471389 7.049862757821701
Be 5.495012866728213 4.3429403884196995 6.5133473048961426
Be 6.3103422022235165 4.945491166688449 4.570851936558096
Be 8.80858666730911 7.337549749067379 6.071266726496837
Be 7.062133632381351 4.620546779874384 8.020715203625858
Be 7.16476519847489 6.253185296964598 3.281455325440938
Be 7.454577344762909 7.7765577771764045 4.584964369062438
Be 8.425883321227072 5.704995504848395 9.053946996299516
Be 8.204715340383448 7.443591639058739 8.040623407414087
Be 6.544823930977679 6.485504684838339 6.488515924235238
Be 5.482585740770744 6.929637027090368 4.163462983901705
Be 4.427227776402541 5.413602731067313 5.071996873110227
Be 7.279980320910025 8.756199691599942 6.544505037564227
Be 5.772333111185239 8.740198193337443 5.099836387600308
Be 5.157985626287499 5.0931029546822355 8.435577460585126
Be 6.553618202877604 6.459555669758619 9.088947266484835
Be 6.503796734249884 8.418551666702992 8.45573964336516
Be 4.364140823928864 7.3684067873480545 5.918055349951532
Be 5.125669718700462 8.933530211323966 7.034882320289697
Be 4.826549896115571 7.165056392975817 8.066890994723197
Be 3.817508858063759 5.698575020044989 7.009384101981633
