28
Energy = -75.28182847 eV
Be 2.4699564921834556 6.043691483735001 9.376240110867812
Be 5.354624113259953 6.007851018687263 7.984087928129553
Be 6.613350708651122 7.144793042031666 9.11913272424262
Be 6.122549325376179 5.838569695301911 6.0940750701592235
Be 7.010141201086716 7.333675818277287 3.304302695724931
Be 5.004474138495118 8.132104889549188 8.329757244548798
Be 8.442809479055025 8.460727645707943 4.307180750566682
Be 4.09383244574756 5.353717681386086 6.244797118460592
Be 7.826278310338304 6.701064656668677 5.652961551750164
Be 6.365764795743972 8.215976091358298 5.074767242975175
Be 7.380838996558863 5.519336339139865 7.814510171532339
Be 9.235631882076348 5.456618028139084 6.8870267978506305
Be 7.3150348845347475 8.916501699957873 8.25448037819204
Be 5.331968527729548 6.475865033534203 4.350274240931888
Be 5.65372203263494 4.278559330477285 4.9903300595772215
Be 7.245520904194516 5.3538419007966915 4.126268411165613
Be 6.549757996702508 7.586328230623633 7.044522470140607
Be 8.930934463758279 6.6634892319252526 3.6100750611222208
Be 3.7169769690496732 4.830820592117162 8.234311599359001
Be 9.238497804245755 5.142271940980138 4.909140243882553
Be 7.598234950928597 4.343891004670321 6.013035092190839
Be 8.585803717936628 7.266806813869583 7.715916466981141
Be 4.425288842446023 6.6093533517066385 9.63345203358426
Be 4.610145971744188 7.442678980589676 6.209755474497286
Be 5.587212874231532 4.125670648264573 7.102354967189138
Be 9.771357043281762 7.2561341951114615 5.627796970196501
Be 3.3432990646823093 6.8279819679915965 7.723101833562652
Be 8.212683683214129 8.708370307288819 6.303036910506705
