27
Energy = -71.58379124 eV
Be 7.142172181722647 7.556970268287138 9.561271864404711
Be 9.162152491602198 7.417211663976203 4.3906566464288135
Be 7.632838671951337 4.153318229137395 8.572532471732263
Be 6.95889494689285 10.114100268502751 5.0929571681350945
Be 6.783605701899203 5.530364460509475 10.075972595772383
Be 8.81929047171319 6.692545134135773 6.326707663725377
Be 6.496326856807295 4.389981964264312 5.095898789906004
Be 6.0309350409253195 8.98336606228097 8.574520108229427
Be 5.8618036618461655 3.7471146360033902 9.358484975512809
Be 6.165374250365938 8.406096944384588 4.243300481161822
Be 5.40159425128753 7.333526682290757 7.588574780955524
Be 8.145693542659618 5.572565642821742 4.618452870170691
Be 5.345832064417006 5.631669149322817 6.218667022952008
Be 7.274099322357057 10.075080952014389 7.192569002167745
Be 5.214302553322117 7.131486543544678 9.62523565583087
Be 8.10089966244782 9.032496949600219 3.682116216405269
Be 7.683652653135906 8.116639379385086 7.635988841377929
Be 6.059439737323742 6.175845943216176 4.2178047564895715
Be 7.917578790727648 4.7131848855802785 6.488413719503613
Be 6.09158175167339 3.9017472021444455 7.279709018972146
Be 7.186307671595756 6.092948323625243 7.95930883148102
Be 5.7520089583850424 9.091073872771593 6.368892452171326
Be 8.411158205405865 8.828644606132007 5.817869453862206
Be 7.544141907120493 7.115458034119278 3.205552010753887
Be 4.84675919137562 5.214140237257764 10.408375295900907
Be 4.995947457473686 5.403618464145786 8.310959759995049
Be 6.781984775974287 7.245780359280364 5.910795045686636
