24
Energy = -61.10190046 eV
Be 7.731180972776727 7.684572773248653 5.586254185538773
Be 7.567018133187918 7.565156658809697 9.903215873488895
Be 8.805503694750538 6.1980346820828665 6.592276616547491
Be 8.720032729262073 6.1343616885599905 8.903791726201694
Be 9.4788180618125 8.252639765885418 6.5891487385896905
Be 9.388685461274513 8.180791113108487 9.072271914334866
Be 7.6277912325267465 9.537716662686886 6.554928237242091
Be 7.532682148849715 9.469747435037794 9.035385457199725
Be 5.944446872640815 8.190052235357173 6.543692722655329
Be 5.85550295995864 8.124454627124189 8.842897611617857
Be 6.617562700795431 6.108387134762379 6.4764674739889845
Be 6.530435601656099 6.040673761449557 8.842009170361003
Be 7.640767786843506 7.5991021611340175 7.745440513340793
Be 9.847683815787157 4.806361675988426 7.749524027510964
Be 10.494070882204458 6.878155535094239 7.827241446101003
Be 10.861734410198407 9.021742629132106 7.902894228695639
Be 9.587911239912676 10.39450355713322 6.900283009077288
Be 7.8316777577334005 11.12637359532068 7.846267580616756
Be 5.954927232459394 10.032619169449967 7.747232742837671
Be 4.242497549006681 8.701495679960304 7.64287716188992
Be 4.843270735992936 6.663609499273206 7.612360523877732
Be 5.623269782688468 4.705820579526773 7.588518892471958
Be 7.731866734710529 4.662506489583684 7.664761585962812
Be 9.511203162658546 10.337494746127405 8.870531885663777
