29
Energy = -80.1676658 eV
Be 10.145351637144655 4.885884462100832 6.308689158592013
Be 10.10593272252382 5.975722988514093 8.017720225455697
Be 4.254679664099045 7.776970316317405 7.8706500208980845
Be 5.363839588504985 6.234752280481048 6.402363992519585
Be 8.175164418699707 6.689009545094966 8.665265226121374
Be 7.486261154616961 6.792485117669515 6.555824347093951
Be 6.18143744932492 7.282996358410062 8.405411623885843
Be 3.51470643134854 4.815399495483315 5.663042922999799
Be 8.57577417290852 5.506417532326989 5.1097321450414555
Be 9.818753889240588 6.942716897739481 5.943055395925946
Be 6.5690437781957 5.293341491079907 8.078121036508207
Be 6.693177283972127 5.97151948016194 4.516184444658593
Be 7.657889228775011 8.711200458349197 7.707002999041964
Be 3.059427425622196 6.419058340359357 6.979508852356671
Be 4.576918297524759 5.812754456028486 8.46462160796705
Be 4.615020443139385 6.282959331875217 4.294610520715516
Be 4.081541376372869 7.9343488501940485 5.731205331555895
Be 5.9537525252513745 7.865239306755688 4.754534847932718
Be 5.803216321809006 8.555434497748971 6.768583926229247
Be 7.227850230462199 9.283564568360443 5.552035231467105
Be 9.604632409193725 7.903243882501858 7.807593513991274
Be 3.183365114711292 4.52411301945417 7.663235140875556
Be 2.741154969363432 6.542779662835739 4.986004384075546
Be 8.133514119366785 7.6104575652087325 4.59003803594625
Be 5.091960843518952 4.150698243934225 7.0378252913716945
Be 8.525440908317838 4.832057204233229 7.500940418523884
Be 9.063974493039108 8.857989236669278 6.101042224827756
Be 6.971939224601289 4.6331094836782265 6.137872907314396
Be 5.342654262985657 4.432150311067895 4.905658610741392
