26
Energy = -70.69510991 eV
Be 8.657159873640307 7.832244313305853 6.857070748598495
Be 9.509442506275708 7.110137829083939 5.0585481638957965
Be 7.874700416636772 8.40403736335591 4.767428039950217
Be 8.283966258845172 6.695947790112514 3.4885516058373627
Be 7.364457180852098 8.323332005244646 8.56129009314566
Be 6.4321748863632235 7.548738753258334 3.493988738949931
Be 5.647763185143547 8.283947468379017 5.3225193435782
Be 6.2100799454238516 6.594734183833666 7.5704989448215345
Be 5.478640743433726 7.975745472499688 9.401293936965546
Be 4.260481395924991 7.076181860517426 6.267981664405225
Be 5.147221770028892 8.640055203861474 7.439620160683784
Be 4.928629743413924 6.441479156121528 4.428758034767533
Be 6.64348827461043 5.470442125906457 3.9335255044620427
Be 8.57203113814336 5.194231383241332 4.921337147707005
Be 7.585881644056668 4.855633534040702 6.921386961473088
Be 9.386725333057202 5.804134277376698 6.683631300131202
Be 8.454757161365784 6.469906243696588 8.400313555596313
Be 6.980701915137648 6.70867684111671 9.874744882862725
Be 5.176510563291865 5.735965391930701 9.374223297038299
Be 4.086221325577143 5.3664088554093965 7.371450404563142
Be 5.55040074986339 5.132527209753774 5.8836520469353735
Be 7.131481636031151 6.623849744569712 5.714580078257039
Be 7.283970212004742 4.911423811869913 9.00411627672749
Be 5.758538087508319 4.3327695891232025 7.814944435219791
Be 7.013252766158945 8.981839027636122 6.634402280850966
Be 3.9774734844129513 7.131050684227083 8.350931344448593
