27
Energy = -70.73733864 eV
Be 6.824153874395517 6.365169693413089 5.9254827204051965
Be 7.827427485145078 5.296368973673097 4.2660851562861675
Be 8.025517040818057 4.867388868059695 9.07561328073999
Be 7.470928695933221 2.6759171710264122 6.539857358017361
Be 7.1505386115381 3.129272882152722 8.618605034746887
Be 5.958693557475229 8.440463171525106 4.240987924565449
Be 7.548890219383658 8.24385856367826 6.229659531929211
Be 3.5208309927951955 8.233629869582288 7.045388240106787
Be 5.158376699696572 5.474909535830914 6.62413601479541
Be 4.490502100060598 10.09236147452115 7.153919496994978
Be 5.134123113061385 7.535605861017656 5.916089339123189
Be 6.127038988497291 8.828052486820617 7.653498596926938
Be 7.617204755080312 4.972869762794214 7.0988838295276455
Be 4.33682059057721 8.82912914960185 8.783197346492772
Be 8.73901556500041 4.04046379146268 5.634061480583304
Be 4.913863118820699 6.964178864838426 8.065186334549054
Be 4.250270648894982 9.301272702174183 5.318932444151628
Be 8.968175149352538 3.482025959883727 7.710740475587082
Be 8.800297494838679 6.2335248860449886 5.803881392132437
Be 6.470679003535519 4.2413832640878475 5.371580716061009
Be 7.050957667950855 6.8509864667795375 7.93457165252889
Be 5.995479109997488 5.105573503760247 8.554834452872567
Be 5.905319431354289 6.248031789609757 4.231580889586347
Be 5.749791344838796 3.5024875609599873 7.221831416275547
Be 7.814039132338881 7.367048204636961 4.256769183755691
Be 6.1196476611525865 9.916090777360479 5.837217500043261
Be 7.686706858872941 9.417223676109456 4.54269710262109
