29
Energy = -80.39113517 eV
Be 8.991093377300201 5.824961312925014 7.5062915635591985
Be 7.859277048471555 5.832486904363342 9.228961411691074
Be 8.276920408943306 4.940317105019333 5.7313640755373605
Be 7.978987086987953 4.039469888557767 7.723393513468806
Be 6.566624263668942 4.683975635344441 4.12856519721233
Be 8.102836772954001 7.666178684282185 8.019106030416273
Be 6.9597718311219365 4.022418023825868 9.48787597506897
Be 8.120853878205244 6.235484389765014 4.060247850095498
Be 8.453836761021295 7.058402669832532 5.991509131572009
Be 6.806669261707446 3.588688338652462 6.060736726855718
Be 6.552074582339918 7.451352500483522 9.302631975020445
Be 6.631147862404558 5.808461324284508 7.330820148880963
Be 5.764789699209105 3.7897543862811895 7.852069818631352
Be 6.463338055733937 6.233446946188161 5.325358348355375
Be 5.6477572378084115 5.575330375985619 9.349635124415261
Be 6.367066800931968 7.699082478470117 6.572924206808767
Be 7.552464838054777 8.219150144849324 4.532366712216799
Be 7.933326822958401 9.067748920851649 6.432379881865705
Be 5.043295692634171 4.570747525455239 5.9105692454992
Be 6.277502906929764 9.148626699749551 7.879950951530426
Be 6.2734742321789865 6.871726773617244 3.284681840061313
Be 4.86038661673526 7.292281888852965 8.200839845494766
Be 4.3604902394746015 5.297792911421917 7.762533815114276
Be 4.712397700452266 5.8511413623317 4.251522808277867
Be 4.416862848492742 6.600726555393926 6.216842357961387
Be 6.092950827753674 9.568183398077482 5.545601470724084
Be 6.045350140170695 8.971678242169759 3.5024078997979986
Be 4.526636932055875 8.679433163588653 6.629811795468843
Be 4.867258664934827 7.916394841016014 4.684443670033336
