28
Energy = -76.65893226 eV
Be 3.8691560398205946 4.994394391027348 1.2626173963292973
Be 5.708312333600911 5.815745375226431 1.6107610370638044
Be 5.5271272928117146 3.7594470231185246 1.2727993577164753
Be 4.1295435515626195 6.574880336855059 2.818518075982681
Be 3.448275861630343 3.2405451730146813 2.3458954167284705
Be 2.615858588617735 5.182345445469983 2.8616731659699606
Be 4.812419141227972 1.8777448969385424 1.790579290261009
Be 4.896460840205643 4.433503133199765 3.346154309605873
Be 1.5110678941971725 3.335374119228914 2.9530467463579497
Be 6.595827303433278 2.539139206438088 2.525294428146115
Be 7.075523867558237 4.577013184166107 2.876571167323043
Be 6.096875668898404 6.477612718848239 3.463435927564067
Be 4.849224019686086 2.298802713333385 3.8267742199670844
Be 2.792800849976134 1.783968927943164 3.716452143664337
Be 1.069497117073532 2.946141202270646 4.912408702879994
Be 3.2037213099633037 3.844148296325349 4.5203776614525095
Be 6.721933442300623 3.1322868480132215 4.444694229748851
Be 2.1122682168488085 1.3364394141873421 5.617379307474498
Be 0.9410847448785726 4.914101314786488 4.10244318456781
Be 6.609212334700604 5.168799350027385 4.881495016078034
Be 4.561082067480927 5.922199149004147 4.8526364214424715
Be 2.5104789133430807 6.090497993986372 4.762439127068466
Be 4.0278020430944474 2.009625130560707 5.6972280204623145
Be 5.120628010241326 3.88550252179755 5.505224066034501
Be 1.4270809637876494 4.800776668734351 6.047070981699018
Be 2.3857107339481702 3.087695826931755 6.664463519180449
Be 3.500450133257689 5.0353343877099626 6.429966786123572
Be 4.270905780890543 3.3262643158915566 7.281929358141876
