22
Energy = -57.64826428 eV
Be 6.172778952190931 3.8346853614233627 5.383041798263511
Be 6.760435140347884 4.893872199632295 3.764187026352064
Be 6.741461072460127 6.701882396264979 4.79205711103543
Be 7.274827812676301 7.80647015136119 9.00171797748462
Be 6.050537634601198 8.973093800062982 7.78863329686468
Be 8.554381150726428 7.552462573311426 5.638593316193645
Be 8.55839052382034 5.9401463044719796 4.127779607683769
Be 6.423880749848855 5.8683876019599275 8.674024737493092
Be 3.7056564717433194 6.190981999058941 6.405495696438266
Be 5.25113675073683 4.925680892452334 6.992792535870186
Be 8.242953691396092 6.674869226686488 7.598684326546972
Be 4.963240661951631 5.458099935991687 4.909534738743663
Be 6.746926281299299 8.629016705455204 5.744438605419417
Be 6.15649839025864 6.950609496451958 6.9101394019718105
Be 7.3062650834940115 5.056977637447386 6.681132902837875
Be 4.309862468316536 6.0773605914819555 8.397710101294845
Be 5.264105231201514 7.663949303725029 9.228713763490166
Be 8.046961238466643 8.723241530146034 7.295491507708039
Be 9.22968953678336 5.619918206531321 6.005471213856919
Be 4.82730486648487 7.511902491058904 5.350308565168322
Be 4.238313104952609 7.915101226640997 7.418953851877348
Be 8.22844369263167 4.085340874772308 4.9451484237948415
