23
Energy = -60.90214004 eV
Be 6.7613018763249135 4.523892832646332 3.320413193494657
Be 4.82046497731692 3.8097973074679725 3.2113841167786092
Be 6.99449002289622 6.759004142944401 3.535678133495055
Be 5.159454016888318 5.923971624414867 3.5793505492531494
Be 6.171929886736339 2.650264454210013 4.38069381027536
Be 3.6486965350022156 7.044640168750715 4.374073754558606
Be 7.693567561236894 5.470495397541329 4.94401781919855
Be 3.515431116392898 4.844006568711582 4.472270347052497
Be 5.55441194392039 7.975497268350961 4.594688074050053
Be 5.670167099293999 4.41980385650768 5.134510864497831
Be 4.1019578257702625 2.8866754881788754 4.970196312281693
Be 7.427540452006628 7.506234701545943 5.408315726180924
Be 5.449615497325051 6.2315804593467705 5.77317963517208
Be 3.005027734309905 6.098054572750319 6.058122770936667
Be 7.299267861707523 3.9552894844481923 6.316076090185653
Be 4.0927575862140175 7.901819150264573 6.204876683520246
Be 5.50018566356987 2.8609657786939526 6.483168134697245
Be 3.996865548728031 4.375814638855047 6.6210375608852745
Be 6.050448614514665 7.906103885621744 6.910322749522678
Be 4.378299591368501 6.3366872432690045 7.614935918052693
Be 7.438936618505925 6.038389413562609 6.889534911320355
Be 5.8302861949792755 4.6867153623503635 7.561640291894803
Be 6.225142353803694 6.580542778379043 8.427759131507454
