24
Energy = -63.02837883 eV
Be 5.065189209177852 8.099470383331226 4.400751842939079
Be 5.99324338660046 6.739458733863047 3.042653009887579
Be 6.1427140355860725 8.171522183126578 6.312883608103712
Be 7.209213039447783 7.943544759238731 4.3967206732412
Be 4.242531970751632 7.032656573393415 6.100346128764803
Be 4.124415903404272 6.1317102663347685 4.153606183965517
Be 3.029576731760562 5.283598608263703 5.849311093634907
Be 3.9206806517083157 3.87823047554993 4.524800091204576
Be 4.028633171853073 3.5188085500956645 6.656971774732027
Be 4.1986813590777246 5.516198417632436 7.705005413858922
Be 5.0535865990487325 4.966145220689302 5.8069396257265256
Be 5.766738832316661 4.712427738883274 3.767167452931591
Be 6.089205703735469 6.154090582867251 6.989789105204219
Be 5.0506425116273395 7.497668019097773 8.085540541743748
Be 6.110366902257339 6.442718617159342 5.060917963284898
Be 7.928506725712192 6.744848448245606 6.099629015951797
Be 7.71584915300014 5.79284445367728 4.023537635040067
Be 7.214325491063884 7.479705661089089 8.05121206051394
Be 7.265021791287191 4.698672319110751 5.88574353833108
Be 7.435987673671278 3.66919061200226 4.13619447329868
Be 7.74450699183654 5.393683216302108 7.894833088542646
Be 5.92007883662224 5.726850108595657 8.984455785071098
Be 5.969886874751455 4.065840921828573 7.4991134691844366
Be 5.787151031123235 3.1267060225023955 5.4012750384428925
