28
Energy = -76.05356213 eV
Be 3.6132259032262133 7.056104516326684 2.945356918148256
Be 5.244532943492062 5.759455107538917 2.3323327883025486
Be 2.9956037850862596 5.066913869081224 3.0300079431092555
Be 5.47315077595237 7.555752384935594 3.5742944693065493
Be 3.216522499727646 3.125133221031979 4.020726510962354
Be 2.2670026001868226 6.607677278866266 4.411491047542079
Be 3.9906364381237727 7.621523338469018 5.132609339313439
Be 4.6061885741861746 3.763997078924502 2.7669829893648714
Be 4.763012829411278 5.627556835295991 4.27892537945154
Be 6.963352244945882 6.1060801888342935 3.867207374597628
Be 6.429384405963012 4.101582262740147 3.6027180315702725
Be 2.84480406619325 4.821971246040546 5.2144775578362035
Be 5.432404899371608 2.283409300891805 4.099482970282159
Be 4.711767423745923 3.815443675905464 5.18200937163544
Be 2.810274532467681 6.51828536970053 6.472929196782584
Be 4.593424502223234 5.624505083714711 6.292049305943648
Be 6.080448517438953 7.11662849536735 5.543521454365833
Be 6.330521178624969 4.989025795595471 5.553330875276542
Be 8.21568110134944 4.438130468047268 4.760259932792593
Be 4.792906616158939 7.367333044810993 7.227706534032241
Be 3.8151712088680925 3.906114905786798 7.042438294731362
Be 5.179797201487992 2.2395875476791915 6.321431668868142
Be 8.017384914292764 6.239647472231265 5.825449736129491
Be 6.919101127461808 2.9251103022290774 5.532165509852803
Be 4.7995093559077135 5.4922803884196085 8.261001354343463
Be 6.566271518580324 6.046404955867165 7.402953970310848
Be 5.887348075999604 3.9042745876752236 7.372315142746549
Be 7.943753196957676 4.394555470913302 6.80818812640855
