27
Energy = -73.3754707 eV
Be 6.928394628916628 8.746897497501704 5.311718948040696
Be 8.14679029971738 7.392269915068247 4.292062869781028
Be 8.387388151396285 7.941065419666142 6.4865631101361725
Be 5.928663127001695 7.445440940727679 4.0239955097295015
Be 6.610314999064333 8.846526493697137 7.351313393849957
Be 9.036257524854799 6.121161737403648 5.752996458592412
Be 5.173441098986818 7.957219970178175 6.026373788930133
Be 8.081328302615683 8.026934775879672 8.520220881280162
Be 7.13755021739717 6.492923489189529 2.628504458054773
Be 6.797301045618331 6.496459343250335 5.8606931692090924
Be 8.407848175083847 6.110916687169494 7.690063960955205
Be 8.018310258319529 5.27015109984447 4.200108625101782
Be 6.236987347308414 6.739175052505308 7.850338610445678
Be 6.7636212034003265 4.477592616013821 2.687157860521074
Be 5.2691225796463685 5.701015259322296 3.04285803289534
Be 7.648420961646148 4.5947277989243664 6.35220162259437
Be 4.725972329939359 8.35762564835896 8.018425505755442
Be 4.739611155616749 6.024862239407897 5.125715697586774
Be 6.158165129320947 4.510904850875023 4.726609620389186
Be 4.22616285032424 6.4457196772872445 7.133603145605363
Be 6.921429799177355 4.780508155252735 8.37603412427957
Be 7.597946213717573 6.416640955115201 9.630037297805146
Be 6.178386570923059 8.037276766285395 9.553161043958356
Be 5.5594014048115765 4.830438087255845 6.7233396263174585
Be 4.285951250003586 6.8923094346039 9.346914363018422
Be 4.7733030089639 5.024007119265838 8.629417399835294
Be 5.77158286018355 5.828881463905582 10.169223369287423
