24
Energy = -60.82054951 eV
Be 6.407495935128656 7.156311628896747 3.6671202510154717
Be 4.615386286162281 7.567498911606331 4.725704048122895
Be 8.196153886083986 7.042614430144885 4.6383295299697505
Be 7.392810506529081 5.251766126867606 3.8489396902747335
Be 4.586108675334594 7.197005809998692 2.7157815231767133
Be 6.54583894989862 7.7295366883249645 5.745637234621132
Be 4.610459929652114 7.562695741834617 6.783340286044414
Be 5.298563401007177 5.319702662766187 3.257348137734186
Be 9.097905401674765 5.285624867730247 4.98911286620014
Be 7.796876270466896 6.054066876538016 6.446713203114872
Be 6.260363388105684 6.706596729553996 7.650577745300822
Be 3.414145116890983 6.06313190576156 3.914517520314919
Be 5.690499792105456 5.656275476649127 5.513400371656543
Be 4.628666945958223 7.282168127240228 8.85966673194011
Be 3.5137720379028794 5.819584260532486 6.05248945266379
Be 7.621698255420865 4.068900024272289 5.736670409986417
Be 6.03661293786436 3.642301415244486 4.407428665943782
Be 2.948022063879228 6.752206545846864 7.925665647196685
Be 3.984646105453872 4.237131702554235 4.577223525134479
Be 6.471404913427875 4.585021436078591 7.406891257439865
Be 4.557567096418546 5.49844407289868 7.922399446123739
Be 4.5500986993258214 3.931501021415503 6.579334216714326
Be 6.206805371848563 2.694938912524928 6.34908964820791
Be 4.600389437736992 2.3332418038543556 5.219840442040258
