28
Energy = -73.11920889 eV
Be 3.3044370720902654 6.694956195969978 8.139458046655557
Be 4.892547814232563 5.25836788012288 8.310603681587892
Be 6.44212898606254 3.8622290411743223 8.470093895804634
Be 5.191795925402159 3.694692044464637 6.858303926380797
Be 3.498969816170169 5.070429197950498 6.7514780006488095
Be 2.142555863448822 6.708119863517234 6.465782595369821
Be 3.976490459570332 3.706361727283719 5.111382132525593
Be 2.5279568410330953 5.2859882127117785 4.902322681136168
Be 2.90563687362234 3.901906197990704 3.379921718777114
Be 3.4699441569093112 8.217545284777067 6.7951950724638435
Be 7.321674641093799 3.4936688837078886 6.607686976909252
Be 5.192811518932152 6.996562642176661 7.169976886268817
Be 6.75339056356332 5.470891985165074 7.245709442580872
Be 6.09181752098374 3.185475175702308 4.93479343959982
Be 8.223134733494627 3.1217983833161043 4.694425032775523
Be 5.22911384424734 8.359599229161358 5.572106480408329
Be 3.709179619768202 7.016309118889567 5.0336211511658036
Be 4.1706054740389344 5.502344980339226 3.525553111555293
Be 4.955652218094061 3.523560916370031 3.20184039022207
Be 5.428727633671866 5.4187144276455195 5.406709594260331
Be 7.786968125585636 5.11475286363024 5.355218211665977
Be 7.060222476222382 3.1352982099721833 3.0217029384597773
Be 6.30292888361115 5.133771657321191 3.213975574015251
Be 6.9265028630000405 7.061349825792075 5.843286256696774
Be 6.945874050908957 8.493992011964266 4.384029864182784
Be 8.387903853907385 4.6453783003494165 3.3507913102633253
Be 5.558265444647345 7.079351966796423 3.8715355968794523
Be 7.658043379958645 6.595625367155611 3.8714407728308693
