27
Energy = -73.74546043 eV
Be 8.762309446542261 4.475730748557625 8.279795808122422
Be 9.813876033211434 5.272013621621404 6.585256584956775
Be 6.698673504076725 9.506696470737973 6.652060509844637
Be 6.137283698647777 7.0018315200824475 8.95671429466056
Be 6.064633389291473 7.376082316024224 6.691760966210786
Be 3.14182765919058 7.549831868507231 6.191961677340767
Be 7.516483578493498 8.376644272845597 8.277424823740478
Be 6.32407378223502 6.744245909129314 4.589711728918004
Be 4.603198283604558 9.036578155772606 6.3643212999913406
Be 8.756342283806275 9.20457236473665 6.810334167443359
Be 6.873066646068886 3.940315487302618 7.55202841325886
Be 4.52611842097208 6.068052388239629 5.881950302665984
Be 7.838802869318801 8.007366764604566 5.450487499553903
Be 5.428160528030522 5.481265265198043 7.715478451966663
Be 10.045163083735355 6.152237673321007 8.336077874528947
Be 8.346539819252246 6.702499188187926 9.410656372195392
Be 6.038897629693494 8.894953373017525 4.809812583505137
Be 6.4583177280960316 5.12588430624531 5.895529972381029
Be 9.646723973240857 7.346607001791197 6.424215640316477
Be 6.9410170908202256 5.102188640190061 9.169310069705539
Be 4.435544470871463 7.715711916712719 4.635987744275426
Be 7.776518736744973 6.31423353988681 7.328404945548777
Be 9.597646396096435 8.084500172782462 8.381336830632547
Be 8.325330107367607 6.018243683432518 5.179375918683448
Be 5.4671337141866365 8.867012095881273 8.240740013168189
Be 4.256497861388009 7.236978452819089 7.8553224122991345
Be 8.260821644668214 4.112478217259297 6.129891815116695
