25
Energy = -63.60282988 eV
Be 6.758877262017469 3.7796680799753757 7.853863485002947
Be 8.132927253630049 4.7630957298624494 4.65466324592323
Be 2.869150873259329 7.805903258760345 7.364421451380975
Be 6.625990356437916 5.970961838564276 7.7772733070154665
Be 7.386290735866592 6.595381725110624 3.4798353288714643
Be 6.837724835840062 8.158577383455281 6.811558708604348
Be 5.541483675125113 7.528995422325647 4.073715470944027
Be 5.268886379381626 6.585793302774652 6.084533056122151
Be 3.248432932304342 5.943671872364172 6.615268009322916
Be 4.823350240901349 4.823140241348709 7.51374053753712
Be 6.386572051884934 4.68792362027046 6.109764105396396
Be 7.112078602891875 4.660101341864603 2.8513657974159194
Be 6.428171173854029 3.5265789103641354 4.454409821477791
Be 4.437499761771277 4.546956560951408 5.504945201820314
Be 5.777434429464211 5.462881431991637 4.195058482492401
Be 3.7539859821818093 7.8940101949968104 5.543853411843462
Be 7.278425549092221 8.370167301306791 4.714303561310807
Be 6.011198577148354 7.793999843546809 8.654412227735513
Be 8.735252268326661 3.567860532194259 8.004170362066512
Be 5.463136421763064 9.048451514524302 5.446411326240469
Be 7.379388518484157 6.5157983741558425 5.589966940032319
Be 4.379277430181534 6.697227173392861 8.22619386148143
Be 4.750494027134379 8.663337592403717 7.319885371073283
Be 8.419451755574668 5.151377479201164 6.827602794689784
Be 7.987290896805404 3.2509112656156645 6.121556125520943
