29
Energy = -78.85288278 eV
Be 4.483504475906406 8.610350100987672 10.520640947320684
Be 4.144563316123858 6.3982704260015915 5.777143583599082
Be 9.369386959651035 7.296490286347133 5.737831723504741
Be 6.755546756666938 3.6854011763645693 7.566026003789479
Be 7.210355467302264 5.193094821994688 3.7461127849809785
Be 8.535542984331727 3.8884453194276034 4.607899316326251
Be 9.231676586883536 5.76672545667843 4.224909871998993
Be 4.606081618595431 8.37509171607947 4.976925569757513
Be 8.41419952408478 4.8528204683367235 7.955434422319024
Be 9.53539033460347 5.283304693638549 6.210974678741679
Be 5.4478842579581475 5.169904196133366 4.685631328856407
Be 6.61389575293819 3.5390372460180752 5.402056412307506
Be 3.4851999254833577 7.738597083160619 9.077296509530036
Be 6.115409674495319 6.985479113204301 6.198663636390273
Be 5.439364068818013 7.035573854527069 9.635536546499464
Be 6.514180478420326 8.84734771608962 4.616913832919114
Be 5.322537399378774 4.824936863836429 6.634965714405232
Be 7.376943241908364 5.388621850285815 6.020910453440777
Be 4.111364495047402 8.149604727916643 7.018273344477981
Be 4.85304184627354 9.237683927070538 8.607263435228415
Be 4.520449364173311 6.31680923559146 7.9019999715887534
Be 5.735382310407725 6.996607514153398 3.8984610446868193
Be 6.436821982828752 8.004247016166069 8.07228624339386
Be 7.694412606166317 8.539315884084676 6.28698784463189
Be 8.489212834662192 3.3517611887124774 6.549780461822659
Be 5.746660891804606 9.337833452954872 6.523668291935769
Be 7.668891225517579 7.09125984834095 4.628102295271148
Be 8.183517186732695 6.8650114010145025 7.375804980403222
Be 6.544417123272404 5.816208105318577 8.127333440308139
