25
Energy = -66.4966144 eV
Be 4.491543382114645 4.9339720050992835 3.0221306381989703
Be 5.852190948403741 6.45175135773853 3.301430785491555
Be 4.556007618752401 3.235385310157768 4.188223601204334
Be 3.9067905878804376 6.568953056606872 4.22726532904235
Be 3.100764960696729 4.633188621856991 4.528302897940436
Be 5.117654837563696 8.255930015334355 4.021985640950999
Be 6.335979313942578 4.37300833311338 3.877387590944132
Be 7.125923753411614 8.00792981384228 4.057029197596631
Be 7.661047904124358 6.004566418855094 4.278765784177144
Be 5.927270010180451 3.0534174470210482 5.713491730237161
Be 7.803266555822585 7.446565658542528 5.942416131072986
Be 5.638072352388453 5.577334245401211 5.690224315639725
Be 7.647732752204408 4.269832642239454 5.5004483901213455
Be 8.999168895427465 5.76847239366146 5.781101600716729
Be 4.358818604754898 7.7247955074383805 5.956749220845551
Be 3.2474450156064982 5.894936902012332 6.117938604085844
Be 3.797241192843858 3.5079895331036557 6.149411559383958
Be 6.171410156385945 8.743585042183497 5.73756239711658
Be 7.008229336422762 3.763290146157466 7.347036779164598
Be 7.53983139807437 5.753485399225672 7.173283261965048
Be 6.16217705319936 7.336285509315097 7.289861603112884
Be 5.706308149338736 5.281818903864308 8.084091460197767
Be 3.6843134255581265 4.691534971453333 7.799909018264174
Be 4.249916127676152 6.705909850665854 7.736054226788772
Be 5.107787205089349 3.212952452973618 7.674789773603659
