28
Energy = -74.88773608 eV
Be 4.753837521131063 7.491083279223988 8.254696435467961
Be 6.192667209417035 6.322193619991525 5.181259122496826
Be 5.967730828532058 4.367472714482673 4.318160163604256
Be 7.245558381806853 4.4779359654740105 6.166441665955968
Be 4.858734878581144 5.83683369457825 3.1020884382708047
Be 10.075251913189426 8.582141726712237 10.985985347223535
Be 6.871327513468193 5.741842291465371 2.8288919501376655
Be 4.106662892683785 5.264338223690595 4.874177494383608
Be 7.942383856127234 8.14947004519985 5.886685446443271
Be 7.872271326133952 7.185005048373785 4.03704128769087
Be 7.979995144481026 5.06794227075266 4.348505718573623
Be 7.581649731878381 5.841165800845688 9.342144055783299
Be 5.2350576244808655 4.5596685907132946 6.409385618402311
Be 4.44349689455621 5.338351759303645 8.108091122962342
Be 5.57285820330767 6.025535680741655 9.585064325948517
Be 8.608738664721336 7.553784542423464 9.884161788776117
Be 6.638689872499104 7.712977384659626 9.153423162631436
Be 8.49321353319841 6.225242531887297 5.930296445776211
Be 4.738671484266112 8.394153141843423 6.337883703122536
Be 4.144591431399623 6.479758810641904 6.474474787034245
Be 4.379846586635048 7.359947667592567 4.500434384443685
Be 6.434109403492559 4.457010875558252 8.245442157243962
Be 6.433643923880676 6.37106997155697 7.267346966801206
Be 8.310054590803555 7.315173051707449 7.779471269595178
Be 6.22385909506034 8.580224345535484 4.954450331892446
Be 6.515501865230066 8.629781606543563 7.268969273895434
Be 5.991321982843687 7.56263410257293 3.1415153750138214
Be 8.431891357199213 5.150878966931848 7.677129871433019
