25
Energy = -66.64209119 eV
Be 5.6414417311236775 5.273987521386038 2.9574616602372807
Be 3.6971558865152194 5.646148701667914 3.3952856852296955
Be 4.897431493518101 7.274240921979654 3.670200588779122
Be 6.800843103826305 6.440737227304859 4.141336033881599
Be 7.737432763007677 7.4718190038557974 5.837446710772999
Be 5.077606587249537 3.6385050100153298 4.206202465410295
Be 4.475963976072821 8.911241246156624 5.282092925125861
Be 7.021619900877741 4.320125649502534 4.330249366218466
Be 8.50106619203422 5.7002682001012674 5.007510739828099
Be 3.453352998353579 7.15312871122662 5.108916709812411
Be 4.8750554908763135 5.501657410820237 4.998940780916831
Be 5.671447075575492 7.290379139735011 5.716318206245833
Be 6.369195018267319 2.870937122609198 5.651345345780525
Be 6.52219037552759 5.423152368074624 6.234077304982948
Be 4.806078593175394 3.9673355799351926 6.480718915781771
Be 4.197013774361185 6.107635829545656 6.892443052978063
Be 6.967487511491563 6.984546219748141 7.7586855459228
Be 8.062702678426025 3.9750275557514976 6.332757362390985
Be 6.496617449476617 3.3843144301788035 7.619252577980962
Be 3.7606408732843426 8.168878776816433 6.95618072577083
Be 5.502028410884834 5.148458856330119 8.22140855817269
Be 7.5403079465197225 5.013463139042796 8.257641778449617
Be 8.741197852327149 5.9906936624165485 6.980913597423186
Be 5.019573188554461 7.240045834922299 8.401159809288174
Be 5.767124283069976 8.70584703527442 7.1640287070161115
