23
Energy = -60.8064334 eV
Be 7.618241732750972 5.911702139835541 7.3305963752781835
Be 7.093993168879804 4.392903014348638 4.043523865539218
Be 7.46109696949803 6.080623807305503 5.241516024046647
Be 6.945165688795605 4.275057990158418 6.1457127260160105
Be 6.660942263846302 5.0773084940639475 2.1185125145943604
Be 6.448519772580503 4.497937305727267 8.219807153275116
Be 5.569643417087369 3.570795126479046 2.953541076670961
Be 5.731877452320142 6.153946972147263 6.63593360354917
Be 6.570878634887745 6.597691190268973 3.477747985629384
Be 5.285322338106594 5.322272726476903 4.786108487800462
Be 6.099126736107674 7.65252315512448 5.222830584606411
Be 6.011874078342811 6.342211991286522 8.84969774530247
Be 4.7416072022964215 5.525298241460433 2.68237109001433
Be 4.982674753745541 3.9149586032923347 6.924163395566988
Be 4.661261844438485 7.360984211755119 3.7076175004803855
Be 4.270178829648103 7.127702790995721 7.698291787584545
Be 5.448623311169499 3.1611854793965497 4.968808481454438
Be 4.422775526261921 5.191408538715515 8.433355133166884
Be 3.221593049136306 5.791237985804784 4.367251195048829
Be 4.090433134460108 7.309866774536304 5.598918874055502
Be 3.6976383149027696 3.9440383721132304 3.548592343150523
Be 3.58214840548464 5.541841315073269 6.455385353535318
Be 3.4720399705697593 3.7474554941047775 5.488031904623998
