29
Energy = -77.82780863 eV
Be 5.487478979601791 3.4115729253702636 2.8841784284892693
Be 5.699085890176264 5.231720337842167 4.241192599454908
Be 5.943190036634545 6.851446524224348 6.941895750529362
Be 5.680702047206872 2.9818247025982396 4.990120033521813
Be 3.918780310570905 2.9902481820090885 6.43392060598035
Be 4.760959499262316 3.6892704928861395 8.305807101639916
Be 7.856162989174344 6.030206568716259 6.538440850575676
Be 6.810685812168213 5.062848405445572 2.406164552282838
Be 6.54970463939479 7.074623121418857 3.334165277728096
Be 3.4520393669434606 4.761938771073703 9.523508689287528
Be 6.052239286714423 2.941914789826575 6.991934037345285
Be 4.40930619134405 5.147804526404654 2.3989944009592703
Be 7.1934248638980876 4.204389816393266 5.86234977585319
Be 3.668306152256406 6.024149815948669 4.552147176616144
Be 7.272666101924339 3.7087954932190876 3.877811659125283
Be 4.921054082933437 4.846994860066361 6.18811084632844
Be 4.461606464744063 7.115875107136292 3.0521851669191387
Be 4.7097737577727194 5.76890376438387 8.220302438539136
Be 3.085931470073044 4.668671134419407 7.520128802558718
Be 7.877582611370288 5.706030015811628 4.3279902663201195
Be 3.376439070410576 3.377675715610577 2.3543092300441066
Be 6.525306941440609 4.854186059685242 7.772964892181739
Be 7.178803882215903 7.421112748311152 5.3132719349210555
Be 5.144675692354132 7.340088262324695 5.054038328765044
Be 2.502653550514635 4.95590454728285 3.3164569711287486
Be 2.6129307202415997 4.67679557552859 5.5737881309135
Be 5.706847912719912 6.549594166706712 1.5177413621810447
Be 3.7033642553600834 6.567015979559953 6.545166890095427
Be 3.926941436192362 3.758689530614702 4.315557058746908
