26
Energy = -69.37386272 eV
Be 2.4716779898607326 3.4707039798263932 1.4592826928714222
Be 6.382345557991875 3.9658580279258233 2.5076676823833033
Be 5.230518741845361 5.167211788465858 1.3406944486780297
Be 3.266006210795719 1.6544552910820023 2.3561802694768845
Be 4.775651298905328 6.94704806952768 2.0754451937815492
Be 3.327035323731341 5.32796715197655 2.2852548709194047
Be 4.218811148772218 6.59782491070004 3.992094741131282
Be 3.2015953162220048 3.161936722350228 3.781389156658634
Be 4.434148916736359 3.3575030489056465 1.8727651958254519
Be 6.555555345576225 4.00005716491957 4.618668904014132
Be 5.413217146953676 2.3050094716076304 3.2913163201286646
Be 1.2767563537673847 2.439532097966896 2.7762780396005855
Be 1.414379905589543 4.502187474270137 2.83502792733874
Be 4.656472701155874 4.512150369325964 3.946586211493226
Be 5.026022653616215 2.663614869507935 5.236694103696071
Be 2.5645678326911217 5.2372029177356 4.390489613590116
Be 6.206918549629415 5.921320513177529 3.177743395558099
Be 4.050624622933504 1.0540576436648639 4.2319111774303835
Be 2.0134021632472816 1.381269683963648 4.415912838421886
Be 1.2824116880957235 3.5043849723578373 4.647069204524238
Be 3.14932559661202 3.7663738030157234 5.977817198685165
Be 5.865801824984071 5.973214357318551 5.2313459382727245
Be 3.9051739046321567 5.780113998947461 5.8770625108417045
Be 3.453508945601031 1.6582929877269252 6.071517346268324
Be 1.5747411708720418 2.2772659598798572 6.243497056818357
Be 5.249587322026204 4.339700956698586 6.326546194437245
