28
Energy = -76.45871876 eV
Be 6.570406811848062 3.927001534993926 5.4313930332017115
Be 7.967654860772245 7.63133717565589 4.365886798486824
Be 6.702846956358301 9.196172575786099 7.237973603660866
Be 8.444945010718385 4.434811743798815 6.280362071329068
Be 5.933004649977235 7.002899268644129 9.853076131468393
Be 4.831585448560251 5.311707051979249 4.895483134175981
Be 8.060320898909554 7.864483181593643 6.515478719924619
Be 8.302065255664385 4.67276681743118 4.239212051109148
Be 5.638153401265059 8.754464418357847 8.861568867935228
Be 4.674213715585775 8.509046931443041 6.9455052940449775
Be 4.978598946420783 4.4523453038444085 6.705348430973124
Be 6.263251497054492 8.301599114434325 5.4591711484506105
Be 5.1290770086468465 5.334234789016456 8.654728989653533
Be 9.143295760224047 6.288021489333906 5.619190232736826
Be 4.182567302776075 7.248322107032114 8.60372576097233
Be 7.593124747016733 6.198017182119395 2.836680660762835
Be 8.318897233339275 6.110385942117739 7.538205324259842
Be 6.916826943500488 6.092995073653381 5.614348875632374
Be 7.630379980819072 7.801429901581349 8.689623083402676
Be 6.093603390161806 6.902226984448612 7.440592924309757
Be 7.196288542671519 5.655168287615557 9.16136186180806
Be 9.421178244762983 6.258283617375566 3.6025437951517056
Be 5.953850441750299 6.9362670125173125 3.786851570614792
Be 6.8199453159483765 4.573253192142051 7.4943101002994466
Be 3.9427986049497084 6.190002701015556 6.894417784489758
Be 4.4000609855993975 8.270426746004926 10.37266915953337
Be 4.549829044577514 7.271261491830273 5.3130958598780795
Be 6.337696988404579 4.807536352516508 3.5836627200165783
