24
Energy = -62.40086227 eV
Be 5.627268344889855 6.410961732526214 1.5138382263081145
Be 3.8172802542636255 6.897267749094766 2.0329482772660814
Be 5.361222492847211 7.2575768179831 3.424714996195293
Be 4.355761357237268 4.95968527873987 2.1089785888620667
Be 3.800203514122923 5.848873801425788 4.02990308933961
Be 6.135351037907131 5.2084559641128925 3.3508464726165927
Be 4.593151871561066 3.837427809697325 3.991009393894469
Be 6.4583913632389525 3.430117050959096 4.65205288560306
Be 5.39191935331554 5.292863105400619 5.353434739890041
Be 7.69168159227046 4.986309348673305 4.781792588645098
Be 6.863811411615071 6.873548273313037 4.891967726672902
Be 4.83196414147074 7.427723815055551 5.484546295863754
Be 5.087168204451424 3.278854438206963 6.240601766344308
Be 3.3787046117038764 4.286102882855185 5.543995930205358
Be 7.161734506341088 3.939801253367436 6.553279820348364
Be 6.442570814709105 7.69244820176825 6.718391259368703
Be 7.91019582288139 5.995994908893984 6.51993308047828
Be 3.2792657689011566 6.205898968380533 6.060899917607352
Be 4.4691116448087485 6.948128814898057 7.5230875433837125
Be 4.051973686715081 4.793209927960816 7.45450303515923
Be 6.0342078297489 5.744855984572974 7.178917780601543
Be 5.739479406823558 3.595473367226919 8.190350812970738
Be 7.317395004054986 4.82551018514991 8.466617945227204
Be 5.314018914611345 5.376743270227015 9.047220777638978
