27
Energy = -74.09351268 eV
Be 6.795272422232207 4.5501897547769765 4.4069974917311034
Be 5.117905366895401 3.7589503067817938 5.533833916902047
Be 4.695935608206599 8.071564066832288 7.003977610278244
Be 8.419825487632801 5.430517897862487 7.53660957878304
Be 5.451507381655298 5.999326877100938 6.2525503709037755
Be 4.605677347001436 4.543305602476642 7.460386607687069
Be 7.798533173466961 8.892637008199012 8.633806824399072
Be 8.370207448382896 6.1585245048290504 4.096707324249598
Be 4.009656572785876 6.965524014381393 5.116318815185766
Be 7.217544438569794 6.897564234578187 9.21996855577979
Be 7.36469399703773 6.025551590751302 5.768784147156264
Be 9.046752734637726 7.284187414137527 8.176878387718192
Be 6.509173511793666 5.200861580079201 8.148865730991037
Be 8.69138071537554 8.753366131781949 6.750530658558391
Be 5.069711069879466 6.5497956815814735 8.48789092744775
Be 8.736301916420535 4.638965061608029 5.570676566165092
Be 6.877865481927309 7.281242313235435 7.211427602605608
Be 3.472194230045834 6.381774468686937 7.148807251802539
Be 3.427059289596184 4.968066274646587 5.700708908323318
Be 4.760509530618399 5.232141317316385 4.112680653299912
Be 5.801805663508629 8.086976873075702 5.33530005069011
Be 9.284153713877236 6.782275741347819 6.0791002328558275
Be 7.798770268396499 7.992488710634456 5.058139966449258
Be 6.27631372522991 6.622356716078197 4.030820714353891
Be 5.816189696996612 8.491338119250479 8.717793163062375
Be 6.89845575303877 4.072859695226915 6.519570695086571
Be 6.629464957879581 9.310509545832273 6.863728750624061
