27
Energy = -71.58351817 eV
Be 6.694719364838244 6.308099544432973 6.655054296962394
Be 7.066652976179519 4.558040844653779 5.115315855993691
Be 3.678046945429072 7.242647458759435 5.052723475114761
Be 5.752251477723609 6.292111344542401 2.5133352304073657
Be 4.505668694759311 7.859579674006366 3.302447047625899
Be 8.097561780174772 5.695456916760542 8.187839238892357
Be 5.467879260449812 5.392498601304873 8.115399618373521
Be 8.424734168952385 7.531021060403032 7.194249488771938
Be 7.564741169463601 7.712075785667006 5.2501081282502655
Be 7.408484026405319 7.571069776492357 10.430763142861334
Be 6.045517215962828 5.9570502928923075 10.164546227371341
Be 6.256901113438552 7.280795101611331 8.607080121935526
Be 5.680287547131803 6.487177171366449 4.816645858958444
Be 7.747476079285135 8.77407342548193 8.739793259362493
Be 5.612967959787319 4.676195770299438 3.733351941729951
Be 6.590879878965523 8.494527938517475 6.930029878071323
Be 9.009750977548556 7.221464395944566 9.272592877972432
Be 3.954117822774353 5.865051620857797 3.5396757032272457
Be 5.16326118206867 4.89996587036937 5.990539427834388
Be 7.561330148302199 6.0719622630981 3.8548562415275147
Be 4.888681244414102 7.198198036312646 6.836150337207827
Be 5.417886493077593 8.53276020691468 5.180209377192798
Be 8.498713996706515 5.747714072076932 5.921561758117296
Be 6.512530790774633 7.946970410729364 3.406168940311164
Be 6.959078597329932 4.248884040296205 7.102820995838892
Be 8.084496150498179 5.613738885963819 10.324229904688176
Be 6.848207022293481 4.313693574978665 9.255335710134226
