20
Energy = -52.37196234 eV
Be 6.638099556376982 6.349546953004127 4.057537956353027
Be 4.560235302714579 6.191482328854388 4.955529315250706
Be 5.5404030770986505 8.018845099098474 4.413701487343626
Be 8.656244336032382 6.680370928452764 4.435855633141656
Be 5.827032485612729 4.550283592977797 4.70552146484385
Be 7.3940426322825115 8.01516804425964 5.332365692210681
Be 3.7949193077228776 8.04933463223664 5.474877887419609
Be 7.822999973100172 4.928990987496894 5.116313842989782
Be 6.3072897017994745 6.256112974579456 6.323823061455591
Be 6.578399114517106 3.529127055109995 6.249286055567001
Be 4.769384836002792 4.675554256971829 6.617205742059972
Be 4.21016389684779 6.748876771127923 6.971232707138894
Be 8.49587146439924 6.573104259035703 6.487657574162954
Be 7.375365912517857 8.055010720520666 7.433122438408514
Be 5.592620278959326 8.500102982425071 6.42745755758328
Be 7.983955325855465 4.72227996510815 7.174548439433351
Be 6.269840184588326 4.16826145159464 8.14921258479685
Be 5.064655855630559 5.698610665417596 8.503262851117496
Be 7.1352159686889 6.191073795552216 8.438015810594901
Be 5.548171137847296 7.662772884770771 8.298382246723003
