20
Energy = -48.3192758 eV
Be 5.955447600846677 10.936740457327963 10.4171801544283
Be 7.325036172002381 7.189721002046891 5.925015820381904
Be 6.171712880874068 5.303761589529631 6.06603372262928
Be 6.841792916037243 7.388273467810478 8.90481401058248
Be 5.831116842838217 6.771125812542163 4.354691857082175
Be 8.438039980390357 5.311669092950289 6.268030069666488
Be 5.829173924979446 3.3636652669984453 5.053838745121415
Be 7.295612991037955 3.630436118553934 6.679509216392635
Be 4.645329382027176 6.961466629716326 5.969526595294421
Be 5.533097464744515 6.3529321454891 7.728014549946945
Be 7.771231514231235 3.776486208820925 4.7692045083165855
Be 7.634240474596513 5.727155068623966 4.389053681807679
Be 7.17923935367577 8.743453677844633 7.312037738593806
Be 5.111334359498327 8.348577027162577 7.630964718463019
Be 8.44747913508568 7.074942565348904 7.675538999335285
Be 5.785093151319269 8.57715531203476 5.711588140302837
Be 4.578874221681311 5.148779188078062 4.707319830335512
Be 7.366134071803388 5.436801467183097 7.970483746813474
Be 6.262510476564668 9.408585645449092 9.027416957946402
Be 6.138665232721992 4.689434403444076 3.5808990835145122
