25
Energy = -67.87872402 eV
Be 4.88447883240873 4.150316621870598 8.082811994160073
Be 5.315798478036253 8.413587357342692 7.225459098381554
Be 5.601994741003468 5.54687649407026 9.360939770930544
Be 8.270521502449 7.340310933853929 8.001087378977918
Be 8.43483107519842 7.803502329478727 4.463683892634415
Be 7.0121707670484055 4.1172394376313575 8.536922800875669
Be 6.250797022695467 7.44063056109672 8.849600644375471
Be 4.406228271233047 4.961802975257413 6.266633090528728
Be 6.340661762953325 7.3135448612502705 4.027365695628023
Be 8.701822143835921 5.282056685611908 7.922324784530679
Be 6.627964688818757 9.966263134579972 6.251999938169866
Be 4.571312228258113 6.484335120500541 7.717020413007715
Be 6.906284668275351 7.478630547460363 6.099831408660659
Be 7.894151441607109 5.86731131849583 4.428773524893693
Be 6.5826762298346 5.84753357088319 7.293469015640486
Be 5.35446427950463 8.893247064089577 5.108603622934942
Be 7.19459510105583 9.35547941594196 4.419053785771858
Be 8.872231195677186 6.514138094379046 6.195189012812554
Be 8.502776263643922 8.851244236320664 6.287040569397131
Be 6.079720464515419 3.7450383079667113 6.541320057476491
Be 7.203666455277382 9.051433238572653 7.9625715984664245
Be 7.577156526866441 5.94138056922749 9.47628669254606
Be 4.793885803262303 6.947004253509156 5.61469736288263
Be 7.906553977077703 4.656500140526906 6.0919566070518565
Be 6.08487948997697 5.402216140595638 5.146980649778415
