26
Energy = -70.9034836 eV
Be 2.668731808966216 3.958066899766739 0.7721653577534796
Be 1.987160219833429 2.5441543698649696 2.2170817267757754
Be 4.122421758715998 2.6843490874034046 1.5668547609290662
Be 1.1458173477787685 4.4998205438861 2.071524220267934
Be 4.489890404907775 4.884610319062842 1.3624467309053887
Be 5.787404428449111 5.300006748657032 3.0142666632730384
Be 2.6179210042063406 5.8732133295521916 1.57709796261243
Be 3.2516555818785307 4.1498928413194385 3.0414504560980458
Be 5.490363020922912 1.921342098296571 3.471289419007483
Be 3.611186084266935 1.3737997555118007 3.007565932384625
Be 5.847211932471543 3.4683804309256634 2.23712731571631
Be 4.025048321150314 6.262502888933959 3.068030662435
Be 1.902013346002198 5.804450618581427 3.58535807609438
Be 2.175925883195367 1.9320170101637852 4.26346435227425
Be 1.2674839190464118 3.6999175563916977 3.9944810461087745
Be 6.56227625593848 3.7290033547707666 4.245339322844306
Be 3.4860511945744874 6.131607526665619 5.002727142577095
Be 5.396201691522292 5.498267108326122 4.974698768060508
Be 4.396694661249233 3.5131586028213917 4.633783879261216
Be 4.0668580120162865 1.3864421425051905 5.108624621515917
Be 2.1001392682795523 4.786657905386415 5.460713948470468
Be 6.051447059588536 2.072874971176427 5.476752432956248
Be 2.665640320194821 2.9210408393966683 5.9377730901825085
Be 5.999926155595286 3.9883000144063474 6.279787179500476
Be 3.981801116279391 4.6452312232854 6.47664052469738
Be 4.54061639247644 2.6087790024502016 6.790841596804203
