22
Energy = -55.43820274 eV
Be 3.351995823871498 6.373014441547396 3.911584760670431
Be 7.040336968654334 5.872088142223656 5.47909622987936
Be 6.028105433789371 7.0490041873632086 7.219905501241701
Be 4.11798268294964 6.5070236010930484 7.236908419245245
Be 5.188811307664804 6.55459265047175 4.966735923254171
Be 8.800248198481356 8.80507784236343 6.131492581537936
Be 7.0019571651076715 8.84868180456937 7.179229166109306
Be 3.410945146829902 5.354644663425764 5.662287736981454
Be 8.007936279706838 6.906384406256185 7.139055513492607
Be 9.065032937946658 6.821113028337322 5.488739634959342
Be 9.541282339114238 6.937581321828364 8.987416020287208
Be 10.209038712582693 7.53974127785722 7.140418292611962
Be 5.383529134200779 5.029605474898315 6.5360889552991255
Be 7.43379881234748 4.781687754175978 7.189689859567675
Be 8.869952422674993 8.714779213664093 8.212593063208987
Be 6.935489850642004 7.886467544616372 5.343483080137761
Be 3.086473672304899 7.340479596274185 5.636877045961235
Be 9.550855982356207 5.5831019150353 7.405918531265406
Be 7.366857891164736 7.364180947404666 8.985708086219807
Be 4.927011401980301 8.287988359204437 6.122409570843376
Be 6.041678473430774 5.518752664345374 8.514808749571273
Be 8.123215729314875 5.4065455301601615 8.99208964477068
