29
Energy = -80.89229475 eV
Be 7.664225378249097 4.244639857680101 9.103103267345487
Be 8.592814133195203 7.404723654345463 7.768063360299077
Be 6.5615091589216705 7.726521205215181 6.635148986984511
Be 5.280232648438496 5.752483182343225 3.278966665790137
Be 5.317720268834203 7.632882408902609 4.268304480598902
Be 7.896925822388203 4.853677886508579 5.617227959370223
Be 5.1224959763082465 6.506212521948556 7.893269665933367
Be 6.613316862745266 7.625959300641784 8.84446583149577
Be 4.565432959688272 4.326499124540326 4.517068198511056
Be 6.78687413429986 10.096408265176496 6.334494165337762
Be 6.023585459514844 3.8315673932623446 5.986413976886682
Be 5.965993887629294 6.001997205904863 5.599963306010241
Be 7.115137119376981 8.551729099978942 4.731835040187609
Be 5.709838552083852 4.2918630299012905 7.980854711175095
Be 7.187720424860813 6.511769143185519 3.9832183651386925
Be 3.8432965389473357 6.23045585034167 4.733429917422457
Be 6.614378393029881 4.420920647041376 4.070053047977338
Be 7.553450602730931 9.299258335479585 8.060681974852056
Be 5.154208577389876 9.287830434279059 5.530773572592207
Be 8.966631729979927 5.213073109058891 7.605713507550864
Be 7.685212548493317 3.568785083123215 7.227183276274263
Be 5.379713905474356 9.027771134811934 7.622871805310471
Be 8.468443637533982 8.922929172241329 6.324197795592027
Be 8.277039754521496 6.871809011093973 5.764698139887029
Be 7.065448242842746 5.850830561703589 7.379010922331785
Be 4.311496573816589 5.1072896071761384 6.5308464662106465
Be 6.242037679008613 5.67686055967318 9.501261821224064
Be 8.1706503669212 6.217808451924563 9.413689693111417
Be 4.4125318219521645 7.493807921692936 6.241553237775329
