28
Energy = -73.83550637 eV
Be 7.801597014489535 8.082561229296529 1.7716164017074396
Be 8.58316499200493 6.422920174182777 5.2661592102955765
Be 8.518409699345757 4.3585363077501205 5.930129887954173
Be 7.265167934471106 3.3059219671684636 7.424811701811798
Be 7.058419860295962 4.523021836907517 9.020377263777666
Be 9.416856095085148 5.969563909365176 7.043108208448777
Be 7.175117908893066 5.677791024917977 6.922171480259672
Be 3.644063445927494 6.289842384455343 6.978946473194306
Be 4.185107104833173 6.298891147803011 8.942396907185847
Be 7.088253809566893 8.141546121182548 8.666354437200832
Be 5.213004229065 5.76312042938733 5.723687713171982
Be 5.258614807309875 4.8476717680828285 7.746783773218067
Be 5.902959233488087 8.057770029464868 2.4490027428892445
Be 7.387072085761042 7.297286082952355 3.6289650673332807
Be 8.11772441693161 7.73514969195775 6.997748154741723
Be 6.934097750014915 5.462538568086221 4.523545620539223
Be 8.858714277186065 4.350730941960272 8.075988291727453
Be 6.248610907066347 3.998588887639371 5.854287521424132
Be 6.671777965988475 7.329050251061694 5.6095185700702395
Be 5.101067366010348 8.082965374977954 9.257046727428587
Be 6.006609945651104 8.894931962968782 6.883705364400515
Be 5.845060899834962 8.80225518084297 4.483812110542691
Be 6.211867057210409 6.327178531004565 9.421871110973308
Be 5.688742936486547 6.943381795953746 7.454412105453982
Be 8.244443561280104 6.3489636102855975 8.769764085097183
Be 4.5142576612087995 7.801160855711474 5.725842232154587
Be 3.9203311146212036 8.247003340220365 7.642842715152717
Be 5.318760433694945 6.819531108135431 3.9649786355681833
