27
Energy = -60.37410286 eV
Be 4.414463473763344 7.541087747240095 11.27235528722021
Be 4.307651395820359 3.211216699713011 11.27235528722021
Be 5.619622351599327 4.699422504840721 10.60161454929785
Be 5.761388204866467 8.316192095003464 1.280134154570373
Be 3.4582738174370773 1.928957106444016 9.848605532346225
Be 3.5421538365194825 5.666477477306057 0.1263864552662789
Be 4.059094680484049 3.719275820869547 3.830786603498447
Be 4.142030709674361 2.8004054159098404 5.798547559551463
Be 5.173543837545792 5.385213164099741 3.326052159749693
Be 5.430184089042534 3.4942145231832735 7.2799421083205225
Be 6.799404022562228 6.312986097388901 9.7562048344654
Be 6.8305072700092815 9.194742989477053 2.9068428703728393
Be 6.437814201650335 6.139511340099119 4.839600938859768
Be 6.680518336376603 5.129627743169179 6.747605949997539
Be 3.8262419292978396 4.668959980463072 1.92424776339997
Be 3.959241868822148 2.1359517217656574 7.816745901585545
Be 7.011833246023066 8.162544295461139 4.741068114430229
Be 7.943766047279444 5.951318587725015 8.153388515451326
Be 7.668209076583019 10.028082004334347 4.693498866730889
Be 6.123236602103751 7.242726345316786 3.0134861631521463
Be 6.532469563543497 4.461180723517722 8.77137887982615
Be 5.074914669831793 3.0931575290947135 9.320032123956512
Be 5.040079725716195 6.329164464098204 1.4428625542438684
Be 5.408030681985358 4.340373775255016 5.245909515413671
Be 7.489061986450357 7.881726899467704 8.3494684663002
Be 7.656954849676048 9.066469200147752 6.5846057560624045
Be 7.546661256133424 7.034808287428893 6.397680071512009
