24
Energy = -62.856211 eV
Be 9.28827337371769 8.91607866068856 4.471793133870757
Be 7.554676949952276 4.998445341262506 8.072788527671502
Be 6.762033780545802 6.758953411524522 9.024276065381619
Be 9.01848155537389 7.03727408518524 5.376881219119704
Be 4.637294825628781 4.484229614537881 6.1915578330340955
Be 7.511973431157899 8.204569513564916 3.735730657945279
Be 4.9240065604335514 7.746836697726757 8.289620345059108
Be 5.325646580503949 4.402010580315631 8.228124005000874
Be 6.4961287210558485 4.880422596327706 9.827297089696726
Be 5.448336835216141 8.332202446954192 6.241627460540035
Be 3.5500879465360726 7.766128517646839 6.729967232955362
Be 8.190217144978433 6.922204771615072 7.3532625867148695
Be 9.2435887620394 7.4129444121716075 3.211376548040543
Be 4.809473278318596 6.0164724542152745 9.385541381719081
Be 7.672834149305388 8.557030736570985 5.948138495543096
Be 6.547224737630685 3.8764177409605605 6.649092426917447
Be 7.9087474499679775 5.3341102916018865 5.990652372970349
Be 6.784695038848137 8.436442331475941 7.781267662846342
Be 7.820536670495045 6.027218034343295 3.919727249183147
Be 3.8731869700162576 5.916658630359359 7.531150409255446
Be 6.032056067411022 6.183293278907081 7.080507168963606
Be 6.564882749001575 6.972920052674924 5.184483421900328
Be 4.526336369588106 6.450740199841489 5.4717378321131465
Be 6.122969739532822 4.980085286782981 4.917088560813434
