22
Energy = -56.9087596 eV
Be 7.335794733772783 7.973013924283549 2.97994521194146
Be 6.997509292876879 5.783498177713282 10.226337680509115
Be 5.519542671193335 6.609091117553846 8.941745464468509
Be 4.38825607432255 7.013243972816335 4.744071895673431
Be 4.547184300174367 6.988619335956922 6.919469791583071
Be 6.307447667040862 7.165033044392177 5.5721193427327815
Be 5.242309234127925 5.37691545640649 5.697320140846376
Be 6.826566712144086 4.04127114953361 7.22200876376357
Be 6.2545131873075865 6.316801633154784 3.7534706486097313
Be 5.547872079805811 8.395078458618961 3.7843647189243206
Be 8.01008182833154 4.604514919623573 8.863766482726156
Be 6.541065783840976 6.009431099714725 7.247839339641702
Be 7.837625276634767 6.747916199462434 8.597181328273328
Be 8.633856328865678 5.386527159640132 7.058561564432627
Be 7.275245200420073 8.784443333662711 4.941806601749032
Be 4.714993516144387 5.034425120238847 7.712835088075424
Be 5.11396284819151 8.766612083353541 5.784081440764065
Be 8.242220646966631 6.9173759017082235 4.494027202776644
Be 7.373169506474879 5.329716733080195 5.397551668363587
Be 6.001892549377658 4.441357715600269 9.152503480033795
Be 8.12582213036339 7.325169904155638 6.489746034843365
Be 6.225635594216495 8.052510721924065 7.481813271862087
