24
Energy = -63.34281069 eV
Be 4.312493360994887 8.179779493009427 5.289886505460662
Be 4.049947709148533 5.273996234259623 7.171306646252268
Be 10.097329826978067 5.755009832183167 7.425153470265481
Be 5.456791196274634 6.625309248268129 4.567299428466342
Be 9.47628570129539 6.701662872719225 9.09137234122609
Be 7.008955768305127 5.213243188810522 5.224227394818026
Be 7.335034557887645 8.98118551990574 7.067848640581059
Be 8.006033487339131 8.216788734158623 8.915248485457447
Be 8.96453239016707 7.518442294232469 7.239293601990213
Be 7.488397143756391 6.971961914483361 4.264741782732618
Be 6.195917406132723 4.7642118570338186 7.28583228349447
Be 6.393902982877422 8.618018438366652 5.106156741031646
Be 8.152088229895103 5.20459480287519 6.919208480920761
Be 7.326314546742593 6.258704915087188 8.612598045430621
Be 4.999242346346682 4.7387998574307355 5.484335153670673
Be 8.882173483605532 4.782826478882802 8.761583217836046
Be 8.431275927469942 8.358429756576632 5.387850896992564
Be 3.5901854913128557 6.275708004073473 5.483482071318668
Be 5.269630792958709 6.169611394594878 8.521256023750627
Be 6.510378091111913 6.877881647641351 6.583362147656808
Be 5.296909747413605 9.135525675873344 6.8331906247660585
Be 9.020217486040359 6.304329616122287 5.46979894032704
Be 6.008028546881338 8.081550425976769 8.443732075968965
Be 4.173952071044683 7.438446089416073 7.297253291566462
