29
Energy = -79.14486277 eV
Be 7.454368682265678 10.110283585663538 7.8925612689395495
Be 7.14106786513578 9.561689051176778 5.749036439282734
Be 8.66375306576566 8.631938923634195 7.070137931378495
Be 6.150778077490846 9.25793310450967 9.267523645575709
Be 7.986039056358344 8.52186755719914 9.09285694763904
Be 5.7635823133418675 9.214283884981565 7.287568725482444
Be 8.682245680134015 8.397638300531554 4.996742377713419
Be 5.250134697068063 8.7678886536699 5.370964137145134
Be 6.9918094693040995 7.295056343348201 6.195533517880747
Be 8.383540066101146 6.807585819439536 8.06220990543604
Be 6.293232922648022 7.270492265068044 8.338528326337045
Be 6.734575914840872 7.975597593161909 4.178690179360603
Be 9.25775935927574 6.727343613268788 6.121921414381717
Be 8.393454937107187 6.6119261251863835 4.1770117280826184
Be 4.92573690150731 6.826614350553988 4.90343503688707
Be 8.707770146481044 4.9687851514059584 7.346047302453602
Be 6.54247033993734 5.781130769590661 4.3008260459396705
Be 8.204403819363948 4.953904833102732 5.3972201110711655
Be 5.949710628352467 5.4880352467148175 6.532664465213739
Be 4.734157204116951 7.474216403829972 6.9228872578425795
Be 3.588347890829331 5.9304891529729575 6.272043632466683
Be 6.950411596083406 5.236653178201391 8.482534306653834
Be 4.644687325024512 4.653825709678385 5.04382457994534
Be 7.226548998927555 3.613197173972492 6.910836913478618
Be 6.597494641043159 3.8217588431582135 4.896739875111632
Be 4.6485862315725495 5.675368574509536 8.215945277483495
Be 5.4838120037425355 3.7846184372788207 8.144604533943278
Be 3.799422453737697 4.09949611588932 7.024534409408172
Be 5.330541247255294 3.0208247731141094 6.285013242278389
