25
Energy = -65.16926213 eV
Be 5.3292711898018466 3.4387216264160987 6.48365766098777
Be 6.993351410618173 7.513443415125631 6.720858286983407
Be 7.823988928196662 6.36663315444147 8.377322271615297
Be 7.486156565650638 4.328446063000316 9.15480331080021
Be 7.749737204534158 11.097102003394783 4.894127539672282
Be 6.379256893251736 5.4702786243403105 7.118930011064314
Be 4.726154384534337 7.312468384817801 6.632399313238682
Be 7.6233344352770205 7.613516691785592 4.6869519392854455
Be 5.58043829213034 4.36551622105228 4.697226287809904
Be 6.121479547699051 5.760387851637127 9.486020004700627
Be 4.324956168814947 5.220931331400849 6.244826221864748
Be 7.415695150878562 5.531445297194065 4.146927315865624
Be 7.121863187996213 9.506506867801345 3.865345492317998
Be 7.050332095323495 3.1361901602174034 7.530996454087622
Be 5.714625714825904 9.131320855426424 6.888450021261792
Be 8.513565816380035 4.568824273223379 7.410512486065047
Be 5.892650025959224 10.441363732855738 5.250731176500144
Be 7.692655204129115 9.32045119337414 5.968991476960925
Be 5.8976895660278785 6.32675396373927 5.223606687284946
Be 5.654830853384809 8.381017218467326 4.956826699567454
Be 5.436416644530006 4.045766345150227 8.505401875554535
Be 4.4650097858487054 5.966998109105508 8.19914705814525
Be 8.25816572163545 6.089471813924395 6.012300889550839
Be 7.369389783032514 4.102130052904953 5.641900153299831
Be 5.907365227714054 7.492694547378301 8.430119163691078
