21
Energy = -55.61276728 eV
Be 7.524603482345735 6.288539054746339 7.875981292983987
Be 4.268799857350271 5.296489356788394 5.440238262902467
Be 6.986342351730999 8.27789760539888 8.28458816403513
Be 7.787520419512939 5.330041129025085 5.01431811034474
Be 6.8323066122968505 7.2056722662120425 4.287069921632998
Be 5.967844799141988 4.819852788564424 7.9036824630159925
Be 4.7722658413257095 6.9536381471857 4.0388981399954185
Be 3.8424099377191374 7.269387046658219 5.899909112100051
Be 4.1820715214836115 6.013526597975165 7.485880013049576
Be 6.045312369195152 4.118853677868657 5.841813516563711
Be 9.226458969927664 5.878635532512834 6.529031720970934
Be 8.694080371999299 7.289414615122832 5.250376920488193
Be 5.141981563090398 8.12019332812253 7.322360714446319
Be 5.90313197266415 5.267441740071408 4.160044170280535
Be 5.326102467595698 8.505941049486083 5.219374067915819
Be 6.052666024087769 6.340718302291593 6.239679283633239
Be 8.850324999818364 7.801869339596846 7.238267221120956
Be 7.066989476971085 8.264863743755312 6.247573290593137
Be 4.338640029574664 4.016694346692107 7.030749529099177
Be 5.6499223824953955 6.7296470842485725 8.731765921365943
Be 7.762322328916615 4.442871526858446 6.867838978368221
