23
Energy = -60.0223145 eV
Be 6.9360220646483635 7.897339245142083 3.815518741610283
Be 4.329967745436956 5.118592856007713 8.845937169509668
Be 4.000662791819555 5.249543730947871 5.322244927087993
Be 6.105668867099023 7.916978662577588 7.899294119822005
Be 6.064714886675872 4.765804886702686 5.532910506896621
Be 9.841398594017345 7.785011908339799 5.943818576915883
Be 6.481581324625827 7.647851309175652 5.859478961713219
Be 7.551674612593004 6.490111007990448 8.505031799197212
Be 5.408137370429459 6.491679522593101 4.505128277708144
Be 9.440083321524684 6.422874420749671 7.380172740623473
Be 8.18915594950817 8.832365640947021 5.247934497545946
Be 4.590294280167588 4.239061045569982 7.038998906433369
Be 4.188452838609432 7.309326288567551 6.086965647947605
Be 9.361433013962415 5.941622353635585 5.315490946366792
Be 6.328582967433977 4.722435985971367 8.257834260976997
Be 5.58486295981248 6.136810540201505 6.998402240519238
Be 8.133550699657144 8.083841849758597 7.218792753841907
Be 7.462241935625222 5.923732729659439 4.402825955052431
Be 8.901892562392621 7.4608333631857215 3.9740318466976987
Be 5.719128390472574 6.4848369168416635 9.428723347716776
Be 3.1518782117964914 5.751534738952693 7.099442145838718
Be 7.607424072874008 5.728815972373086 6.576829568531983
Be 4.1279079393474 7.1057124246399 8.250909461975922
