22
Energy = -55.66659059 eV
Be 8.400270594691058 6.751841429941757 5.0523604427575455
Be 3.3901462792007875 3.558086535969025 6.5104838380885
Be 4.423949247592457 4.132921201155039 4.703363239590934
Be 3.3923838635209593 5.507207929630156 5.952846617023596
Be 4.794372468817454 3.0579419335442712 7.8893395242276965
Be 6.719584316124982 9.74105370412551 5.934205116178232
Be 4.889677505286747 8.722979598830005 5.576891943336536
Be 7.998485698242561 8.787531587255339 4.724062804743192
Be 4.59465095100781 6.637166693908879 4.636586152506261
Be 6.041014125699933 8.470676058247093 7.3118482398268885
Be 6.4917797466843155 3.581952899773956 4.975071313443617
Be 4.596021458646168 7.065358140848575 6.677438658607227
Be 8.783321658109601 6.285810772258364 7.010283052017854
Be 6.5009640570582965 4.021409970564118 7.130885335990985
Be 7.836851615115477 4.935475732087347 5.785992226067438
Be 8.01470509511523 8.204784290709457 6.6919567169789
Be 6.737529973953688 5.606461789619453 4.180389370523869
Be 6.694572165353207 6.431142203122079 7.133070725121224
Be 6.43576747371887 7.418896934895768 5.120811016990449
Be 5.084037342600059 2.538512974290991 5.976747760074933
Be 4.681147987231631 5.111251165811144 7.59662643876105
Be 5.6116134558141315 5.356959619030732 5.797668310614977
