21
Energy = -54.92941821 eV
Be 6.631698628510701 3.189987013050529 5.874754177624856
Be 6.202532602267703 3.318275596538901 3.500699733693516
Be 7.86528645721089 4.250298881805772 4.431507635940811
Be 4.2611098386285855 3.505735129996091 4.624999918774167
Be 6.1517742620313385 4.617903757376391 7.502241586993825
Be 7.7896158858246745 4.956670035077125 6.397666084842669
Be 6.802262980954024 5.316313789020018 2.971888734864142
Be 4.704488593622875 3.504167534469589 6.6789368335573895
Be 4.797011933902758 4.777430794703809 2.9726525502370613
Be 5.8831921061908306 4.780971727893654 4.870896487077167
Be 7.327352200386837 6.326925444366553 4.847790295633836
Be 4.972250530873603 5.917311157058763 6.065343315716213
Be 3.5639979749224744 5.632723336481177 4.4486395469624345
Be 3.009502571685791 4.412835110362231 6.057322137538925
Be 5.38587272624997 6.669935135825888 3.7781619132214805
Be 6.717719986681733 6.620387453148589 6.987742326287548
Be 4.06903459023069 5.245585260941776 7.737821330272257
Be 5.992012369383023 7.834420871689068 5.428528757688733
Be 2.9449966567657664 6.480629101790724 6.363760371955409
Be 3.9757408684943925 7.65504246747358 4.98291327341126
Be 4.633453430102318 7.633453712246432 7.02293531412717
