28
Energy = -76.49381774 eV
Be 5.890603885829629 4.038845615944298 9.43593865347518
Be 7.161827663241241 9.0176112166326 5.932641112154074
Be 4.3949438919175945 7.122373905793543 5.113787307757642
Be 7.081249880382901 5.122672868466596 4.472243584045823
Be 8.34111745330129 5.195656942388442 6.234605310892802
Be 8.738029584455617 6.300708802389799 4.520449348876825
Be 5.169011513455996 4.324280598301817 7.4598190594059
Be 7.297173598356508 7.084997469900552 3.1076329297113863
Be 8.346376898782252 6.209666434855414 8.18294121746277
Be 5.2962947155518165 8.017379354399848 3.2099670040789903
Be 5.798766125627045 5.885126185941445 10.504089391693414
Be 5.370608283031146 8.056038300021225 6.794955044465629
Be 7.309963317859995 7.129836309294097 9.793102050408216
Be 6.581927542897523 7.136013702881422 5.111826298575653
Be 8.478130712228248 7.307880122791158 6.350811711668116
Be 6.813154475760016 9.188982870904477 3.7051125414049455
Be 4.320349828054023 6.2699185620708535 7.039922710448337
Be 7.597495407594626 5.1283914330700515 9.962925888936404
Be 4.374601166981664 5.38332783007688 9.104608225685137
Be 5.457803448667451 6.04870798945919 3.5564584794782497
Be 6.710413324859408 3.9395161690017058 6.107841228531679
Be 8.474182755833741 8.302398939850884 4.428858197163218
Be 7.395997492640033 4.283243017679076 8.036766846111654
Be 6.516852143887847 6.119149141166164 6.907004919826239
Be 5.2262504744212785 9.08465175613538 4.961430603720155
Be 5.467204546283774 7.10521243467539 8.703423728635475
Be 5.191127703997878 5.1631724859188655 5.4543386011760795
Be 7.185443674055094 8.021141049944903 7.793399514166207
