24
Energy = -62.86683256 eV
Be 5.034960132235045 3.947531259630253 7.481988895768371
Be 4.08030635193731 6.395009103671067 4.282832438244793
Be 8.111372130530773 6.024591873759387 5.687229843764665
Be 5.141926613819449 7.605558353052803 6.750620247477251
Be 4.127393714793778 8.255786154751142 5.000319361647554
Be 6.69781259819301 7.064882328930257 8.653802906216823
Be 6.91392826088101 3.538455895791982 8.129964415209917
Be 7.715616557398529 7.671910197979493 4.430581959010441
Be 3.360407806965215 6.627919066898905 6.144110552288861
Be 8.336089216066265 9.27008481651394 5.528063572621136
Be 6.495397422560082 5.820786237282149 7.098201478482205
Be 8.924063786279149 8.67316399343893 7.494599679253924
Be 5.621977602361503 7.747803072616575 3.64558195794989
Be 5.842446431475544 4.972027811970709 9.078468061472117
Be 6.645217989386152 4.104873879398306 6.030703863477692
Be 8.396976753589978 4.641771658714606 7.246796239852414
Be 9.409013565563425 7.6324094047028925 5.859647419912814
Be 6.181782749611538 8.845502820010747 5.243590580456011
Be 6.129560110700042 6.379897709782132 5.072261676788743
Be 8.652089414022235 6.6559541934418105 7.743092523551144
Be 4.481130226240071 5.9753098440046974 7.824391330613312
Be 7.826884950068487 5.313182315165005 9.069274143321813
Be 4.67074072757546 5.061931802352063 5.8260016848192135
Be 7.204369288290756 7.77512060668631 6.679339568344372
