24
Energy = -61.78369306 eV
Be 3.6929367730946407 5.645159259418635 8.775406466123474
Be 8.060041013409961 5.7487943038727245 5.171613708237707
Be 8.703190488556691 6.865517309787409 3.5828403462563903
Be 4.93706627448299 4.837321203293307 7.130900792821286
Be 7.472778737709728 8.44224898480295 3.6307718739308954
Be 6.201044553993273 3.7358736391982794 8.429189209276139
Be 7.384389811329089 8.206517221918055 5.733313918991263
Be 9.32439717236115 8.455667442232421 4.703276244333637
Be 7.061541224608016 5.609200034641108 8.583043087303624
Be 3.7069357138919306 8.024516157942449 5.468636882922676
Be 3.9247517943711383 6.672822260977219 6.9674917575231285
Be 7.0666847840703175 4.554324005280211 6.708731817966501
Be 8.583275473775048 5.958618353100392 7.142075617996688
Be 9.893638190079335 6.619303371954446 5.392072714279484
Be 5.3815344023152525 5.126789034566811 9.864633328963922
Be 6.568993910705657 6.531318074470658 3.950057326818978
Be 4.5600410768765185 6.226598114264666 5.072160553402967
Be 5.463250610970486 8.221756011451488 6.753579569430819
Be 4.271259488014257 3.72340600222925 9.092912981710212
Be 5.566346754945273 8.09796553401412 4.668908927749595
Be 9.203947111352575 7.9668567423207355 6.722856753855067
Be 5.374618537453087 6.804446109225438 8.41802298188621
Be 7.301530997809437 7.49099857912275 7.735512901577428
Be 6.220658340380296 6.358835486469426 6.226843473197515
