29
Energy = -76.9255031 eV
Be 6.091192830106048 6.4215218060610875 3.4582190391493515
Be 6.372893482971235 4.279876016683024 3.2175575842098945
Be 4.473727049495408 5.117624763864878 3.0713717121709747
Be 4.083282549748504 7.1009564424299825 3.462996028706186
Be 7.718838290603219 5.489888582542176 4.344527440478516
Be 5.352251034528865 7.925383279255117 4.841933034596752
Be 2.7751210879778982 4.050936738113413 3.0932169981306554
Be 6.47268781279877 2.205510041261486 3.7972079102328244
Be 4.610069713990213 3.0567693990806655 3.3803436424997804
Be 2.7769010994567997 5.797892027081789 4.320895220872477
Be 8.065419877545782 3.4290448524038797 4.244038077158168
Be 3.251317255168643 7.565772244944488 5.342316958643703
Be 5.235379159174907 5.383763280183539 5.364567216250733
Be 7.384489178227384 7.673581989795881 4.4756499808874395
Be 3.493894580519949 3.9719558632283016 4.991467516729287
Be 4.503101762234299 8.899586658329486 6.433840062798411
Be 5.110246391766531 2.5689652865376598 5.4019337734050525
Be 3.0301714604686527 5.61228205640926 6.3805790588949405
Be 7.311430092969396 2.2183626077372898 5.638699973584074
Be 6.6396769599016885 8.575951885948877 6.25135613675214
Be 7.651345347796954 4.329836139264221 6.135920971685484
Be 7.174455743527355 6.494797189935521 6.096430333632555
Be 5.44706362698673 7.184257956857133 7.205685867389003
Be 4.304810032558825 3.9322741904132 6.919605383697578
Be 3.3472204868621582 7.477570730777417 7.380861951423339
Be 6.243326572907081 5.229256530087135 7.503650503383652
Be 6.236538266062802 3.1157278234596664 7.105150041436711
Be 4.244334423235157 5.720231333675116 8.070815849532963
Be 5.231256829359518 3.9855515377604447 8.72184277787262
