21
Energy = -52.05173368 eV
Be 5.966057478039993 4.248504271581717 4.352611935016007
Be 6.2085723121908485 5.343019518843676 7.710665944823158
Be 4.8545062819549285 6.275724637090878 9.078266018912505
Be 6.155129014915143 9.200195576917736 8.755780131124043
Be 5.756332950444896 3.718363583675995 6.349919154562002
Be 6.780068532842478 6.190498923924755 4.359772148605431
Be 4.197777240883473 8.221559731906147 8.78932885003824
Be 5.322663374462239 5.71876325586361 5.72386990645844
Be 5.525706421706028 7.826097794383876 10.212386876826832
Be 8.112843021702584 4.5828819808584065 4.133793542629734
Be 7.3442896279966705 6.731429640598948 6.6025921551373
Be 8.655563031762403 6.618831284910454 3.5493116971254755
Be 5.8477352417957915 7.842019664932297 5.415756970633603
Be 5.120945320655739 7.1323856572241136 7.204200597580317
Be 5.065357565183899 9.193209612536393 7.070028572335319
Be 7.591712658745123 4.7058201804303685 6.182986981938824
Be 7.190044370237509 2.918832125081276 5.073987714735706
Be 6.826505319034966 7.241536613132201 8.602096416594598
Be 7.953838930300212 7.916518604798958 5.012204892051626
Be 8.966439289703931 6.102755745439788 5.384696415963369
Be 7.054160496536817 8.767300076963942 6.931991558003137
