21
Energy = -56.25056716 eV
Be 8.524615817272426 7.757952205259889 7.731551281187264
Be 6.906769105072975 7.557685695703835 8.989728420154979
Be 7.802004804555891 5.831557575611861 8.173812325940052
Be 8.358006193269066 8.369770410592198 5.774784367049644
Be 5.813727180162359 5.800855390468704 9.04231275473031
Be 8.700885183609353 6.331075319375481 6.196515648590571
Be 6.780060858221301 8.684590156727811 7.1791140299675265
Be 5.085384277510598 7.458234337658827 8.068367788742918
Be 7.9730091742933755 7.00904642888314 4.268339517096087
Be 6.405705164304123 6.524540835437718 6.461660246914961
Be 8.116923595285964 4.373487189701507 6.693048809149007
Be 4.811052998276214 5.167495531428332 7.362190567187301
Be 4.897851769789648 8.482091886082264 6.278326867708276
Be 7.953145207695918 4.997140853098601 4.739920607269872
Be 6.501578046790242 4.181470496608388 7.953476579144536
Be 6.484367942023735 8.242966785150621 4.968875478865157
Be 3.7703997058687135 6.807647213437812 6.564501150999715
Be 6.209644028440629 5.953152151643537 4.266567673432301
Be 6.2535681930906515 4.307020130547084 5.834128583349996
Be 4.525648706472576 5.3781668690119355 5.32323889203455
Be 4.637474657508236 7.295875147084588 4.641361019998853
