24
Energy = -65.11110198 eV
Be 9.27194258450068 7.171271659341272 6.527600471105965
Be 8.489138772997695 5.904446873590779 7.984290402389075
Be 8.174122409016938 7.937460997980714 8.32794764132349
Be 9.026794970941792 9.189335231240513 6.9206173920449805
Be 8.069946116782459 5.079406508567244 6.177300794705421
Be 8.376878424244008 6.5061811451778375 4.766820581414378
Be 6.900883776473953 4.932257147457047 4.522978976180325
Be 8.067979634364162 8.525026340245773 5.210755525157911
Be 7.143701268580486 7.199436532060622 6.606831296650945
Be 6.053646788856299 3.720573795650569 5.996575106691546
Be 6.572725117061889 6.101137213432213 8.617471955048583
Be 7.020049579757126 4.3262109093297365 7.7430795617709185
Be 5.851476518949274 5.807136029590461 6.389801039825926
Be 4.940995867635168 4.478613784239175 7.792648591667363
Be 6.427171260023198 6.900256166538352 4.3793457404756335
Be 6.963434546171796 9.289509939067049 7.006902393688768
Be 6.097754305697794 8.070571213330028 8.463609620733362
Be 5.985335442864145 8.669152830457437 5.271104603544379
Be 4.621362405311373 6.494936979354537 8.224097614444197
Be 4.512519121330712 7.091586645137869 5.023009248860397
Be 4.824765552607353 5.0579072221592085 4.673188890972451
Be 4.907210262527856 7.934832488369675 6.825020466976304
Be 3.987869844550562 3.8033733796825557 6.085442491136949
Be 3.719294701169694 5.816378240415224 6.4705588656068755
