25
Energy = -66.46308326 eV
Be 7.477710211349791 6.269968492290109 9.121809478151809
Be 8.73150044415305 5.983735095533082 7.4666980882714995
Be 7.163030081318603 4.376357102838158 8.044169971344076
Be 5.554731831849007 5.558161177990401 8.957145554182178
Be 5.9770669855461245 7.5554987551199115 8.674536175920181
Be 7.9151801605991325 7.900772152914383 7.808551110676846
Be 8.428448209267724 4.419583901500035 6.243562810956797
Be 5.056376307813263 4.414854687337097 7.364698940746503
Be 9.592539711438226 7.782647501092689 6.614692127207541
Be 6.544887333069284 6.014298508093535 6.924236518354397
Be 6.511221480820926 3.7208338689440383 6.114504933465706
Be 4.5724906146798 6.6647076252085755 7.272345602845914
Be 7.648216593231423 7.122313284053755 5.720315425519192
Be 8.942424279847259 8.367329574276713 4.752553586535269
Be 6.12654292022584 8.215026552458381 6.734408403822675
Be 8.108730722793007 9.299845862028045 6.302064320663116
Be 9.321326063490458 6.118229188900843 5.370210071273048
Be 7.205028400643504 5.2733968457128695 4.8377755735600125
Be 2.676664984453528 7.0697676010008585 6.2709976704543475
Be 5.084627024268419 4.934612806713598 5.269034703607039
Be 3.3547873918210573 5.097328938737977 6.372924379373129
Be 4.36021076817204 8.240900680328725 5.654881965740828
Be 6.729385184977655 8.799676064020394 4.853159358285369
Be 5.725704301440782 6.868465706306332 5.001756231667461
Be 3.6907140275680077 6.431234061436699 4.752513032212705
