24
Energy = -64.62448513 eV
Be 8.709975116327422 8.823950112539544 5.255762003165349
Be 8.881412384885325 5.944618496514296 7.104936916542922
Be 7.509885607664473 7.759438866513968 4.101581238375386
Be 5.469803590132737 5.68332753902088 6.773486011810786
Be 5.887709774235708 4.8663692011691415 8.87104784670314
Be 3.953657545785617 4.464664809353214 6.06023490020979
Be 8.332896824943264 7.94538003294227 7.066498638255452
Be 7.328558638183337 4.542496694931554 7.309768755521172
Be 5.439310720011398 3.541347864229577 7.3019133936055285
Be 3.9614796046115823 4.595348672807658 8.214747729924811
Be 3.421648776808098 6.279349129586038 7.3075306810227785
Be 9.005802720406466 6.772977813753511 5.156604942672089
Be 6.385868016415015 8.223186301639627 7.782540555364943
Be 7.159236809565439 5.6979664307292195 4.12981722340615
Be 8.384084406847458 4.719027301119334 5.5184045097331325
Be 6.626325348413349 8.781020811273162 5.784466334836405
Be 7.0438184789535505 6.622161308655743 6.054912178589558
Be 5.026632226003924 6.792587573147049 8.551403414796996
Be 7.169326509902956 6.416683455043577 8.271674414677447
Be 4.820926770254041 7.8039276981491374 6.566557889645519
Be 6.379239750267567 4.158658055119886 5.472969254563465
Be 5.119244543600016 5.321700279081796 4.37771235896021
Be 5.5330149914643325 7.34345558014334 4.6136703648798685
Be 3.750978128005671 6.479649984619072 5.3162221029019845
