23
Energy = -56.23793166 eV
Be 7.609573745737072 9.109073177912942 7.060494851957498
Be 5.575479907085771 8.97354341721642 7.353222201018313
Be 4.116351796352587 5.261143807497516 5.602032166252093
Be 8.409962464893615 8.869507778996933 5.218404238070972
Be 5.508627516264974 3.032954346030423 3.6060884918981007
Be 4.626477047341252 7.340705998163993 6.421108865023675
Be 2.684386553840128 3.765742060681383 6.0543617185084955
Be 7.6279193333920015 5.545096469765935 6.288455218378616
Be 3.6483345686405637 3.3312344641388068 2.8809218276511075
Be 4.78409115590759 4.964380522104601 3.598370375656656
Be 5.892604661966776 2.4663955362445606 5.489855574373571
Be 6.629072955125303 3.8341046378185184 6.858576169327786
Be 8.756290463914574 7.394559841720482 6.469159859328307
Be 6.8505565882623465 7.165969209079003 7.374655250292059
Be 3.8316429623398016 2.582308498559471 4.8768585768463835
Be 6.573186093340367 4.491944692633728 4.8015236680120195
Be 6.335380006086006 8.393642277743549 5.510062654986343
Be 5.485866996628697 5.5084168221095275 7.180188870111146
Be 7.756452011998362 6.8910369772319635 4.748489324611074
Be 2.7268227254391704 4.473125311661095 4.1864685521888
Be 5.015433378677007 7.329089906099569 8.373648138985972
Be 4.609020545283071 3.4310399443151227 6.792818710615688
Be 5.794606561329066 6.382426185835948 5.057579879400875
