24
Energy = -64.06495812 eV
Be 9.58836118015743 6.755877789420971 6.601040818841408
Be 8.874962697584678 6.617556790756722 8.525104991982667
Be 8.016471010134373 8.261955424114355 7.287330647684302
Be 8.305055442364424 7.491462085701685 5.119888480884345
Be 8.703248435144108 5.277849999016953 5.409857414387305
Be 7.544893733950584 5.020840311757074 8.716768077375466
Be 9.126447097271479 4.893852586700482 7.4351286391972105
Be 6.796664544961546 6.999063443548814 8.624876283015023
Be 6.6732558608088715 8.692461808693992 5.759591418017575
Be 7.492410199649592 6.310864513384503 6.756870773948814
Be 5.8992502133294025 8.578126255858 7.658769041824722
Be 6.402147073678453 7.373733745508361 4.228928800048373
Be 6.597329824383889 5.310974523545338 4.958711288759706
Be 5.5679967067760545 6.804321661891883 6.420336577719158
Be 7.0587706854846894 4.2717298019163845 6.712662737275534
Be 7.928472078645977 6.110307523757728 3.6814116772753884
Be 4.589235534720127 8.023573049577221 5.059861846973652
Be 4.770359747936717 7.034634732120282 8.67903021905487
Be 5.6481760357527655 5.224222744037072 7.9609225120327896
Be 3.746036768690354 7.815307253458782 7.063290901499042
Be 4.819499381379167 6.080158929519466 4.222032273748996
Be 4.818655385349578 4.8051423939710896 6.005638895819534
Be 3.642189970026462 5.802626294512208 7.503769489649398
Be 3.360615510650172 6.4138614560604355 5.578681311815346
