28
Energy = -75.38496658 eV
Be 7.961757825508375 6.1183028373809805 8.87989530934301
Be 7.61028857366996 8.250795372040159 5.924717692462949
Be 6.71919724063745 4.249694279625016 5.2240283039933715
Be 6.935535983027497 9.933402479250143 6.96317913438486
Be 8.879008298763068 4.645634188535737 5.844161526607747
Be 5.313001674001862 5.079573653550291 6.571592333618703
Be 7.9955896436512255 2.7225413199919375 5.634471415972019
Be 7.793831983858628 8.364736421821657 8.044293177893557
Be 8.680863443533667 6.671967255478654 6.981273583510264
Be 8.84407220349807 3.0448047757836743 7.425871289234504
Be 9.415338402568553 4.903102707222164 7.936542064268815
Be 4.506175491588533 6.6938154966675425 7.619734284369778
Be 6.54660302676948 6.8545683024444495 7.565618694771739
Be 5.5719730333757305 7.660714277565944 5.961243036524741
Be 6.002343161478631 5.09863416895231 8.569181292777182
Be 5.300600571581321 5.846108213083743 4.5888096995149965
Be 7.2154051938927015 6.261585911656225 5.3232099946671765
Be 3.9909574032557122 7.404119341312527 4.267819204887569
Be 4.957014254648014 10.023766899389322 6.315999713199874
Be 6.464629583469035 9.720362869766294 4.9382064903388745
Be 7.822796585730771 3.9923907334382864 8.908722677605962
Be 3.6542473406671707 6.209669378643051 5.852338107368715
Be 6.672290450510498 3.1883188311192923 7.173072702279903
Be 3.660720017095381 8.318749899867589 6.242180071808856
Be 5.569284084449594 8.657593743846464 7.806088045253261
Be 4.5445674473105315 9.32194536233338 4.440858985525743
Be 6.092127769220182 7.826150213740706 4.014058472014936
Be 7.38600466813385 5.043176421387232 7.089058051694945
