22
Energy = -57.63578331 eV
Be 7.035518858416494 3.7587144414608153 7.210284105794149
Be 7.054662645758695 2.561916354090032 5.551624854884065
Be 7.145081178225658 5.834072924729418 7.209976711896949
Be 5.335933811476984 4.7671274803687 7.733836722897482
Be 5.250728850685449 3.253839111388591 6.186647953316823
Be 7.640723683942128 4.530755535552711 5.417489727626497
Be 5.525774703721246 5.560939445069803 5.475161332801718
Be 6.964483574510148 7.824064379099668 6.638228793350403
Be 3.5987953650814273 5.87791390482762 7.966874586371558
Be 6.01974271774228 3.5892904316232506 4.12222163933025
Be 3.609564899340782 4.563476514823238 6.373627015407622
Be 4.82350751293929 5.245166566430757 3.3164942473942127
Be 6.949535508517753 8.516460902625765 4.713757652700096
Be 7.60382001846146 6.6084614167927915 5.124895780054135
Be 5.2981746957866855 6.940749190190924 7.42842534137942
Be 4.070497384131552 3.65784201934576 4.513550915428543
Be 6.947044104333256 5.324124888620312 3.6125552105667142
Be 3.572548277305059 6.700912300431206 6.0727977787967395
Be 3.0276296377407905 5.385302961947763 4.537006690852972
Be 5.168292964012843 7.9639960278420405 5.523876726779065
Be 4.0106359860889045 7.074263213842123 4.032623515137833
Be 5.958166523872438 7.099487162701501 3.6279988773449534
