28
Energy = -77.22168136 eV
Be 9.150758549366683 5.241314340314728 4.701475860896052
Be 8.389677432710382 7.04938235240293 4.038346021005242
Be 6.262686346287448 8.50809214480591 7.690557828549847
Be 4.226413896521634 6.7170468338891185 5.285182409768506
Be 3.0940540105049146 6.263612176275465 6.949599972650906
Be 5.299290768504509 7.484248952391502 9.215865556575766
Be 8.971484470024091 6.295920544129973 7.926449947524624
Be 9.572581778772937 6.866957517727704 6.037422989556843
Be 3.9097480793443773 4.555583043879216 7.9783857158935465
Be 9.227437052560058 4.789827556983107 6.627538568367889
Be 5.489163851163186 6.305856940931911 7.097804130566971
Be 7.482847427346241 4.1930498540132195 5.7462761334611185
Be 3.8877078414531985 4.689503006467865 5.959058918557832
Be 6.041165507997521 6.951431064652065 4.134735213310492
Be 5.64336177198228 4.022117225482921 6.994568979094137
Be 8.809924555256867 8.690924584458958 5.348590632394012
Be 5.582837981139405 5.310131852096101 8.989360228931837
Be 4.176419406214679 7.986281766046201 7.43136720149411
Be 7.316181761730299 6.661155437306507 6.097587034389566
Be 7.162652421245448 9.503563454161544 6.159954507105772
Be 7.0997857927822485 8.695162489173072 4.273499095804194
Be 8.394359520507416 8.248822008761286 7.400651834574568
Be 7.115283426641293 6.843772937871974 8.518501459773479
Be 5.73693825262677 5.193362447309982 5.185968035969031
Be 3.7073918856770542 6.384716036439635 8.880623906500025
Be 7.3488512892567766 5.317414186481569 3.860003229060451
Be 5.542411419496796 8.251948595816346 5.729466831156173
Be 7.337479858196004 4.957697005039429 7.720054112377091
