21
Energy = -54.1707181 eV
Be 8.696302957100704 6.1165855063363255 5.033186744497987
Be 7.942089939684205 8.06435595334215 5.539053029087014
Be 7.478116924632962 7.376773657598656 3.774549203562174
Be 5.082501332326477 6.7542505959861 3.993148758916633
Be 8.04926407537796 6.404691004470312 6.902343499914293
Be 4.168477238815178 7.594940549353802 5.638059033152492
Be 2.755063658475061 5.966127598674867 6.462135813131866
Be 4.430310247210377 3.0558069120746016 5.635066140255174
Be 4.009930343032644 4.301597681754451 7.228855472743155
Be 6.010831337883598 3.3768434441229456 6.956947364425437
Be 6.270349640783465 5.368087725632459 7.483421672260844
Be 6.16138336757925 7.168055070838813 6.429500153643198
Be 4.552712014485498 4.5717659415026715 4.074266966915074
Be 6.0141391294385915 8.431042496442563 4.7719336184711745
Be 3.0939626857749154 6.1105783108974 4.467562266317196
Be 6.314486901858894 3.653219430757646 4.972491952508342
Be 4.423565712087255 6.4995050710013595 7.452879425162728
Be 6.7278102148555465 5.7123983508028635 4.775710629559437
Be 7.76511996937439 4.48953312770247 6.25206798320281
Be 2.8298730994868975 4.302644372120881 5.379501895735062
Be 4.996804169323013 5.424705858604833 5.816831113076416
