26
Energy = -69.94503921 eV
Be 9.751908895649244 7.8542315335821735 8.221610142670661
Be 8.756898958146365 8.19883378779371 6.307741021339948
Be 8.816107166636854 8.975849121975598 9.76162243621427
Be 9.795583973122008 7.286156323619009 10.237929661628181
Be 7.715787981386105 7.49291988101493 8.192342608884204
Be 8.120834941864581 9.55798856481928 7.834236333597037
Be 5.6166641203439465 7.060460009446036 8.224473257262382
Be 4.656474979656596 7.627096158617988 6.533392929521695
Be 4.836628581851417 6.721334878727813 4.759943659085468
Be 7.815470471309154 8.484101772068415 4.474345014160813
Be 5.785753137153138 8.723402293924629 5.115867983435532
Be 7.395952010141335 9.800761878121664 5.941086751777368
Be 6.1513979117482 8.944351164940711 7.341331105822572
Be 5.388458899264924 5.577527837979683 6.582498708570576
Be 6.25090786161435 5.335869555919857 4.489432578370421
Be 6.8169815365701005 7.131052630131416 6.253737040268676
Be 6.9916502792716075 5.503259703322061 7.9976125930264805
Be 6.816418217215887 6.53269996828791 9.886719349587388
Be 8.804353174710384 6.193084972121329 6.9068436147885235
Be 8.896316217807916 5.868866162934465 9.007364550019327
Be 8.461975184426565 6.011317615464139 11.057776132290408
Be 8.254963649130456 6.458445116807279 4.852088772439246
Be 6.509920473784519 7.1372222830943635 3.6752036350353845
Be 7.7469604662040705 7.9177598385313495 11.09036339370191
Be 7.380958398726253 4.931526156989991 6.102639053427226
Be 6.703369371520575 8.785013036529518 9.466581127180945
