20
Energy = -49.16414083 eV
Be 8.972836549205201 8.697871500560266 4.749604014509245
Be 5.515144559166726 7.701056606593171 6.114113688887676
Be 8.654277972778921 9.390973394597344 6.6066224155528905
Be 6.829499390803816 8.734748048793529 7.338706149066833
Be 4.02588586362037 6.628475649455609 5.074410481395373
Be 5.535621699132986 3.694043401062148 6.192116657801967
Be 7.005216585965278 8.96903618236766 5.318088664816272
Be 5.789133346417949 4.765424424079891 7.94033391485362
Be 4.017039234886111 4.558740681348071 5.018366034816478
Be 7.4312632012988 4.812516349290611 6.541096636826736
Be 6.438306146619488 6.741726390373474 7.777099404551377
Be 9.180723665048866 5.856522665761213 6.940940724911742
Be 2.6677622828762426 5.547802484143184 6.092817078966269
Be 8.472073017163407 7.588899151695139 7.894281297253285
Be 7.681046053097585 6.924239185230318 5.786268917293872
Be 7.873834056724578 5.481523609751329 8.40891140398384
Be 4.369035425867438 6.302104628340405 7.206928266296143
Be 5.847851231637168 5.652772965063128 5.539127787037292
Be 9.79139117955217 7.698153049869597 6.276687390031567
Be 3.908122234782939 4.25943332826937 7.1895427677934185
