22
Energy = -55.20137555 eV
Be 1.5160183502366074 7.203878705109229 6.569854685432899
Be 3.4804412784091086 6.766267711610507 7.091199137020171
Be 4.406808764089479 7.196745311561631 5.222756293390908
Be 6.517637274349621 4.173963619495177 5.148134644173612
Be 2.9616253776297574 8.509863263745993 6.1633018131606345
Be 6.240655231595851 6.1508103996453585 4.478448010890379
Be 4.955421901257672 5.2935043730284495 5.948172210571673
Be 8.20206006571737 5.253684125304875 4.7157354946644645
Be 4.936224940771966 8.432628493082603 7.032203030079815
Be 8.304811783741263 3.9274106798718673 6.236899282023471
Be 6.445062271909382 4.37471223563016 7.252199879756305
Be 5.502389664896477 6.489344614947787 7.4818674581105205
Be 6.307083001224619 7.7798976954300185 5.678625705000855
Be 7.32001334290121 6.1210775910568795 6.522514850862342
Be 7.075804884040839 5.882739923727101 8.727566970643588
Be 8.24709326685649 7.373456923719216 5.074705907429168
Be 8.524750767004726 4.672236515437373 8.076265733215232
Be 9.396842572070971 5.820813871072984 6.427250222729309
Be 7.657897212597725 9.13931509355775 6.191690201749152
Be 7.067463497500532 7.903423767601699 7.7828506548095255
Be 8.875693880267761 6.683119931258298 8.39892360613384
Be 9.112215333361634 7.9051198165353584 6.832848870582758
