23
Energy = -59.90793325 eV
Be 3.414291221064915 4.539671852839856 4.585881828034204
Be 5.814775817101835 2.0192137530550145 5.408395713627761
Be 4.059436129352507 2.959505460526584 5.935186181638656
Be 5.164926261474562 3.5002424121332174 4.148965720784094
Be 4.970092599426587 5.562340681708077 3.4094810659976273
Be 5.032196606369833 7.701137225668126 3.637393021702558
Be 6.790209609288931 4.54902451513266 3.4600352167234116
Be 6.5079923513895315 6.68815682202409 6.890013553350472
Be 7.011676212354006 3.667578499623493 5.264766332255222
Be 5.2430638181484435 5.043558971910058 5.750803389044831
Be 5.897098196727264 5.110894893109384 8.16580235618067
Be 7.415423723885183 5.790088840926967 5.085296597666195
Be 4.0136977816813815 4.354832163734886 7.5165709746197376
Be 2.360649361752832 4.070039818099301 6.2811883082234035
Be 3.190430671061401 5.935172444615849 6.228354015637946
Be 6.824603301574151 6.629775493630204 3.180503284308089
Be 7.410048997698664 4.7783427598266615 6.89530018718925
Be 6.786720968629214 8.70737348952082 3.115937316698929
Be 4.536190909832067 6.475846407871372 7.621905827863102
Be 5.811928635263144 3.2896199948661016 7.060037074432546
Be 3.3969873966851067 6.575970553801784 4.322362429647933
Be 6.64422900779722 7.723002493938335 4.963084503223146
Be 4.746028333264806 7.384805605469775 5.767644583576249
