23
Energy = -60.1764694 eV
Be 6.266874448119881 2.2300478128917574 5.354833077328732
Be 7.084840460966658 3.920168839415492 4.572585025302991
Be 7.962290442499909 5.581439180856754 3.788222860860519
Be 6.69448387428465 3.821053878183973 6.670475724576904
Be 8.033594148726293 5.291693395381933 5.969060375720694
Be 6.85221467131895 5.502855237900158 7.7720508059990285
Be 4.927793222338337 3.580835114974758 4.618885291292757
Be 8.112839504802048 7.187039288908996 4.9492585659162245
Be 4.8014994905417065 3.001003250118039 6.612464729993958
Be 5.820400522817008 5.126415706369914 3.3546420261528316
Be 7.3554501931240255 7.207382694544001 6.870375699605094
Be 5.586445412577851 5.4446776276238875 5.585860995293731
Be 5.9968101981831055 7.661668854663639 5.357239974256436
Be 3.7151977214105276 5.254119237037954 4.163772703016621
Be 4.921867766418198 4.741344534020404 7.664069028273167
Be 3.3590730091369134 4.3378108645948386 6.09916625414855
Be 6.783831252080959 7.136012766191187 3.3761249837716805
Be 5.307362683844321 6.816806265513847 7.367558694400365
Be 4.815203933138887 6.960006253762571 3.730156250342945
Be 3.2766916140120514 5.972124125716976 7.334106679562978
Be 2.192775075910463 5.9381215346426215 5.562570151831751
Be 3.9917520384748992 7.086883233071189 5.706893836565428
Be 2.752688818715151 7.046774306769727 3.9879701964591154
