28
Energy = -77.34576697 eV
Be 8.409853187737676 8.686642118352237 8.02989883583836
Be 4.654373128818956 7.206153914520322 8.941839076611158
Be 4.711186895484603 5.206405817733534 9.250247041774767
Be 7.615190111081153 7.885683326821041 4.007679082508014
Be 5.708028396375905 7.433479282999726 3.623898102361563
Be 6.808696562427581 4.6992984619178735 8.580698511028219
Be 8.5398209901337 8.71782519754553 5.766602603982143
Be 6.511292273603987 8.25018325945301 8.804583505356115
Be 8.734368353800255 6.6088411911749585 5.075191507514845
Be 6.787232246372087 9.466173134999401 7.119311092212386
Be 8.037910854792791 4.651059037309217 4.872713303377976
Be 6.29612725791612 6.3624916459693495 9.822252818015771
Be 9.352946724319805 7.200461618983819 7.000027909864992
Be 6.068095478811356 8.557486030846361 5.297996808933547
Be 6.564290990053365 6.097257860514884 5.33649638336129
Be 5.110074657182859 8.156828206855689 7.156510410997597
Be 4.979866706359685 5.556219374667133 3.773187461757077
Be 7.930743862345102 6.624688724865187 8.587179417141282
Be 5.90938990598382 6.094434287371898 7.334106279049342
Be 3.8699156991832253 5.91152282724044 7.366537679365304
Be 7.125479775631326 5.822866839830106 3.321522880724406
Be 4.676655059040334 4.783640463328801 5.678541325009076
Be 7.22323968172798 7.4758552479635485 6.695099985868059
Be 4.963444093417689 4.070747423549653 7.622473187450073
Be 4.620136031106972 6.925412467572269 5.527242341037786
Be 6.618770620932195 4.119057587355848 6.400080633095962
Be 8.12009778984336 5.493978831438568 6.824652162388942
Be 6.188451968709554 4.070985122012745 4.319108956566969
