34
Energy = -93.66545867 eV
Be 6.402274904762731 7.604269009191303 6.571961552655099
Be 4.6628495272763475 5.440967082725399 3.71767154695104
Be 7.805965325863666 6.108106899190247 7.751561477225003
Be 8.15363297510481 8.820548688081514 5.541167550144028
Be 8.282104517566307 6.69897869951251 5.740397232856924
Be 7.220429641819945 8.558488144734216 8.886521343313031
Be 8.158119688195583 5.202025743201976 9.735469189177776
Be 6.211725461782385 4.95217562264065 9.074733332812333
Be 8.569979881221345 8.046039013867624 7.391360909490926
Be 6.965430081355223 2.743472628500662 5.866524946590514
Be 5.0417898528852305 2.2474015344358858 5.563641314378832
Be 5.761532097840024 3.4634935621922094 7.370051609928838
Be 5.55863524045584 5.607840885209628 7.1538841650592655
Be 7.624157244830718 3.877740310095083 8.100024038549973
Be 5.209543767251069 10.312727259618265 6.519695237006374
Be 6.155197056669807 2.3885605571597415 3.859902459586155
Be 6.455522234331781 6.078719146961155 2.9872192579047865
Be 5.239584482205143 7.630934167827455 4.048940286244104
Be 4.319860434043292 6.404757534778475 5.568824480968013
Be 4.255933505957398 7.249013048805428 7.443261377090046
Be 6.215051995866642 9.347953191202983 5.030060932403449
Be 7.071592506417638 6.808983404830645 10.325296754290582
Be 7.269861894816121 7.7381974445277155 4.119983819982417
Be 5.752506835306125 4.104379516261039 2.6309603848596064
Be 5.19335506551994 4.370983781831748 5.483544779493913
Be 4.334478191318625 3.2809467696045935 3.8480021448375834
Be 5.844134621558676 7.001326879771207 8.731707035598175
Be 6.388728870023564 6.042001899350479 5.063766874413272
Be 5.288851461595111 8.924375041712707 8.008442489294428
Be 8.76097651596556 7.2032097528441925 9.375330728907535
Be 7.039678350325502 4.235802077545979 4.218939784716753
Be 7.396973329554212 4.706646089762047 6.252877508747183
Be 7.081180090618138 9.69081059813642 7.09568002554597
Be 4.383939718263181 8.529808648288972 5.844793487139474
