30
Energy = -80.81505013 eV
Be 8.153659324059182 9.48770330841793 6.067922786760052
Be 8.836111083168985 9.024331841903118 3.102828715190518
Be 6.140093439237075 9.705085551436298 5.166235923341831
Be 6.763664994940941 6.9875625349683474 8.280214550637702
Be 4.803523696999457 7.3312809179570415 7.664045505064223
Be 6.276605617287204 6.308357706592533 6.149577302708565
Be 8.24345242443563 7.476543061660171 6.876211221391061
Be 4.085445736228653 6.031626431741446 6.215343069626471
Be 6.407142622518523 8.535542028605368 6.959979799130031
Be 5.666980452541574 5.0348610287888915 7.663654710982845
Be 8.027180319282516 7.188432774039032 3.347471794273278
Be 5.2491861580613985 4.6097806926139056 5.306601705692412
Be 9.65201109852114 9.925685053696478 4.741113577539515
Be 7.984522914770006 5.426205249845052 7.3595580214549
Be 7.195664517773512 4.2324719467967835 5.933030434939753
Be 7.210642195517132 5.252952958735751 9.280916930973083
Be 4.987267824331698 7.881400517394776 5.584820787519842
Be 6.7853079432364245 8.97868565050126 3.2511026031974675
Be 3.9220302544005325 4.213083153858992 9.290542049760818
Be 3.8679647304522917 4.032803184922581 6.979259455004815
Be 8.22366900551893 6.019515396186419 5.312088302067855
Be 7.13543175901084 3.513542358823777 8.040920019027846
Be 5.856822408982605 3.8879863657444425 9.838418984915993
Be 7.784823167478529 10.497161186052566 4.2124183942628655
Be 3.4799741171257996 5.81760581232454 8.140955819440915
Be 5.032016497535575 2.812813522526108 8.347066351550762
Be 5.7162243281305205 2.984757627313875 6.446527472164773
Be 9.248746371685959 7.893170082601701 4.959584101637319
Be 7.1295730544028695 7.916474686708433 5.023930046428625
Be 5.150375520003138 6.008690944881323 9.47377314095222
