37
Energy = -104.52579092 eV
Be 2.002505239570836 6.508411165451285 7.1380986662971475
Be 1.4938398519141678 4.739652478404954 6.279517157651319
Be 2.2060837141336553 6.422693776182075 5.071022712317121
Be 3.6390157597648303 7.585839120102063 6.295961247677782
Be 3.57399254773361 7.696320875311021 4.151687376402476
Be 2.44726824418832 4.669363066943055 8.034244101864813
Be 2.757233590920454 4.469714252374565 4.685167201532431
Be 3.8739993411397524 6.335445384920548 8.178281116582657
Be 5.458177018954987 8.095169516094414 5.327104096753392
Be 3.0245427984113817 5.851552668589122 3.120374664555898
Be 3.7505292363022145 5.412264339744671 6.321317166410728
Be 5.14331972812126 8.812054690609346 3.4240944875800077
Be 3.2799906571475512 3.3424533671841514 6.478842265714657
Be 4.780269392075341 6.967568904575871 2.525011504625433
Be 3.718429854028327 3.6982699989824397 3.1002872851460324
Be 5.555323411049773 7.070372098527509 7.154914990009344
Be 4.8611242557788685 5.9205289066619375 4.550427096208434
Be 4.476694389273113 4.198670326254389 8.070545090457076
Be 5.781434309210591 5.012810584397881 6.462318546996658
Be 6.541972218565664 7.326871327923554 3.700950352865748
Be 4.635186916506681 5.028182025464953 1.9445091041370068
Be 4.77917975319008 3.7389108889077076 4.968448355676896
Be 5.559671754484239 2.8611548593835217 6.791570780195682
Be 6.590434851642813 5.669854894346841 2.482560184446565
Be 7.117847197362226 6.732129002887763 5.672105948422981
Be 6.556876429204759 3.8615973376330666 8.321951940657039
Be 6.734270573293616 4.832793602229668 4.601138256302314
Be 5.767473230722579 5.675231528084149 8.701988079586444
Be 5.799201432784725 3.713859180070721 3.035790472724513
Be 7.565785406641111 5.475688537562042 7.531144807237356
Be 7.642999774605395 3.4518172062456314 6.63944584888584
Be 6.676625217784933 2.730734717781485 4.8589746620982925
Be 8.235089985488885 6.063658588353709 3.7990976757691914
Be 7.928959381466292 4.024440465951941 3.092690248773923
Be 8.584136315042313 5.103281720750017 5.665116373278222
Be 8.677631887999471 3.167209148271283 4.821671031001672
Be 9.700583065753733 4.651128179100359 3.9193278354171066
