30
Energy = -80.67389757 eV
Be 2.5035300240728495 2.2779587700653408 5.662103082620557
Be 5.553247334555699 3.9693434645913666 5.17648584941505
Be 3.5148315778304524 4.0816598646283655 5.856331197200257
Be 6.886585720870316 3.876368951679058 6.740282662910878
Be 7.691985848155882 4.699511515972595 4.986686639140693
Be 4.956165865373056 4.523279207625581 7.272329471954961
Be 6.074163188202031 5.431445749987315 3.74117254495671
Be 4.156293591312024 5.331986795534041 4.413162503349023
Be 8.609213244488439 6.594864236907695 5.488092980084366
Be 8.333565771558305 5.316814688214964 7.097833634504329
Be 8.026521048973507 6.169352386090862 3.488110619124048
Be 6.224454304720722 5.9945248279534145 6.067969967298501
Be 3.9263470232024993 6.166559564151272 6.304762326763579
Be 6.678991658702512 5.192883270628163 8.307508519339795
Be 9.459435049664735 7.081349182974848 7.309856363432222
Be 8.357010005053125 8.121613704342158 4.09994649031806
Be 6.515707583101209 7.462752953368502 3.3439906198840896
Be 4.930086736403101 7.208823585319783 4.68748282289636
Be 5.005190353220863 6.45758754476671 8.123077258400306
Be 8.57521704001205 8.608084510279264 6.205388438359396
Be 8.37288640322656 6.440190953398168 9.026247541823215
Be 6.691787145092104 8.189901210841851 5.359420572926542
Be 7.1684877083218606 7.290733292500598 7.439206613114148
Be 5.116609581838443 7.9403614643189115 6.700585285024538
Be 6.361763618791768 6.705106496501595 9.671554733544665
Be 8.712932816153922 8.706746857161468 8.329385084710822
Be 6.772599894938414 9.368014339038874 7.095894918839052
Be 5.709682999152812 8.450841989383834 8.719205641126011
Be 7.646965306639396 8.182805659718696 9.985445941126693
Be 7.202986309795745 9.893777715477643 9.035724429234941
