30
Energy = -83.21074998 eV
Be 6.220495967628263 5.352612726930643 9.255210686363148
Be 8.517130966843842 5.263635467416882 6.68818089472544
Be 7.805919888035533 4.316742249417539 8.374235280036812
Be 5.705414768262306 5.830987183785716 4.045138600135583
Be 8.049321343475025 8.635228442409804 4.550863502397003
Be 6.12262229816343 9.24531544913735 7.2452769323378465
Be 7.082028853193012 3.6168306209269394 6.53791979815541
Be 9.446864492119598 8.574466505734199 6.095621628585905
Be 7.88961743469231 9.811043543712872 6.333365583695631
Be 7.9379955088515555 6.3611282732273065 8.413287806806858
Be 6.042443150554947 3.3643595622379743 8.366714182212295
Be 9.516368890337079 6.965295859144084 7.265001286206535
Be 4.772901788898418 3.617433702618862 6.726302149507353
Be 5.852499049410157 3.8664439428533504 4.900171496982229
Be 9.029369414496687 6.747072135360959 5.20888431111989
Be 3.7130711272276464 5.70880908993572 7.0338601006049295
Be 4.5127801224961015 6.905686234402154 5.3698560651384355
Be 4.17139818425966 4.868900625656229 5.183847215646225
Be 8.089197292709699 8.439147644647477 7.870723997717511
Be 6.945888035167949 7.329618373619294 6.1547233724845665
Be 5.882579084377672 8.039046088346947 4.0735668533407825
Be 6.40737935240298 9.829931958822959 4.995424798619155
Be 6.238069831027818 7.454681446834524 8.45283172294882
Be 4.769471426483219 8.945593977319183 5.628578854255154
Be 4.582683527721172 7.701552188970527 7.253587502547358
Be 4.495267402130548 6.402829925810707 8.843146502674207
Be 6.002470441753788 5.58412052766971 6.9420001592260885
Be 7.515211428725188 6.810658506087046 3.770074997856195
Be 4.344880743571781 4.418930184024464 8.579838166274804
Be 7.474026187214464 5.127265565171107 4.977133553629125
