35
Energy = -99.76942586 eV
Be 3.656545518007 4.560158963291999 7.673419969261619
Be 5.254705726686753 6.857264756670695 5.6128857559218845
Be 8.96146260826848 6.765654257128048 5.153416939895418
Be 8.60262023958907 8.498605149070086 7.189779781797248
Be 8.159659775191875 6.456395037673441 7.1942651821907635
Be 7.489253752489319 5.195961393731798 8.885423142907861
Be 6.040744009621396 6.243934540526923 7.57534597817388
Be 9.355933354277374 10.3705756520677 6.42741815440872
Be 5.548413107851048 4.456837556848364 8.518820512498875
Be 10.483905542342457 8.011824192359498 6.0264125758525715
Be 4.376106251921641 8.000360141968423 7.2726893601209115
Be 7.178101781984185 4.306710200000415 7.070187139015995
Be 7.021785248628532 5.679060694131006 5.456831814886606
Be 7.339085121594794 9.455747495535372 8.933892106977847
Be 4.085871300445182 6.364729540538377 8.659351340864031
Be 10.685298770831121 9.24119272426565 7.665718117767134
Be 5.853535890763559 6.160583665695606 9.761116172231858
Be 5.196216828858221 4.750035295666316 6.276575482470761
Be 7.459774642302722 7.357105345851882 9.050855603255473
Be 5.467503569352446 8.100633043588216 9.01931121107234
Be 10.481670894589444 7.161056155148612 7.98398159219842
Be 5.352371784929254 8.953521671622752 5.74517433940341
Be 7.153446729495126 7.788910877332143 5.2924485743238225
Be 3.592404818246053 6.196268816578788 6.572664897170419
Be 8.823929144420587 4.711657367270333 5.842325155876787
Be 7.265234429380681 9.808485141105 5.9760558242882205
Be 9.328796052926098 8.44107966267634 9.241845878832276
Be 5.663469759602245 9.911932312849574 7.6111636060514005
Be 6.607101433784469 8.148320768631033 7.26817609303508
Be 7.560872680738698 11.026063987233202 7.555425119426166
Be 8.90903299969569 8.88488906666114 5.006208738472433
Be 9.351904280161053 4.746791614251388 7.826209403087104
Be 9.216856626698233 10.379761286526778 8.50991781844097
Be 10.433651626630125 5.864796128935548 6.379906755478312
Be 9.203743538377452 6.300048499108674 9.269079402672363
