30
Energy = -80.68969127 eV
Be 9.135022618126621 4.297205112759807 4.980014550517984
Be 4.02418254392554 4.170554558432061 7.599276965366247
Be 7.427285115202166 8.40852581619586 8.257811143669942
Be 5.635168178372152 7.484847178620044 7.232205052400768
Be 9.400121902676606 5.699500388348651 6.630553739597066
Be 11.050906424429751 5.227466621660823 5.252125807473122
Be 3.93859981393042 8.062486319247343 8.955568349218765
Be 4.14265833484232 6.135222480163278 8.35050569406996
Be 2.7861963978474757 5.6980369275860445 6.9235890354122525
Be 10.537109230109477 7.146324764542631 5.4525066766054335
Be 8.497207308834366 7.104111593609846 5.004363388893536
Be 7.353228275535622 8.45096800362829 6.120586396640468
Be 5.7415103027781536 5.3492814084402625 7.282684681236178
Be 4.273448494400961 9.54485770941458 7.58454922739878
Be 4.392327889112407 6.386804196582707 5.707507997178555
Be 7.511674155370392 4.694175015414869 6.364490265277789
Be 9.100955497761014 7.782567269070204 6.945017065379884
Be 5.585351971745436 3.5104162355067348 6.29544618776661
Be 3.437292330886846 7.733603009658216 6.937048821940743
Be 7.683874276674946 5.435688428245872 4.029851268991707
Be 5.618848947878485 4.919224784871891 4.766181376676817
Be 6.4723856993877495 6.68788595655762 5.379683352615681
Be 9.81684767797537 5.941671218442077 3.8728394787624176
Be 3.7652901002405743 4.350340274622956 5.641862050058368
Be 5.6776271677308845 9.143630788246236 9.070980324419073
Be 5.939663337918255 7.038770134329511 9.158992327118279
Be 7.550024143409157 6.500894907570555 7.450370004130735
Be 5.083608475537057 8.705160606842359 5.768735305119687
Be 7.12922697146934 3.5681417239752307 4.754039065978039
Be 6.265882191723968 9.795162343247556 7.204140175918801
