31
Energy = -82.93326022 eV
Be 3.167685931121963 5.868839102357755 6.1972660017570425
Be 6.723066290169718 5.399918304115911 8.454756685456935
Be 4.181149925587086 9.595003147465793 5.644957330309871
Be 6.443317944166518 7.766197991610096 4.840051899416444
Be 3.497837796250074 7.998282351031663 6.644957465897229
Be 8.239487667592858 4.137175364310779 6.440899143865318
Be 7.5039721320303245 7.6049581877502375 8.484010691984777
Be 5.155258952088362 4.9187334498674025 6.994914057375261
Be 10.416340405641119 6.423826154312067 6.557493692252664
Be 3.438833536848382 5.710186146637264 4.148329652297391
Be 3.261773796668112 7.7974878385976485 4.618287549034077
Be 10.678623029806708 6.603525749154451 8.527756072979173
Be 4.855447275490763 9.021757644446781 3.8714926801022886
Be 5.501152869792163 8.589794609646765 7.011418581956961
Be 7.694837320643066 8.323361944920094 6.461147319866991
Be 8.390282192830828 6.233480851949283 7.044108165466011
Be 4.610285597269599 6.697324041894053 7.793688937038736
Be 7.046382433012513 5.630957940475076 5.474099903153027
Be 6.573674464719073 3.461276445122441 7.4664652427893
Be 8.74440800268572 5.9165165027920805 9.187935114197227
Be 9.94905598432564 4.831728944849963 7.764822767659794
Be 8.258278574977496 4.006449703939526 8.519260082435412
Be 6.410584394166483 6.808915090025959 7.02479234383209
Be 5.00910157623819 6.525473165357423 5.575001773792887
Be 4.165772976452835 4.194771890369734 5.354142094652663
Be 5.479800516152389 5.072813256743995 4.049808071156178
Be 6.1920169634801185 9.721327410023225 5.332508729856889
Be 4.840755805253272 7.0003658229295915 3.4562073221427028
Be 6.234649457313325 3.7473951661883085 5.460071984546191
Be 9.347278832827948 7.846706121233803 9.531159505641659
Be 9.48335735668362 8.039919662166511 7.562659139371621
