31
Energy = -87.51883716 eV
Be 7.561188744451954 4.043471928140017 7.105633327619229
Be 6.150111385989282 4.992316599446489 4.019822721186129
Be 6.701288543914067 8.415055160920092 8.075307797479802
Be 6.1778114039383025 7.513673516965213 5.930680488366982
Be 5.0882168928169325 10.030792548902031 5.266412900953047
Be 6.327079715646914 6.136684906848972 7.510686922251496
Be 4.7830163439171685 5.916341010568721 5.499218102572063
Be 4.8962738875989205 7.9324972289764695 8.910027999431906
Be 7.1921160932030395 5.742687945722745 5.668662442476502
Be 4.6100735108234865 5.893882818745988 9.042612272379577
Be 4.183584720924688 7.1006456319498055 7.180857741629916
Be 7.37466692725991 3.541173825985222 4.996353579007389
Be 7.365756970699975 6.791307487855586 3.6651304342774713
Be 7.6699995976979904 5.09228578097314 8.95053166009317
Be 9.096105366521492 4.437674238635285 5.6133511431450644
Be 6.1658293492354055 8.819815265101282 4.0539226070889836
Be 5.792307939864174 4.111708721371345 8.281368930438061
Be 8.018530593644252 8.361419825995757 4.766154268078856
Be 8.286791528865802 4.92558407038823 3.8036801241699107
Be 8.779407744999636 5.790670656794945 7.212299567995001
Be 6.890833465797188 9.49268910642158 6.137324113159049
Be 4.964205263137395 9.05365509262735 7.066654342137784
Be 6.0165430257351185 4.9222451678523065 10.151535272850653
Be 4.18484194953547 5.013694724638542 7.278422734618103
Be 8.18893117604704 7.693322121523064 6.713592424437587
Be 4.286326320886801 8.1236188531913 5.208480490334617
Be 5.685003341575832 4.176476341637298 6.106272590562433
Be 5.354332382051813 6.967351585938829 3.8141776301444277
Be 6.465075003881687 6.859420448456392 9.704348716369832
Be 9.042309956933464 6.5006083090371645 5.0547206216237655
Be 8.202765526798315 7.108553752781366 8.713080707513454
