30
Energy = -83.68946881 eV
Be 5.006057681591796 7.215329000223691 3.1685782871545407
Be 5.662225444562019 5.229609068831419 3.3514251353256914
Be 5.274379771579389 3.906530286050502 4.963237967027817
Be 7.154759785868819 4.796321599299303 4.6696016137625875
Be 7.224989307612287 6.609171591929109 3.571776819314393
Be 3.356710093106396 7.324058647459204 4.530308488946856
Be 8.903000214881533 5.87958292523368 4.752347478949512
Be 4.734240699434266 8.826683272164047 4.556029660479989
Be 8.151154967605303 7.781548236065476 5.215158387509284
Be 6.885921709924704 3.5253788506586687 6.208296365180327
Be 6.594749146006834 8.520544911224805 3.8236436095013646
Be 3.8801625703402225 5.381660949525033 4.340629605592124
Be 3.437264382567732 3.9649183155598906 5.907557481773097
Be 6.358996955170939 8.685395580281453 5.902386075461397
Be 5.65999405384056 6.6682517465614985 5.1565579090987335
Be 7.2361980731037905 6.024552343646532 6.41054634313949
Be 3.158826296235141 6.018528702441169 6.306486224793299
Be 9.47491319554464 6.604628846504124 6.543356785702267
Be 4.188961917046928 7.862859149095081 6.374833381537533
Be 5.857277011597038 7.381181784780646 7.308749598796297
Be 7.911159983910166 7.718108110923497 7.423543287330379
Be 5.346613498467868 5.286371404889101 6.688307632473561
Be 8.747393544753033 4.556038184950452 6.4394434236334686
Be 7.185120327018085 4.181967900229362 8.07237045300979
Be 3.433183652880628 4.463283954346487 7.843277174868579
Be 6.56363386483538 6.1398708521440195 8.619619438450833
Be 4.274573439537072 6.383569746974654 8.168198174474458
Be 8.59244302293014 5.806372016968098 8.194550486551062
Be 5.024108176069085 3.219437715057112 7.170552644830167
Be 5.2339815441336315 4.551238638138069 8.831624397486824
