31
Energy = -86.43881147 eV
Be 5.043108455531305 3.2793656926322727 7.333146960631718
Be 6.0103145168333665 3.25856596836886 5.551129634373184
Be 6.966852495649312 7.554238119882269 6.490970358006052
Be 5.619893323239376 6.681183044761029 8.017934637644489
Be 6.185569036677012 9.970291882335898 8.023111460125671
Be 3.372652515671364 5.757433345041026 5.62408678539314
Be 6.563613558159045 10.122782984232222 6.039141850815981
Be 4.9986281640268055 5.013762007071161 4.514894105763775
Be 6.497810316508007 6.525067311992444 4.148765695271317
Be 8.376406180118492 5.956342595358956 4.953598225854561
Be 7.017508139700322 4.550328850640966 4.3042570246077965
Be 8.828962779452036 7.664632274725798 7.9319953659230995
Be 5.03821337100256 8.831277861504988 6.537227022920496
Be 6.337681752382767 5.345890680838435 6.422624234350794
Be 8.089362800639483 7.806178797616866 4.006882743363796
Be 6.238373035452469 8.604006148614186 4.648744453974675
Be 8.115487984132157 9.4271283363081 7.146659346518815
Be 6.15950352488719 4.569018151752651 8.516912803620704
Be 9.086427730296645 7.82177202894816 5.869939276622988
Be 6.993020826549927 8.250165539318784 8.738934079291306
Be 3.9130702085242293 3.8137565237653326 5.740882960163934
Be 5.05124482911304 6.948082168692404 5.589406612385051
Be 3.7935026445504185 7.238683061191781 7.212340865371449
Be 4.912187099384597 8.516326263003439 8.612444350754432
Be 8.198675557451281 9.51856134174711 5.023643000288921
Be 8.091213930326585 4.033111078136055 6.029244124864392
Be 7.011819273301442 2.876153823688869 7.39149934410029
Be 8.216208316017854 4.288452845023807 8.117272793931294
Be 7.5740211096855985 6.175574865287943 8.560702627926679
Be 4.2746678897581685 5.177371961209509 7.439829226684851
Be 8.884178889266918 5.8846747005985955 6.921958282743976
