31
Energy = -84.75079105 eV
Be 6.349479442779592 3.1114541182677233 1.7124774882534934
Be 6.564849104036924 9.362789226958602 8.135335058115869
Be 9.279683199251233 7.926378019143798 5.59265502467998
Be 5.825341396060992 4.462446134633652 3.190856090751794
Be 6.234291285240748 4.463683151036218 8.528273912151665
Be 5.918757676146118 6.449072718752497 7.7932440286125075
Be 3.9437156176094335 6.941171348437138 8.742572539251116
Be 5.744369465203905 7.819523637170803 9.478308639818438
Be 6.501011650327618 8.49218429099324 4.294003396416552
Be 7.196024776096424 7.594011334587545 6.521781409235462
Be 6.00444830483005 6.476220626806242 3.81835500607032
Be 7.379860650162391 4.108886928616758 6.57168363553148
Be 4.150178324456058 4.90115063896859 8.454700446014575
Be 7.942043484744634 7.016566752809474 4.2808227087952835
Be 5.1849918074289665 7.4537163435162235 5.548769377662714
Be 9.252504318552804 7.263999811175325 7.479139504639337
Be 8.70062791508834 5.89837914357294 5.893016660894974
Be 6.246878134589572 9.529965656166027 6.109544270452939
Be 7.896567547625128 5.740007079780231 7.7947661757554725
Be 8.05429518486736 9.453987987295946 5.1170074785576105
Be 5.080717865444465 5.847399257044047 10.007966992295312
Be 7.580969817959264 4.857035456187989 4.331536631933456
Be 4.654560115489913 5.231447607593886 4.885562025693391
Be 6.03179226253126 3.6375513303691305 4.992168029068458
Be 7.074658396175122 6.078347572301903 9.649300562394753
Be 6.4899965820654355 5.786365987063361 5.8859750418583685
Be 8.424085732900604 9.247606208148106 7.154132080264512
Be 7.723694685745764 7.782497689218505 8.70999485189128
Be 4.973350796482828 8.294751032523058 7.4535929541019055
Be 5.157659336182727 4.260423637906076 6.743895331990245
Be 4.084644700153586 6.157028849184989 6.774612223076142
