31
Energy = -85.3476113 eV
Be 7.6435731357754255 7.147567895315035 2.151033471387673
Be 6.215197282696005 8.726329020427107 8.56374486355676
Be 9.05417519382795 6.237943881008832 3.482197787929607
Be 7.450918616110401 5.936741088310108 10.327626063056254
Be 8.360879722814575 6.52293747421888 6.970148003218395
Be 6.258514968924233 6.3854124326704405 7.980024277438461
Be 4.531931367102734 5.7954386375504034 6.536730091500817
Be 7.133935985790486 5.492645470261306 3.4271385533307672
Be 6.211297721246221 7.459283611793128 10.17478868829014
Be 8.222682172786795 7.590948478247472 4.955718722923066
Be 7.296176367664441 8.803294189450197 3.370860229637184
Be 7.192855011544287 4.62312203066031 6.994514337314736
Be 6.25655686310567 8.595344277055624 5.171969127874663
Be 5.201218889235754 5.349752055300771 4.400510070232558
Be 9.144281426764728 8.17580642963414 2.881637154879008
Be 8.44706511189931 5.4157610249427774 8.656295938024684
Be 5.184111280181399 4.429648744760777 8.14125954616142
Be 6.850988350002962 4.331618493979158 9.307374679664202
Be 3.393288402286821 7.401400283101033 7.184127959012039
Be 3.6726071376578644 5.727489064750681 8.483363402627182
Be 5.286556885911582 3.988405071118158 6.121451279415467
Be 4.499773257713697 7.507692896761861 8.9602836808513
Be 5.99673712115165 7.195919403197465 3.6168405536660364
Be 5.257564661539662 5.640673497481453 9.914152802329918
Be 5.253749815474134 8.043728961348435 6.896912397575811
Be 4.52710497091605 7.294688008152807 5.117017369899171
Be 6.500225923388358 6.439454295971752 5.827110831697462
Be 7.967388330002675 7.546468980104344 8.868670654412437
Be 8.373927040673626 5.3663894729043875 5.261711993646919
Be 7.357103301601565 8.248255660461442 6.917298880072461
Be 6.80676190761602 4.128987392467106 4.886634811780773
