38
Energy = -108.07521439 eV
Be 3.7727477047641425 3.011491536637473 6.6117918841149415
Be 4.504709309462039 1.467261434624509 0.6701832080598741
Be 5.491371372507933 3.3910767609559547 0.8438513406484192
Be 2.3571438098182282 1.7308875115602687 0.47059143282339855
Be 3.8324847602020724 4.826903233956245 0.6530885177322198
Be 1.9530028353358988 3.7911770884203158 0.5207829972220143
Be 3.5876334359670823 2.899857454678437 1.771748186666617
Be 5.7913279634136385 5.371980674670662 1.4806709670197122
Be 1.9693177956920962 5.712892503386444 1.2864945673386559
Be 0.29013953247899155 2.6643580916286376 0.8849097122286194
Be 5.451739611454911 2.092278078588777 2.4843433902696406
Be 3.327067693196702 1.0349560248308178 2.6514447442114433
Be 6.66379334305545 3.8341741623384378 2.812011520341937
Be 4.64001529403645 4.3846325127934085 2.6354567477020394
Be 1.5835560611296682 2.3794520014787923 2.319282034954679
Be 1.721913890247787 5.923497349661449 3.34149036280158
Be 0.8450901532971418 0.823355471783079 3.5299418583671143
Be 3.7001436170691577 6.207332206686803 2.261340493993488
Be 0.5498059207742828 4.405132530342375 2.1109220435415503
Be 2.580429284035632 4.162154399945997 3.0655164848875214
Be 6.6844906952664935 2.554463959160326 2.9352111874847675
Be 5.765951709939444 5.621121340777331 3.798964147874857
Be 0.7573087660853992 3.8730160737556254 4.15482062038681
Be 3.714965658019923 5.7406835945985915 4.236550763829171
Be 2.2716433935898617 2.314229418654719 4.289925348628083
Be 6.376207564930494 2.259678198234765 4.262983184587599
Be 4.215939539227864 3.1523724569345206 4.2296338395402415
Be 2.7160445105029 0.19548089280501502 4.433961350293475
Be 4.66546066383414 1.0357768734415687 4.367469510059913
Be 6.537835838118064 4.08499679360869 4.95184624610958
Be 6.9558714714884635 2.10482474627249 4.945262320456438
Be 3.5002833773613107 3.3653677846512102 6.611791884114941
Be 2.48389943086245 4.450447733475719 5.198960240854879
Be 1.4660901392927428 2.8431464726142193 6.153688851561947
Be 4.733077747840482 4.776525388959349 5.719011044684794
Be 5.322490296705718 2.603881229619734 6.0060783242560865
Be 3.3498329493330883 1.4408114996772712 5.995578398722666
Be 1.282254970239023 0.799846686933782 5.674702383486517
