39
Energy = -109.96882432 eV
Be 9.030125431325269 12.151879445861956 10.48666854489835
Be 8.84736401726547 12.69252819506423 13.966760999787537
Be 10.960303293455269 10.920456266751142 10.388773989332925
Be 14.062501450735585 7.229991270941409 9.163938103030977
Be 10.906846757875147 8.782603504119589 10.032232828847254
Be 14.662526573817459 8.974052253162467 9.967877012519711
Be 14.552522409577806 8.757416086238678 7.92213152657038
Be 8.530529247267784 10.595891313906543 13.30633336381154
Be 11.33396949270485 14.83987413954407 12.313138589401905
Be 7.925112241932625 10.540421443619111 11.26412250033011
Be 12.915526190446707 13.638918361102796 11.470401751469657
Be 12.330505697380692 8.285216300105425 8.506846907607466
Be 12.138280901972157 10.936368417267643 13.665768687951186
Be 10.915022842634446 13.085697830243507 10.908888348651585
Be 12.551799803013761 11.730244714409153 8.352525120668588
Be 11.52351450238006 14.926562062460452 14.494962897439715
Be 9.274104182847138 10.191644907597276 9.611733949458552
Be 13.583162467970388 12.435309955458537 13.054334047546435
Be 10.360346469472677 11.484713821873486 14.558954486376647
Be 9.673247371526216 14.700599688835956 13.769957271775652
Be 10.488774386490398 9.679735420105946 13.507502932106432
Be 10.393158940470277 13.434506423509145 15.23440978009663
Be 13.136043344383735 14.372048916019736 13.391149445241187
Be 12.95053463979878 9.88364722490241 7.397104694093688
Be 9.583895998421225 9.42818515018744 11.613400515748637
Be 12.765011903022526 8.030647731206525 10.542271437649111
Be 12.428585852478378 12.864868840585848 14.792876873022696
Be 12.349678356012019 11.548270998162149 11.724615099905922
Be 14.370017403282517 10.676947621971255 8.65484918725301
Be 10.530861194560279 12.231276313430238 8.891840903723997
Be 9.323407942426249 13.644969332402708 12.066821385942596
Be 10.17307683100491 11.443053461012257 12.248551639952728
Be 7.809639175530166 12.30321396358371 12.239315394711396
Be 11.230800288403362 12.947387000140221 13.081813286566472
Be 12.850858423640988 10.042696045248588 9.99959054535927
Be 12.246487393905975 13.437085466270398 9.43118718291101
Be 11.777358635190012 9.520975696734034 11.877076743107382
Be 13.680211347301384 12.075796080100934 10.208713623271434
Be 11.146500170940772 10.104833346150114 8.39316822381472
