38
Energy = -107.21947175 eV
Be 3.0714512903468583 6.821970349022174 5.605415314529544
Be 5.680721496317542 5.418082389562157 2.132542070941355
Be 2.8222192752451667 5.051898385759357 6.733481849748738
Be 2.942258142458928 2.662114054942909 7.054931037266566
Be 5.116807194986428 1.923396290341697 6.227968618284449
Be 4.076374364126207 6.902748016245012 1.815254790028756
Be 1.4924949210513387 1.554913101310657 5.848190652002705
Be 4.935365197538586 5.813809302051331 5.834330014662997
Be 1.0654545676664173 2.4248363541192717 3.964623549228295
Be 2.187190039892628 5.9396539961920265 1.4647010929247326
Be 3.26096353692953 2.352029992140703 5.054276077303368
Be 6.639014701566019 5.973906459695874 4.1991696046875875
Be 1.4172491460274526 4.719981843858489 3.2959516425627142
Be 4.677306976927822 3.51888714869684 2.458397765859657
Be 1.3594486312078142 5.777376437741607 5.196719114265215
Be 2.2793662333416322 3.8303342209545495 1.3780833102846095
Be 4.424411179619813 6.709795838959894 3.962385260909997
Be 2.3267537051761065 6.682899817785599 3.51213432379612
Be 3.214343693222639 4.8072901533362025 4.6736648074883576
Be 3.9140524288758285 1.494682458889609 2.845777218838923
Be 1.633143578738511 3.685564104409567 5.525368539407285
Be 4.430622409272215 3.8539142634540275 6.19593692705287
Be 3.8153341866574895 2.5377366118965226 0.9476916272689067
Be 6.751027001149265 2.0029293936619377 4.684212469585414
Be 4.8121331541441155 0.7544037315508278 4.560938869220718
Be 2.3625793612273855 0.7486004267713777 4.03947801419599
Be 5.991965711359012 7.40351243833355 2.7227902325005857
Be 6.004756161261896 3.5377325153045636 1.0814506388202274
Be 5.115761363445838 4.767769012190492 4.063886090741451
Be 3.356438024807145 0.6708971857238075 6.182524990488103
Be 4.132023581092768 4.758748330548765 0.7681023106790468
Be 3.5158235130527884 5.15436095355482 2.705205902721778
Be 6.725727285335096 3.746139338253173 3.256310059385549
Be 2.8667594373695566 3.267177869922445 3.310151116864711
Be 5.946766030175379 1.8802108102157749 2.6435217105423843
Be 2.0239442306764386 1.8032831400636895 2.0760115566835085
Be 6.412665829063155 4.005527972107189 5.4491907632319645
Be 4.982494802147461 2.824097673933247 4.31244244849511
