33
Energy = -90.49087322 eV
Be 9.808854107811376 5.1487649145571135 3.903910872050468
Be 5.79269879963301 6.69877097618275 6.901078916825895
Be 7.771967455392118 7.276850629918422 7.354201910653633
Be 7.293396588334302 6.129204764361647 5.484093781764606
Be 7.034888512352037 8.510943625450544 6.034099917718525
Be 4.743937837978018 5.778131597360349 4.941780014847856
Be 7.276043600473234 6.4924745070407734 9.088730603506157
Be 3.7573710778593097 6.119383364095107 9.402305180610178
Be 5.664172425738402 3.970608748454394 7.4385699019020945
Be 5.583492889379017 7.722941427392115 4.812432550215286
Be 4.269980633468584 9.49719719686302 8.457024777859598
Be 9.073703870390517 7.810309312460816 5.864381803555598
Be 4.023586005836104 7.500809395064599 7.985258761334803
Be 7.838833852617579 4.44316659810649 3.9171319199359367
Be 6.326527990812739 6.234150016057599 3.4990884775406066
Be 5.055488304093453 8.821513822950303 6.606422692689361
Be 4.047787326453167 5.4084576886782445 7.201964784136758
Be 9.738186594681176 7.255592221061913 3.978009283575253
Be 5.290071340307428 9.242908992219549 10.147350786155712
Be 6.214431076593345 8.422810884078826 8.35447642585646
Be 5.8204821414551375 4.312423571190631 3.9674370030518635
Be 3.870842930684606 7.260627640370469 5.991290209517826
Be 9.310814888730825 6.07301170382122 7.297097231386058
Be 10.401721067024923 6.192136066961217 5.567324247255803
Be 7.702756885923197 7.872630803132947 4.08878621673932
Be 8.319437149791815 6.174031933432406 2.921386052449816
Be 4.734286858146002 3.8998825740159777 5.6976946641982975
Be 7.383572689752733 5.119126887657332 7.483618551017819
Be 6.857357911642911 3.824781419403923 5.7017423636448505
Be 3.6157927062591497 8.204126874829306 9.913882715794232
Be 5.452099181463066 7.161951042645701 9.96546759376384
Be 8.905337633429996 4.603951344922363 5.776141920890697
Be 5.591573073106494 5.38782286287756 8.827313275170559
