38
Energy = -109.34421275 eV
Be 4.712631328491173 6.940855284259019 8.094172861965601
Be 6.888071153370185 6.224098944258495 7.857483778306688
Be 4.598874441956855 8.697010696642451 6.05123853897874
Be 5.420789202181752 5.15335929711628 8.943629493489142
Be 5.633589977318185 6.896041498180389 6.3142102772976125
Be 2.811643650555583 8.524072029364467 4.92328126001298
Be 4.585227420497151 9.062554389184722 3.9536732572245885
Be 3.23924916465547 7.099139187199722 6.508136627687955
Be 3.788706656648736 5.112714302213668 7.700658021534638
Be 7.6952300725170995 6.961202897896441 5.825296626276589
Be 7.824470809282808 4.958010714336091 6.359352616852736
Be 6.264654749414408 8.109619633134537 4.725635257498774
Be 7.001474970320067 4.154913188089408 8.222913485073082
Be 4.079419300569651 5.360174883182665 5.548236529391667
Be 5.716050298312226 4.8212040897767805 6.567793865980266
Be 5.083602626674453 3.251115959865661 7.8718985282390905
Be 4.468019436517912 7.058979575043953 4.590097124934001
Be 3.2551013413685475 7.633542097802795 3.102088399948628
Be 6.170718035510983 5.7233466398578265 4.670669337974854
Be 7.722734571312526 7.1665045654404365 3.611724977747114
Be 6.7814118504991505 3.019644876096651 6.412906712335629
Be 2.425218565832286 6.383179939320016 4.594537129091998
Be 3.6517343859789317 3.4479300119693117 6.3392993021564426
Be 8.684095379120546 5.625859844128202 4.540943204526693
Be 2.1972327407024297 5.16129558656411 6.239037328903146
Be 5.682164382427355 6.9250081155045065 2.9135259650760608
Be 3.7873214634300756 5.522485015178378 3.2778535446855726
Be 7.518279815128303 5.256591930806896 2.8140893373631015
Be 5.221061131900428 3.739886604720117 4.747431238461642
Be 7.394604007711172 3.930478438788212 4.538401999192298
Be 2.668670706187399 4.147693879281744 4.446706704769305
Be 5.068650094307537 1.8593626226067297 6.0118553431657
Be 5.581564417113559 4.781491329396458 2.740571706149379
Be 3.4437550329718776 2.2239373091366934 4.664709968600475
Be 6.753189983801208 1.8457305513409958 4.672620289744937
Be 6.406283781016628 2.951218304782618 2.9322134942874647
Be 4.063671136850858 3.32383844321551 2.9865135162532574
Be 5.074634236554657 1.5420183822518954 3.696935721008882
