35
Energy = -98.03561323 eV
Be 6.447975531129207 7.795349201436404 6.121593722550465
Be 2.61418157795902 6.942551732192036 4.61648098636075
Be 4.427318038593422 5.736152090883951 8.086797610898858
Be 7.943545214052336 6.288146980152875 5.213198775536183
Be 2.536734297389342 6.841127358466317 7.412872067442719
Be 3.3282075742646247 2.7395000027018823 4.08829994934028
Be 8.135526599198897 7.185200409656797 7.119969546520754
Be 4.43315680995945 4.12399291280383 2.8730201860829814
Be 8.343965276133652 3.6279970601839397 3.4139222866432646
Be 7.722842884871464 5.171760141409158 7.045556817463075
Be 5.758563610277132 5.753870090271475 6.0663034532598505
Be 4.571740206653111 3.896623752519686 7.0661449475531795
Be 6.38259663888859 6.660996295679043 8.04398480457889
Be 4.810599117268577 2.2276928511427845 5.554550428402573
Be 2.937669132321746 8.411824367615631 6.111834164787041
Be 3.6516692954076864 5.69976690154599 6.058696958811373
Be 5.844231453033082 5.622266260105158 2.465437542949986
Be 1.1671970202802773 7.444915292275113 6.047654052139652
Be 1.5873011989816146 5.4686308013511455 5.760033986260535
Be 6.149433985757269 4.607868030822214 8.188096789947066
Be 4.585359196849191 7.568365779345962 7.1959837221870835
Be 6.482192427582294 3.562818180286746 6.366789862149702
Be 9.42191586920249 5.137040947408649 4.211148814124047
Be 4.586098656704708 7.707067656988324 5.096498503825965
Be 5.184925830453765 2.2113538041491307 3.432949516547733
Be 6.617419257162927 4.802984487144092 4.393835601232844
Be 8.31081517094213 3.9194560184522906 5.4454177336025005
Be 2.8851657824974346 3.57694701620485 5.903865533321838
Be 7.866167222947081 5.701246754602503 3.0212267474484458
Be 4.474692345203153 6.006650066294665 3.9622040096233158
Be 4.787782078896719 4.184998091077256 5.002671652478941
Be 6.831518296390414 2.624130424435777 4.524641923987181
Be 6.481904467540074 3.6494818410800987 2.5286910560906684
Be 2.749983684626846 4.7739738821443884 4.180362693418284
Be 6.35057263770315 6.980748073481737 4.0795496993981795
