37
Energy = -102.87109354 eV
Be 3.5420700076027583 3.741348695249324 0.09739267485085829
Be 3.33538975553875 1.6231384182997084 0.26157335020272615
Be 1.47415830937124 3.1290769549737325 0.7099378817951817
Be 5.23934808432239 2.5709561627294644 1.133609266583776
Be 2.415538888681286 4.832353038250856 1.6691505145922563
Be 4.5751631515147135 4.539776623552509 1.8583320166872148
Be 3.2384369459297244 2.7838662187506324 1.8088201057192463
Be 0.29927109698917204 4.5091011111514545 2.045061005115573
Be 1.78912663713646 1.2240109305289233 1.8970120460634603
Be 6.7718513857356815 2.4375242897593425 2.1146322531666586
Be 4.188874849746063 0.9271977137145606 2.1365094850783284
Be 5.804371034312965 6.023387102887598 2.988224079598563
Be 6.460458894190353 3.8538234928855433 2.5967372210428636
Be 1.509285396212279 3.1341568057513833 2.846692973728226
Be 3.5876103142429416 5.9767251808566115 3.2086233314833437
Be 6.353706966466898 1.5491942756795332 2.8296292514651906
Be 4.743035341265335 2.665660760376144 3.1688791651794186
Be 3.1618161700099825 3.8902543450214866 3.4292705244926873
Be 4.8355769922982885 0.9794837510651705 4.376341929705954
Be 4.954872082322409 4.486069870708358 3.989513874189034
Be 6.3754502709126415 3.106920916788803 4.601836296033066
Be 1.562763672776204 5.27415061195224 3.728129141773452
Be 0.6789351446489703 1.621075176685216 3.825355915626787
Be 6.7718513857356815 1.1447077009620834 4.881713030949347
Be 6.700189805814729 5.24090026654223 4.631272272664576
Be 3.93142775981778 2.8105696054182476 5.0897871783353885
Be 0.07941379936137903 3.7891894699646946 4.161262091961877
Be 4.853426550409505 6.347749179785432 5.018418635873505
Be 1.4191634485802658 4.965187212434124 5.865961799432941
Be 1.8271373998743037 3.092052379257264 5.053760826521526
Be 2.8560387512447463 1.6656021959623348 3.6880172429260094
Be 2.6801021826095597 6.73793263383153 5.028273548952483
Be 3.2614749944574064 4.825016963454791 5.081092728224059
Be 5.180894977970826 4.441405140863854 6.1115619377044546
Be 5.455448274400661 2.219934636568119 6.255440907450134
Be 3.554648847768161 5.854293453547231 6.763363251616717
Be 3.2586530326109022 3.758513436013835 6.82111696543644
