36
Energy = -101.28403022 eV
Be 9.74880228248787 6.153595598324231 5.1848012074605645
Be 6.275076223194772 7.125788028579686 7.022630294484449
Be 5.5919348963544095 5.689561145819027 8.774953765312508
Be 4.243158192079585 8.377638581166666 4.5968036546269815
Be 7.673093038965449 5.435020046019724 6.318263860551187
Be 8.195420584698544 7.661227974515277 8.017981398727919
Be 2.7026109443235797 6.964866305245955 5.701648528366161
Be 8.373878219006583 7.560455766327507 5.934511711468081
Be 4.787731842269536 3.257433298664014 6.218237411106289
Be 4.74016503158902 4.584879306302625 4.547789324932392
Be 2.9449315719512446 5.491932512282349 4.218194632494009
Be 4.68332090066873 6.56464369911903 5.551100921172117
Be 6.636899176514072 3.8032430589054593 7.640326299912656
Be 7.633263609968236 5.607960925992975 8.421148661059947
Be 9.486374769169647 6.111030733769511 7.241066565083216
Be 7.194008114440095 9.162207626908023 6.806427363867568
Be 5.415014007209888 9.682610057597897 7.730237295298719
Be 8.170655642641018 6.694251509655625 4.0847445702804785
Be 5.4671150947145035 9.604473038389095 5.677725584494255
Be 4.781823950553033 6.581550550237784 3.508995914517342
Be 6.38773946313169 7.892379489857707 4.811959281845697
Be 9.926220158838566 4.345188818085693 6.108235333396458
Be 4.290345587991567 4.266285807034101 7.919202116724135
Be 6.889820909513352 9.01059510252661 8.927780619181116
Be 6.836692046951262 7.136549441023628 9.573908570386187
Be 3.357675625587859 4.863715080009352 6.175286388822723
Be 8.931289303865457 4.081687160214844 7.84589909999729
Be 5.598063704669804 5.173535518259494 6.579833647011845
Be 2.7943845335210358 7.354888309934715 3.59339609058048
Be 8.250941583473711 3.142090693958092 6.223282751140699
Be 6.5565769303979256 3.7828570920197984 5.293612388799805
Be 4.202769558265463 8.283210206807867 6.746079132301255
Be 5.028256295284817 7.849259575756316 8.764322832049986
Be 6.458707186271345 5.73617459145903 4.574554936062784
Be 3.9851688442857487 6.331792067637983 7.563349575571515
Be 8.402010824517749 4.622443018274318 4.531779613660731
