30
Energy = -83.17866575 eV
Be 6.2927618019433345 4.9781898076669355 0.9653251750439128
Be 4.620957077146199 5.654818168088417 2.0609144384313853
Be 5.885155723207777 3.6968274311166565 2.501595844282657
Be 6.377276708315012 6.72914773074811 1.8667546416509084
Be 5.821182725323376 5.358605576464164 3.731523171860065
Be 7.623570805267349 5.163364199024457 2.5991854367058465
Be 3.8609012181464877 4.05435408234739 3.3940140152268548
Be 7.348768926735344 6.989564071722442 3.621545941284989
Be 3.8555367558796196 2.07662536563734 4.485392310747917
Be 7.383430458943253 3.7548224029582142 4.094675592922708
Be 5.2291565347510325 7.406723611457525 3.502980767823331
Be 3.6614732709638065 6.032405474519899 4.023843438784389
Be 5.121640021471612 5.387282400052569 5.58170206680332
Be 2.0092682931761217 4.86920885311004 4.477082785903061
Be 1.9874322209585067 2.8477934969770295 4.53469627933546
Be 2.830396112021172 6.057808711256474 5.994950956470174
Be 7.54702656703742 5.537990795685012 5.120504526569494
Be 2.753954118541975 1.9544494977795028 6.172106995716288
Be 4.2208165049688295 7.5003510912816616 5.383438770441158
Be 5.462000906581605 3.3526137736251913 4.560517356490263
Be 1.7949999297947694 3.9744822309280106 6.465735080258345
Be 3.6549723481238674 4.028702142214087 5.573110487025469
Be 6.260343672447451 7.207140537624261 5.416092870947371
Be 6.669407701118434 3.8641465916063518 6.164846094616607
Be 4.938599265943711 2.532346684259357 6.440244200420965
Be 4.566425506085324 6.5022096905926965 7.218753930156663
Be 5.0678548973555495 4.3827513437142445 7.531524524387802
Be 3.3479328792631544 3.0940995545196754 7.700254267028383
Be 3.1141160039305116 5.106415561020788 7.75109244029128
Be 6.605837895714954 5.817955973158322 6.978792443530652
