31
Energy = -85.39622492 eV
Be 8.153919764430523 3.1424212284448876 6.492571761666867
Be 6.182296428819357 2.857153902595363 6.75999496196481
Be 7.032986052071234 4.383042849129344 7.841429085109622
Be 4.787934799392731 4.535470699167478 7.217401368162094
Be 7.027255543259161 3.09433375553822 4.69939827253974
Be 5.7542177637521075 6.018616536507266 8.350348085915167
Be 4.001211191766755 6.719918039715672 7.335020799052633
Be 2.6172904753648196 5.265201697899937 7.139600683332717
Be 5.014953633145745 3.502924939720149 5.236901799340076
Be 8.976682349897052 3.892781969614742 4.803225830645893
Be 8.713681609121082 5.124475303589735 6.54931248453957
Be 9.342616949023382 5.86042969668557 4.727891256457828
Be 3.1295039405261393 3.7586066208613795 5.920773052223151
Be 7.519415967106742 6.424467708413267 7.585403635003217
Be 6.742592623856755 4.894376074144733 5.64225608621184
Be 3.504948467152526 4.138398724493602 3.8465714719061324
Be 7.6506564572075995 6.913070972022022 5.569972532155513
Be 2.393327590608855 6.975973126019862 6.0422033067579175
Be 5.661646952164089 6.472833476876826 6.195634935304108
Be 4.133750525897741 5.723309669615928 5.1446812752990905
Be 7.702311661686156 5.134713475451198 3.734827077930364
Be 1.9825055967819896 5.2072511499350975 4.99964420967364
Be 6.262254734632517 8.00875222226033 7.1978660152985094
Be 5.614801024645029 4.545853993395223 3.6236258170524427
Be 4.183276204791298 8.027170503838052 5.651352349832936
Be 6.068169623201017 6.490289826888443 4.069083317552693
Be 2.2001933604059762 5.434369028741946 2.9620468768647394
Be 2.700408511789487 7.094701387191945 4.051167257655355
Be 6.098414227039067 8.355772692817599 5.058682142005736
Be 4.189665914528106 5.973780896266363 2.9340631791087604
Be 4.5707615784942615 7.9030141874454145 3.676589657930132
