30
Energy = -82.26887062 eV
Be 10.46340468142253 3.9757601407413428 4.44755297781212
Be 6.421813460229004 7.183026208934653 4.1023076879990485
Be 8.202455829164052 6.201828982762583 3.457737029158594
Be 4.863791018628993 5.830463266887832 4.465693089540319
Be 6.637341183594817 8.52687241421244 5.741664110881448
Be 7.2899463730766385 7.765914627010953 9.086534326818501
Be 3.8288606469999866 6.143462892147449 8.382275238709271
Be 4.89679286017246 9.364765201894059 6.4681311914168695
Be 7.902426821487402 7.732695944127901 7.161276698823521
Be 5.490894916400513 5.068876478103923 7.793231835824181
Be 6.5845126141997055 9.327795692272062 7.778959684323687
Be 7.263922704547025 4.237697814620271 7.02552019909947
Be 5.634979427149689 8.694172218543933 9.710915389896618
Be 8.750469646823133 5.859874000045447 6.6879316146752785
Be 5.554437613132089 7.433189919481735 7.556336351841175
Be 5.477307959908772 4.332778940441669 5.794364463416682
Be 7.307590688755694 5.93830816861409 8.227118189065877
Be 8.311883299925118 7.408019853108099 5.1450245542933395
Be 5.6286738349817 6.452373340062023 9.489495169392235
Be 3.82382522831545 7.870083742120502 9.386294373913008
Be 7.26205332287613 3.365838261236721 5.140324309354582
Be 3.487354493750718 7.884637887324901 7.155041614854663
Be 4.162156729319031 5.9346782595107515 6.385031136565661
Be 6.623552027228302 4.934745261216398 3.9344391983299594
Be 4.368071376549712 9.536932490539305 8.38740279194852
Be 4.73711534664982 7.668586955056538 5.354377169364659
Be 9.07153921725301 3.9252719953362485 5.934483436633029
Be 6.509820654222889 6.252281058911968 6.095119572843284
Be 9.69915055800197 5.825989691943536 4.812652122055251
Be 8.587425721632785 4.16664854918899 3.736334727547597
