37
Energy = -105.00980581 eV
Be 2.2277578262440145 4.005274533832112 3.234877317759749
Be 2.4061982705913696 5.290023647112706 6.445069345996462
Be 1.7834394687313102 3.789247041618996 5.127385426519891
Be 1.683518816788112 5.769714619974844 4.21122881131969
Be 3.6735017490543016 6.728312459341072 7.398284122353711
Be 3.4015004664182666 5.690288923747975 2.6391543180287584
Be 3.39804010990731 3.4256171449191677 6.54072764412625
Be 5.433657047068064 5.666011887041259 8.4466243618339
Be 5.592722144318108 5.302178409631961 2.238874009077974
Be 2.356779988353562 7.182605871677109 5.746418821272372
Be 3.077799598832996 7.322016029957339 3.8743143157254885
Be 3.591320294952012 2.7500723584532283 4.489888043784292
Be 4.466807734104257 7.40379424485838 5.5358945654777045
Be 4.286751988229578 3.8158266534143404 2.858729852287176
Be 5.117624810696173 3.6058662736014035 7.874393108308006
Be 3.6769310369945387 5.101476482518606 4.669838859513326
Be 5.772053065321571 4.699352755199417 4.426420234061894
Be 5.019128070258998 6.67824973984614 3.6473518594279195
Be 5.701321776328551 7.376062290955909 7.228761507761978
Be 4.793956627255142 5.222914767867126 6.380713052974143
Be 6.526873636749079 6.2604365218806395 5.6170846185599
Be 6.3313628528037365 8.06871550931884 4.5674928041639875
Be 5.808012622471437 2.6222715491136945 3.7335039213733037
Be 5.26636525610947 3.013066806044677 5.727566371250937
Be 6.623097066451081 4.303803231328103 6.558886456763391
Be 5.985924955429103 3.309541256176493 1.818855527495226
Be 7.580785616601655 8.030034193549223 6.366671439318021
Be 7.065074765528008 4.433923463066006 8.4982296113073
Be 7.442277013610499 6.303638007855803 7.7514741174599395
Be 7.411255623386153 3.338274272606065 4.964821064099214
Be 8.563764842463453 4.662007543412517 6.775906686019662
Be 9.023896542866497 6.580384455758528 6.341593512242904
Be 7.06828283082359 6.290290290734201 3.3981986839835736
Be 8.338659023533749 7.404990038456105 4.593436579790027
Be 8.328125291068853 5.212760121702961 4.747330600379491
Be 7.361009856791983 4.20975305552102 3.0308873748331586
Be 3.4667427161828366 4.783524951224748 8.145432456668168
