32
Energy = -87.81436867 eV
Be 8.55556674477598 5.875055252015002 10.105533276623795
Be 5.33214969229759 6.0852711556156525 8.696975766434662
Be 6.976782487344767 8.014504063003102 6.234996232718828
Be 6.824771261225042 7.3195041450414315 9.825124540618903
Be 7.3970861787153295 5.258251179754228 4.6487682264880945
Be 7.454111713220549 6.58117232081065 7.996016685366764
Be 6.447843769875031 4.291860024359126 8.031986229044078
Be 8.330156272890784 4.348418422904489 8.83612043763393
Be 3.4764577999155852 5.056917340146645 3.635820234391116
Be 4.184590303744427 6.755023158433178 6.779200630705176
Be 4.6461309352207625 8.360323519152319 3.514448739727683
Be 5.5322074914115325 7.9082147748664084 7.808748953957418
Be 6.351313464173296 7.0522542938059045 2.9126549794669567
Be 7.82301113012195 7.308470985565635 4.42162435600073
Be 8.464606340755509 6.307413560065642 6.031375432791557
Be 5.558605639818415 4.947983406425073 3.6430461195740866
Be 4.381602228785773 6.520433835299928 2.7072988455880216
Be 8.035899541801095 4.471391776211601 6.7437348558034405
Be 4.8867403113346555 8.497977245922009 5.740628014185267
Be 8.929677695406998 7.932505505464121 7.093221479644091
Be 9.272195789964956 9.464732185744198 8.481551492109068
Be 5.715893428191037 6.741713092326414 4.856715873830442
Be 6.425823702273464 8.792979409041957 4.276286547222305
Be 7.342232241783238 8.738164538261156 8.242833837240731
Be 4.545605064293728 4.719440210601596 7.359156200361381
Be 3.576811284030934 6.96885419086469 4.675987847856419
Be 4.385835033126404 5.170850385799114 5.447007924651619
Be 6.715359768424616 5.168495821845178 9.917936963587175
Be 8.898095012362706 7.640171624772602 9.245091349367263
Be 6.08806434721909 4.036383484472196 5.704098719051936
Be 9.439719208947885 5.943628832040891 7.967364605280535
Be 6.194347118453415 5.910933261274708 6.607937604583376
