30
Energy = -80.46026817 eV
Be 10.749572892961384 3.0463987347643893 9.587204194499964
Be 9.827295273996622 5.5818760775212874 6.554542090410376
Be 7.124030353217554 6.406067199917319 4.177581662169517
Be 7.780796712001001 6.008104511969387 6.773896996890039
Be 6.3222818512725745 4.053493693251964 7.222163851877928
Be 5.4170264785213735 7.870324163450393 8.019757480704076
Be 7.415418473660334 8.202671874438009 7.471428644741595
Be 5.653849240919841 5.823665367238883 7.986703144505322
Be 7.655174457210014 4.868983049551816 8.640410154701225
Be 7.6395202655240775 8.30881007631308 5.364749592451173
Be 5.610028855901837 8.098778861339497 4.3480163867490464
Be 4.67266315789495 5.134889712765661 6.31264249611603
Be 8.384512499222161 3.965552694441344 6.790953315008979
Be 5.84213965278385 9.057795890661433 6.287962023545073
Be 5.0169781932799555 6.005532742970563 4.39135313292184
Be 3.4853629295934625 7.496031220415327 4.1384201690018365
Be 3.970980567721075 9.290373474056224 5.255313526616855
Be 9.038817833441238 6.8610724069658655 4.849978464848758
Be 6.479068384040955 4.732598610691553 5.318605163552215
Be 9.750693767401664 4.483418020381787 8.324370960475376
Be 8.519952704155731 4.9265317270111435 4.944610553698452
Be 3.575686785606683 6.626996905086912 7.616226381574507
Be 3.712807923426143 8.91950953083655 7.229295780643903
Be 7.099617064392161 6.875994937786291 8.970403647450098
Be 9.265798225300488 7.67583953650029 6.669454428397266
Be 6.250567184997564 6.85912589010681 6.064581557189795
Be 2.409913129412482 7.984097417596419 5.939157020484455
Be 4.407809483776974 7.386919822548985 6.016396646374714
Be 9.088883037069566 6.48892039514751 8.381803711715008
Be 2.927966910556269 6.054839743533597 5.447231109945323
