38
Energy = -107.06409826 eV
Be 9.315075519802582 4.9916288249016025 4.095653578091801
Be 5.437682653251966 2.8702139089786356 7.579467082409397
Be 6.3426375980348375 3.5409868929032187 5.589059745983314
Be 9.714074632700818 6.930516817889538 4.1400787155195555
Be 7.483167868393803 3.104299095503359 7.37637437585903
Be 7.438680678080757 4.216961235765368 3.7704917242740223
Be 8.400981690643443 4.125514499298044 5.698845763972659
Be 7.851250202820241 6.284683031635689 3.325466673957245
Be 9.077081984925025 6.143165277263172 5.91671229936508
Be 4.511952684810792 2.489088593109046 5.323625082915143
Be 5.4191315509137095 3.4010324673526346 3.6027509737382077
Be 3.9051235243288316 3.811090316705617 6.751746905982428
Be 6.448161709346113 4.167508182910453 8.804029052028165
Be 5.845449646120715 5.527649110959664 3.2078300170371614
Be 5.585230917684349 5.152847422585085 6.852378414998751
Be 8.075100316783491 7.762130271112682 4.9779478709169
Be 6.946080160180275 5.767256609701324 5.246394207143665
Be 7.719139841834407 5.171559587048841 7.368252808031466
Be 3.548322901184429 2.6485778411696232 3.4650363983081536
Be 4.534544678876643 4.901646329049633 4.979925915980082
Be 7.285106589950462 7.182462612962242 6.9173114696662825
Be 6.191861597914534 7.534625799710618 3.9661449037281367
Be 2.0192942957730144 3.932519414846118 3.2348855996821704
Be 4.484545670085507 4.6823178039086875 8.546589634394374
Be 2.6354336514320855 3.5899962362377993 5.119060177213464
Be 3.904422808958714 4.747701919876329 2.9207798633109086
Be 5.145460815321028 6.892957232331813 5.815985512683244
Be 6.295977677613519 6.260218640015921 8.588370198500089
Be 6.374003935182521 8.714229151636497 5.772937250396437
Be 3.3689303825939168 5.841742842337321 6.625212545219583
Be 4.148688646063285 6.754479844225976 3.621110041825766
Be 5.68959769922532 8.273873847936379 7.797880288077667
Be 4.3619695605294 6.7668166200697195 8.29748761085125
Be 2.4786099406714586 5.572079986962214 4.387347355833255
Be 4.474166775622874 8.650494482816173 4.8186156124331285
Be 2.9311268098278442 7.3884004452400935 5.155160494951907
Be 4.849043960024456 9.722556536898693 6.562043070955708
Be 3.674392500840018 8.120366695556609 6.903165781034316
