35
Energy = -99.52723685 eV
Be 3.898333122630108 8.130480765842828 6.8488346009053265
Be 5.934451980144285 8.090808186268315 6.3777962198527405
Be 4.238505084323336 8.012075143135524 4.874919611029177
Be 2.2488921854181547 7.217993327152983 5.77573904739437
Be 3.007716767381954 6.663588852867052 7.89896245213465
Be 6.1495207453123495 8.389085366343934 4.253571970888073
Be 5.167691943722877 6.5316247433904735 7.673806063145815
Be 7.733885863095107 7.6200936797594565 5.3076839168062735
Be 3.0663828974415 6.74791632081922 3.82018667895561
Be 7.155324668088608 6.3222664215199575 6.9298096219872525
Be 3.9292259279716566 6.0981896109609 5.908497907052257
Be 5.021524689705063 6.905120362507773 3.168600755484008
Be 1.9957599790904352 5.310766844827033 6.770195551053151
Be 3.9016163885733692 4.817054879494549 7.878014626762512
Be 5.9151389802437455 6.333817851600646 5.104701529298792
Be 7.218092978532357 6.728231744281997 3.413750208871976
Be 2.2623570145420864 5.144622286524524 4.697400730587994
Be 8.195811624610425 5.635561871133893 5.141124449851554
Be 3.250347665576742 3.829189701541283 6.102363614098734
Be 7.8230648600491675 4.382049203246843 6.682255711144
Be 5.406329893266996 4.719817977232388 6.37472194604788
Be 6.256057822789581 4.3821718686394675 8.105984990459945
Be 3.125360400256007 3.350375622801658 4.08073123593087
Be 3.557198489496509 4.9980510540251935 2.7331165002691256
Be 8.12640810538688 4.849557711714576 3.2955948789871923
Be 6.006605559556686 5.0636517583311464 2.7363110388902867
Be 6.50495653937022 4.293329153479649 4.735497803898556
Be 4.540307275226629 4.877038042919975 4.421615449506032
Be 4.801666753409768 2.9536393363105486 7.352284149630628
Be 6.658976186794438 2.7806260773522204 6.422220033791756
Be 8.283854516510994 3.333355000892147 4.837974891504306
Be 5.074698466413709 3.1986180659027834 3.223830482825347
Be 4.819909784609666 2.7088486049237908 5.285044861677949
Be 7.091801108924684 3.1824704480698984 2.8500818310497595
Be 6.580367129459796 2.051640200007852 4.45843476299393
