38
Energy = -107.13135481 eV
Be 6.558517289977833 11.406598618922075 8.117423270752996
Be 11.564721703652674 10.78081027010936 11.99748383164658
Be 8.821014524170941 6.633049044839575 10.401144587687583
Be 9.052912278746815 13.394085523677445 9.898993537443138
Be 10.528317280652155 8.710474625171033 11.331948703136671
Be 11.38042834392426 8.029166752709 13.36075841643957
Be 9.134337096080698 12.809526435899024 6.207513286305252
Be 7.116319328371673 12.658727388806907 9.653350981429691
Be 7.640106027711703 13.150056537228929 7.71384318303122
Be 9.768434380704125 10.82164275400867 6.641277154038477
Be 11.836064319630948 6.357195590145208 12.182039904259156
Be 10.95112457854982 12.784668663581266 9.2249255741486
Be 10.300808421857823 7.562076546896903 9.385771588059876
Be 7.542012664749872 10.636770566117844 9.819023717625969
Be 11.603634166623921 9.289510753651978 9.46567013530977
Be 9.329601283106516 8.929156767129562 13.199419171400393
Be 12.092346742313534 11.251636056891568 10.074985247272114
Be 8.36614766662711 12.021673489719843 11.217143810365013
Be 7.883772094596452 9.85169616966635 7.8361348845444985
Be 12.923275067479398 9.430618376290495 11.041597096896407
Be 8.213336157049486 7.967088870238901 11.752465186386896
Be 9.6074754193595 11.05949086304413 12.6538242733485
Be 8.17424216238327 9.970269900370562 11.703577462185764
Be 10.984950125058027 10.000390456599147 13.79292134748403
Be 8.50824363285439 8.774042799772554 9.85114522132121
Be 7.753984751352672 11.3524772086631 6.458663085148509
Be 11.268526936783953 10.928081526659447 8.20381763643544
Be 13.271768656725747 7.775353124634593 12.229987370919375
Be 10.482697990969223 12.501978328492738 11.24516451656187
Be 9.793669841793498 6.817078260539974 12.375202715830172
Be 10.965042731869124 12.563942886347231 7.054086424246413
Be 12.219858842407078 7.437520518396793 10.448785854957109
Be 10.699827920280422 5.965147502630345 10.563359442757145
Be 9.640283645020116 13.834118435695698 7.916566724140309
Be 9.877626835481756 10.663027966158236 10.25483207145172
Be 9.849148685583456 9.481283715830216 8.341352461675086
Be 9.082668134114723 11.677270613062257 8.495853351379989
Be 12.88725760467321 9.564394908779041 13.119917650650684
