39
Energy = -110.18499454 eV
Be 10.04775953915827 10.630491649356577 14.643634817566332
Be 12.402084872372003 13.199075833200814 12.136372297523742
Be 11.792210699747349 8.959747619253237 11.37832320376421
Be 15.359445221887205 13.02438653225635 10.068942479267585
Be 11.975369615026352 12.266071752905852 10.126990742872948
Be 16.36491152531593 11.286486880772312 11.03616667661761
Be 15.880461196143989 12.89121374905742 12.116065323302298
Be 10.958064428003746 14.13120136451064 10.359254735238897
Be 10.190044973307964 12.266888686446423 11.20427115613915
Be 14.292208060852207 13.104236515294508 13.41945083806137
Be 13.661124253569254 12.14349773211959 9.033349536985696
Be 11.697442206772129 14.695409526693014 13.52613457409552
Be 10.33420088550081 8.516633350952867 12.762520069798187
Be 11.660455939955538 9.855155912591302 13.505117532296948
Be 15.132477311385854 11.05085099937428 12.873215863909135
Be 12.42144321638481 15.233349538887149 11.45863769585376
Be 14.368733935258179 14.229347557282871 11.647281956741592
Be 9.10206402223927 12.573992466377122 14.846865917353819
Be 13.428800847701082 9.798633066736517 12.343279351775173
Be 13.046009042287324 11.500845862189275 13.419811413568448
Be 12.417073361086823 13.073595010712307 14.710274544951153
Be 13.039026482243054 10.332377497633788 10.120279279026756
Be 10.768463001862148 12.181968490047627 15.986370331985063
Be 13.886250213132186 11.942669373782612 11.32175053974258
Be 12.141017925990315 10.988570183266656 15.17516311341002
Be 9.291358769456284 14.181161811210256 13.459011984109349
Be 10.870304333282819 12.268563226699019 13.408412656490817
Be 10.579301287544068 13.989696268111082 15.114081351106735
Be 15.014850353029466 9.755311970967709 11.1057964657404
Be 9.794301359011921 8.866531438065023 10.78142772519194
Be 13.206808664625196 13.920648794573395 10.058414415459461
Be 10.422285903811764 15.33459507501769 12.024464595361414
Be 11.829546112535274 11.071324442274264 11.766380876954287
Be 9.82072545019488 10.481591886158798 12.4908892502265
Be 10.834546954546 10.431504481697731 9.990387987563366
Be 15.189026286070076 10.912297685896412 9.457890457712699
Be 8.721724328018789 12.242658549204913 12.779559126829984
Be 8.85205318372815 10.706080984317403 10.667094174764129
Be 9.046428145371586 13.953405729059135 11.41778261590496
