36
Energy = -100.46357003 eV
Be 4.596471294715232 4.016194354779463 0.5459854368358056
Be 3.6884762890062466 5.941566379414258 0.5239889511349854
Be 3.0285028554351046 2.3318983132080406 0.9875943663147995
Be 2.413481462927305 4.492115570268244 1.3104579698037613
Be 5.08202471793121 1.8584891785655389 1.1908297861040604
Be 3.5766040327314954 0.3429816984010645 1.375645820899183
Be 1.0140081610504579 2.75859277139508 1.2954457302451776
Be 6.117483513495592 3.439255343544104 2.2343042107189888
Be 4.826554152719187 5.530669141850093 2.164003109403164
Be 4.125209253364095 3.5141242338946963 2.406916047869527
Be 1.906084142962056 1.0577725494745982 2.348328592360179
Be 2.7624026659121808 6.557379185886294 2.3124898599257837
Be 6.517165664672376 1.3633652657592596 2.6571411401456264
Be 2.084676808577246 3.0744665219625733 2.8975077838556933
Be 3.887755376900989 1.6384552087267343 2.9938286258408144
Be 1.0706602855785288 5.146224799733367 2.930482677634909
Be 5.271993156656925 6.686709805999327 2.317485074029592
Be 3.0571067699789127 4.880544323359221 3.322578594620642
Be 3.526290296752257 3.1286889005251624 4.358519936407757
Be 5.170292054972719 4.610011660968734 4.034431233795594
Be 4.210815471305035 6.515961011153777 4.079783983236342
Be 3.3273704165706053 6.707886504110496 3.6815172595336016
Be 2.116454304601427 6.396013565062618 4.410359945454985
Be 0.3707718938465911 5.5721575542230575 4.952359054803695
Be 5.51843979124834 2.4942876512524665 4.117230001489838
Be 4.044160235401049 1.3936302124903421 5.326489782720166
Be 1.5469493451361689 3.9302253897640735 4.728581917189126
Be 5.466593008202881 0.3191700430387293 4.2141415343569975
Be 2.149540309408524 1.555311736644818 4.41818480207783
Be 3.2740638625851988 6.686709805999327 6.23835651628265
Be 3.4029784765249946 4.899646496798265 5.2318096046230815
Be 5.170999093759237 5.72417335630501 5.904008562133697
Be 1.798016563051538 5.177390816340394 6.464916672561443
Be 4.8489444395193315 3.4936403335517086 5.999565084908467
Be 2.7784057441690626 3.136258428680591 6.312664006763257
Be 3.789940747544456 4.886058195737708 7.249752983133855
