32
Energy = -88.99379198 eV
Be 8.082944321568942 7.181669349974101 9.107957309163305
Be 6.968103102933713 4.007718533855518 8.153995934748414
Be 8.510605001607587 5.432578208687712 8.14314906566322
Be 6.599509161989132 5.706947159953981 9.296588808950583
Be 6.064740563041437 8.00151403015516 9.155337346432665
Be 8.861340516092579 7.286893579284371 7.119412689072058
Be 6.302116125155502 3.405045475505062 6.305888342020874
Be 7.807059789727572 3.759729277562736 4.738778278843958
Be 9.324340740957552 5.084248928622869 5.242858276457271
Be 7.732089575592596 8.868421963388954 8.053305809024035
Be 7.717036161758965 5.716367768688838 3.8802579264583628
Be 8.396144415176115 3.68701282648436 6.670548992818492
Be 4.903819070816282 4.3011453582042245 8.113699699396237
Be 6.712543822019366 7.0496649307786585 7.397760818745454
Be 7.662423475061683 8.655872519206119 5.951735472949742
Be 7.720283836623449 5.639116616616886 6.252866041720876
Be 4.02096325882 8.959065543801929 5.798781921110014
Be 4.776048721688409 6.381166266226104 8.560658453149099
Be 8.655441160601267 7.129667845560058 4.963093147176593
Be 5.8272324517058705 9.12184021951639 7.187785687636247
Be 4.2789634764710796 4.171670376806923 5.911434101913615
Be 5.72503139719292 6.270986469110773 3.313262837602847
Be 5.909875630963873 9.239004173196498 5.040580192344173
Be 5.652521593291978 5.449721689751377 6.632268604624274
Be 3.561185548447122 5.747680715202427 7.0143012346675855
Be 4.223757896422572 5.9995404883481465 4.880363661564191
Be 4.213485978822039 8.265226733405726 8.107186816334936
Be 7.058529037396987 7.903499563981976 3.7175063981340473
Be 5.913080155806359 4.582259502748306 4.550836246438441
Be 6.3698741178211495 6.868348867498453 5.2594809340029025
Be 4.772376580473594 7.285160650427419 6.465001917326194
Be 4.756801121777648 7.921482175271691 4.093584841333521
