38
Energy = -108.98030424 eV
Be 7.377604761001731 8.897707624897153 7.377604761001731
Be 9.137650468863587 9.137650468863587 9.137650468863587
Be 7.377604761001731 10.33868385 8.903595094057854
Be 7.377604761001731 7.377604761001731 8.897707624897153
Be 7.377604761001731 5.857501897106161 7.377604761001731
Be 7.377604761001731 7.377604761001731 5.857501897106161
Be 8.897707624897153 7.377604761001731 7.377604761001731
Be 5.857501897106161 7.377604761001731 7.377604761001731
Be 9.137650468863587 5.617559053139875 9.137650468863587
Be 9.137650468863587 5.617559053139875 5.617559053139875
Be 9.137650468863587 9.137650468863587 5.617559053139875
Be 5.617559053139875 9.137650468863587 5.617559053139875
Be 5.617559053139875 9.137650468863587 9.137650468863587
Be 5.617559053139875 5.617559053139875 9.137650468863587
Be 5.617559053139875 5.617559053139875 5.617559053139875
Be 7.377604761001731 5.851614427945607 10.33868385
Be 7.377604761001731 4.416525672003461 5.851614427945607
Be 7.377604761001731 8.903595094057854 4.416525672003461
Be 8.903595094057854 7.377604761001731 10.33868385
Be 10.33868385 7.377604761001731 5.851614427945607
Be 5.851614427945607 7.377604761001731 4.416525672003461
Be 4.416525672003461 7.377604761001731 8.903595094057854
Be 8.903595094057854 4.416525672003461 7.377604761001731
Be 10.33868385 8.903595094057854 7.377604761001731
Be 5.851614427945607 10.33868385 7.377604761001731
Be 4.416525672003461 5.851614427945607 7.377604761001731
Be 8.903595094057854 7.377604761001731 4.416525672003461
Be 10.33868385 7.377604761001731 8.903595094057854
Be 5.851614427945607 7.377604761001731 10.33868385
Be 4.416525672003461 7.377604761001731 5.851614427945607
Be 8.903595094057854 10.33868385 7.377604761001731
Be 10.33868385 5.851614427945607 7.377604761001731
Be 5.851614427945607 4.416525672003461 7.377604761001731
Be 4.416525672003461 8.903595094057854 7.377604761001731
Be 7.377604761001731 8.903595094057854 10.33868385
Be 7.377604761001731 10.33868385 5.851614427945607
Be 7.377604761001731 5.851614427945607 4.416525672003461
Be 7.377604761001731 4.416525672003461 8.903595094057854
