33
Energy = -93.68726924 eV
Be 9.561745556298211 4.9486996477483975 5.725746606703856
Be 6.5858241591376085 3.531227060420374 5.303888662109764
Be 7.879950394307011 4.394846054170328 6.748304418766808
Be 7.699250653254897 5.25208603573131 4.72823733656794
Be 5.891169524418115 5.159806446726244 3.8163255630681623
Be 9.428227800624239 6.459586845196931 4.305912512641434
Be 8.873990047412613 8.295380806367342 5.24942250870043
Be 10.41312581346911 6.729900330469706 6.037510147458292
Be 4.562899314433591 3.8640451456638396 4.597246726482277
Be 9.178829639071534 5.818537921251565 7.696335304703688
Be 6.015118000804492 3.7843312996822465 7.58355240049653
Be 4.94854905043735 2.7078480492226698 6.250161002295262
Be 5.9676133947647045 5.413745096042774 6.263856992190302
Be 7.574367146044354 7.217283629805581 3.948573687572015
Be 5.853930991090504 6.942471252727794 4.945363038410876
Be 7.735857657044798 6.729449042236671 6.304060841661173
Be 9.423502686232634 7.9026114007821135 7.309676997753826
Be 4.945105338627331 5.510082519792034 8.228349642562126
Be 4.565972826915228 8.386661441750956 5.478093082229013
Be 4.028033466041327 6.6494589469000145 6.571528394906617
Be 6.717808950088704 8.765771985525253 5.238640249586029
Be 3.994266040227993 4.50665744922447 6.6068297359122745
Be 7.030652482373117 5.59786765420479 8.220517372796035
Be 4.081419070038214 5.811120699527448 4.720899780109783
Be 7.688755247724059 8.950254228424768 7.005760557942877
Be 7.867659695787642 7.414687713000374 8.505511499492634
Be 5.945009291225394 7.411908940840437 7.213281637926197
Be 3.812661506674669 7.155743937833238 8.637319043103245
Be 5.559618875984201 9.5717887604519 6.949974112560022
Be 3.6307442784525077 8.674539437749043 7.251580098244423
Be 5.862937331869445 7.081667453160016 9.389305984237751
Be 6.613048563217467 8.982186702833319 8.74978663168682
Be 4.628431749938157 8.943822608565858 8.984523973150898
