32
Energy = -89.42106461 eV
Be 3.2341132098984082 2.8870893151088244 8.540435888776205
Be 5.7653193002291205 3.8040516049983104 4.003039208266206
Be 6.312190476664467 5.414807689807943 2.7027668183037314
Be 5.311761274626723 2.5550445846676357 5.6428403409120165
Be 4.3845114553002915 4.71531243537494 2.770342770641281
Be 5.065494051426845 8.509867418753132 3.432205905430683
Be 3.4666520886728494 3.1676294465453663 6.494653449702645
Be 4.753379359691036 6.112290316913627 4.573276394554181
Be 5.139846916951415 4.655644465959945 6.137653303741276
Be 7.287753243656412 3.4565654806830453 5.5298002377425135
Be 6.5178468460886005 7.397144779356035 2.508664808357581
Be 7.4311989701259815 5.152814716170408 6.907963352037152
Be 4.128059984569394 6.59247767893004 6.816367705418116
Be 2.8633147448988936 5.153449115690536 5.875764495297255
Be 6.685848961830041 5.493272582650437 4.890198505626661
Be 8.131929489606838 6.327263481411636 3.5984933123611347
Be 7.806985078846676 4.18791383487438 3.5970641539227186
Be 3.1571198826171596 7.85659310767181 3.5923406130827167
Be 5.631758600711767 5.537018297943259 8.047866864599383
Be 2.716827280210833 7.15509553891552 5.41458104672387
Be 6.426358981557622 3.3837045321785086 7.457202427555167
Be 4.481175535538893 6.7471627581118 2.393805028247611
Be 2.795820052651108 5.783819448844818 3.760622064895007
Be 6.110330902657842 6.84931073964471 6.438746097591385
Be 8.118385024266697 6.7813849309059195 5.717003400583506
Be 4.62222779242911 8.133683985151215 5.412762464302988
Be 5.030510303878666 3.738869549199201 8.939508037435878
Be 4.837858107034544 2.0666396841459522 7.631768507029148
Be 6.606908341448633 7.697347360067065 4.562038228684389
Be 3.7665744807627664 3.895993757949255 4.532360739641821
Be 8.79322868542365 4.92150245251722 5.202008395312873
Be 3.6052709525279196 4.855795285658259 7.862415810024112
