38
Energy = -107.26697242 eV
Be 14.781151431381682 9.181865351126884 10.854691345776276
Be 11.789099987642158 7.170279632478208 10.250103169322248
Be 12.646307249655363 8.887558113382083 9.200294705091759
Be 9.24223913047933 10.093813263343092 11.26353121863779
Be 10.436762339156846 14.414437580340518 11.34118029181118
Be 12.981046743734204 12.326296243437302 9.70201614969788
Be 10.444967625242443 10.633014034766177 14.043237734864688
Be 14.643466714004626 11.001812184412259 9.88474551541152
Be 14.766914514690061 9.120467904396984 8.912125698773119
Be 11.867606481093002 12.177370787639083 7.989478299645165
Be 7.441629912974245 11.127960292992496 11.521774659577297
Be 11.165137718822995 13.431724695387475 9.47354770271021
Be 9.876865185446626 8.958746228859662 12.862936131391828
Be 13.296419035165089 10.694385012089246 8.382798212244738
Be 12.9410143135506 8.357658569286766 11.454133212821658
Be 7.6859076902506684 12.80507019685688 12.772840824514393
Be 9.869112902601128 11.95889456276219 8.300013770355843
Be 11.95451859956039 9.351339764384837 12.95511835441402
Be 9.455001220445874 14.126609590117114 13.1720380215813
Be 8.373017541332015 14.488544452930812 11.523226444774654
Be 11.08993515289105 10.991268348038355 12.161225815794909
Be 13.926267638287488 7.44453987921377 9.906901942496129
Be 9.216398270183582 12.35258407521142 14.202706966078521
Be 7.362397106003795 13.011653980097556 10.670901548415356
Be 11.796483524029494 12.784159392213244 11.361634740073407
Be 10.684542388695629 8.193034552522006 8.874557992178564
Be 8.56558895379045 10.714484129981942 13.209053897438634
Be 9.142946788815127 13.573832726652721 9.7253199702577
Be 8.55674966104623 11.537190176767902 9.848463305136338
Be 9.738494671675683 7.9095561857863 10.829722325436189
Be 9.46109710273526 9.77072379540074 9.219403290439736
Be 11.174201722347833 9.364213589024416 10.787548625522913
Be 9.553842039510265 12.324417115200266 11.655261745361084
Be 10.812357922353854 11.348361656890894 10.125528575288065
Be 11.210389271082965 7.509179043404833 12.24479047683998
Be 11.223594015516813 10.174248565401328 8.150697593683002
Be 12.972353949110285 10.58290626543083 11.106486108246068
Be 11.006691054436628 12.723105433613187 13.336552517488583
