39
Energy = -110.95525149 eV
Be 8.095692008815586 8.396958505705474 3.5639659068605387
Be 6.300362627955496 9.159698604121605 4.138700094468616
Be 7.813109937465973 8.983310594058237 5.567061519662932
Be 6.280402294232168 7.4753065060583666 2.7744257601976563
Be 5.856272105201806 8.559052684615772 6.178096582103113
Be 8.243187885044003 6.3477999968506476 3.270424886133481
Be 4.577226393786007 7.957321078178774 4.033065738863746
Be 6.209966687983083 6.837771705278183 4.824614858919936
Be 6.764386766485384 8.028629349246293 8.090511484134067
Be 9.062951019029457 7.274995179923146 5.019688888755728
Be 4.664627406900592 5.992049550626914 3.3540391445255042
Be 7.74809392568126 7.197350728620545 6.54618370100732
Be 6.542962554519059 5.4147575477594625 2.879940326862731
Be 2.965760358328418 6.468304216038905 4.373576434166733
Be 4.7398418995601785 8.051003986099325 7.941125702320345
Be 4.068631411792918 7.393423095868186 6.000714581951104
Be 9.565713864527295 5.359908856890119 4.5471846567116705
Be 5.851950195943724 6.354137844038042 6.8753612537783475
Be 4.37130617267178 5.320494465272883 5.706488029378194
Be 5.621938889651356 6.584148432191959 9.14695209174782
Be 1.6973089582291976 4.913278162926075 4.744339118801815
Be 7.951263904715001 4.174241732902687 3.7745496562334084
Be 2.3579666508919233 5.991663462851804 6.304679684651876
Be 9.069662236797221 3.752780322688598 5.682709084384964
Be 3.9033041991036543 6.154352005520933 7.73020698200217
Be 7.41259101938038 5.334235869225279 5.508965472774271
Be 5.757155395563272 4.207360678850231 4.331911518234163
Be 4.177337434305273 3.576709960759538 7.648604280369015
Be 7.5493063822834525 5.995620164836912 8.23294548596899
Be 9.229873428528846 5.657398299195563 6.647886031239764
Be 6.0179829166999355 4.594565936979095 8.611450555624538
Be 3.550074214071899 4.2891107659888394 4.079876712102056
Be 2.4552338945734213 4.629348659601305 7.894038392948011
Be 7.861985147044621 4.15180731393536 7.3467158610870555
Be 7.167724697327675 3.077286539689452 5.423825136789456
Be 5.902575589541226 4.13937820154911 6.623192671845084
Be 4.5508420921284465 3.0689395608918146 5.539111798491227
Be 2.6768784171231292 3.704457450830968 6.078315191154521
Be 4.116623396063205 4.891731705224856 9.28938973771364
