33
Energy = -91.81558168 eV
Be 1.951974354316151 8.341915917676072 5.321578608624861
Be 7.32225524660539 4.2616405400841755 4.507103997592884
Be 6.037991229674073 9.028203705418356 6.498590899161867
Be 7.59268373922644 6.605161151828033 7.723307773741187
Be 9.332609801619542 4.222523878781899 4.219290354221168
Be 4.395517718933542 8.656689996828803 7.68497951082296
Be 3.382988586296405 7.884885800304201 4.0003687036730255
Be 3.8925721948516996 9.030814676389529 5.739514069956505
Be 7.987029437872584 8.549298088666628 7.2944377214911755
Be 4.612258026019916 6.719405708647489 8.365092593404128
Be 7.999278580109353 7.737175508367776 9.47683810209526
Be 8.621263930930867 6.170668670500688 4.289914583697346
Be 4.358618074516338 6.151157381210024 4.4710308046797405
Be 2.8926923327765524 7.431690484208989 6.994780254627405
Be 7.591371936586595 5.592512984532203 6.053528321834343
Be 5.538852955751805 4.859263391627657 5.579504304936543
Be 6.4730298449534285 6.2269004953139575 4.295153796149505
Be 6.841147350099999 3.5993471222460505 6.545825698096584
Be 6.517243240589092 6.165976375969279 9.413538822378774
Be 8.890364240048049 3.812608065197275 6.22907118459746
Be 5.827124636005291 6.864072401389007 6.491097574367847
Be 8.74584318097673 5.890826559371465 9.468787275765598
Be 3.935381099191562 5.647805923374183 6.627868170401057
Be 5.416124987164535 8.056196289772464 4.65928192461167
Be 10.13652126855327 5.421956523569755 5.600509976455736
Be 7.440168419922813 7.7510391804445495 5.428553608030893
Be 9.270816721044273 7.149880159609075 6.201810245194205
Be 2.484017111561639 6.397991114643406 5.210040974263781
Be 5.8169487062579925 5.084416773757951 7.6823451855835145
Be 6.188327774057099 8.089449671400935 8.455703933681432
Be 9.586077295939972 5.3254142965557385 7.549187120654035
Be 7.790457510265885 4.5047283550861374 8.187292956914646
Be 9.652108255813044 7.2900425957571064 8.255730736824324
