36
Energy = -102.02568549 eV
Be 2.221344189037518 5.717580981517006 5.929911942903305
Be 5.406451921344936 3.741020917155 6.425916040327295
Be 3.6680618316355496 2.482922238707046 6.948347909766629
Be 4.145111865916713 5.046638127049571 5.1258402090128135
Be 5.37813516765101 1.3925754037682254 6.176268376316921
Be 5.571789933897943 1.870636033606929 8.088955206665549
Be 7.326722725252121 5.580082324235852 7.4180799742251855
Be 4.323409833993826 2.6915737531464323 4.9233136033787055
Be 7.1142642787988475 7.707724293867193 4.853644028193429
Be 5.4707627362425955 4.082732305995521 3.7886087830009822
Be 7.70380616513796 4.425734707654131 4.129475653019522
Be 7.191388892608714 2.117567714547777 6.853094779880442
Be 5.154215820945901 6.748695585164738 4.266323977637013
Be 6.426724511852326 5.679412568956099 2.7920637893599176
Be 8.225820388539447 6.388609479298732 3.654399641426979
Be 6.718539944052213 3.7398249113856163 8.172640191868425
Be 6.9626676325129155 7.678976156064592 2.695676486118562
Be 3.433003106705975 4.585759818515851 7.149794352982094
Be 3.0171869259027995 7.280253791671095 4.818199705541103
Be 3.857934479001426 8.755928374218428 3.5944862674984743
Be 2.938056701499655 7.1430597155339495 2.776356224106721
Be 6.275661280116435 5.3788593868265435 5.424660128719606
Be 5.857858731788415 8.985942266420645 3.7086396985553556
Be 8.262989385131926 6.04042138617614 5.644268212045619
Be 6.597053637382517 2.7568440768073206 4.9376128937007735
Be 4.173511553715874 5.503621311894581 2.8023271820275344
Be 4.875586077346587 8.467364850008664 5.4546389393948855
Be 4.640820282508451 3.6099851064958126 8.496717066194094
Be 5.314712531743248 5.498894123857226 7.772132786590678
Be 2.2843364155414605 5.421599284333974 3.9048102530162176
Be 6.122952711426796 7.162722183543121 6.643725801329927
Be 7.833954584901727 4.000729963251447 6.2546016022077415
Be 2.4923393612454694 3.6968158208878616 5.413604619274711
Be 4.9533836444609065 7.505367852426629 2.2450196756729612
Be 4.063600449153076 6.704957416468766 6.565265092794108
Be 3.3180084708406614 3.7307339383767837 3.472747075080332
