31
Energy = -83.75147308 eV
Be 3.5501890736366777 10.160793756383494 6.692551361005398
Be 7.00823396129813 4.961540133662661 3.8854548638993434
Be 6.808676571094587 6.34409851324593 9.476447246189048
Be 8.601545559722474 4.337824716874209 5.12935297448913
Be 5.538958007441004 9.925984089215866 6.0818745278737225
Be 4.200221536523735 7.4128189363349675 4.641608497086635
Be 6.086985026568981 3.3084012027623944 5.041181764645874
Be 7.703904091792799 2.989006349947036 3.867940868499907
Be 8.162465575341846 8.019390712195795 9.158311536678356
Be 8.677307368818179 7.790344247601112 7.139919494920856
Be 7.902437593674812 6.431053975609131 5.122549781699795
Be 8.773755866011582 3.574552007639818 7.105878787028828
Be 8.821119100447483 5.6179416562760816 6.7904401026392
Be 5.508164287790998 8.957790502734207 4.2447676812560164
Be 5.159132027717601 5.263918950837389 4.612559408856116
Be 6.941340176651623 9.004507653611263 7.641558576836421
Be 4.894783617283771 9.18253710628734 7.964079191372361
Be 6.967774970894399 6.753130469962874 7.28476338947257
Be 3.645117745557951 9.394503591366067 4.884512459913713
Be 7.589494409336421 4.7363862464149 8.34108928464103
Be 6.173676233302599 8.324147851524529 9.424315877236584
Be 6.1791085063888485 6.961533912183519 4.1094025574439925
Be 4.995771345765504 7.15705885786633 8.280669089208214
Be 3.658206928746401 8.07537889176167 6.658318074174881
Be 6.687243865235707 3.169129166453582 7.248739876623972
Be 8.89911047537088 6.211522466335206 8.735872547449794
Be 5.136020036346108 6.5611588662421125 6.27335155261213
Be 5.683046103111946 5.167028471229883 7.9219033747304435
Be 6.728033540320616 4.922461662558393 6.150246191519249
Be 6.877502067205339 8.312286164376347 5.66876598613574
Be 7.826078914041738 2.357173453946324 5.806977657301118
