34
Energy = -95.12449203 eV
Be 8.129780540975531 4.05774303195914 5.5617942167089565
Be 6.610753434985874 6.237205828747876 10.000465932791958
Be 8.072193066517944 6.302898170553851 5.693764533047935
Be 7.458363055047215 9.613038396515224 4.6954849024946865
Be 8.86013559613699 5.33875287293773 7.305966614569394
Be 4.615679279249381 8.325215741982444 4.686068053425536
Be 4.617477914782801 5.845330013303485 7.2285811172155725
Be 5.003959617913199 3.5633009846298846 7.018226569302696
Be 7.080380283796406 9.3407124826929 2.719962085223319
Be 7.002402075224212 7.532896916032839 4.108545138412407
Be 6.769022761509947 5.284980914379933 4.421202919611444
Be 5.071010919623522 6.376626159243395 3.823493601175035
Be 6.816292879367218 2.3441367663316193 6.6434019202768635
Be 4.619083018502692 7.9964343293344555 6.907869560441902
Be 7.678545025806083 4.86199109368317 8.950129475267579
Be 7.411816166374342 8.303622859701147 6.319110499314165
Be 6.841116286028478 8.205413855959419 9.775180085724818
Be 5.393105952839702 8.181174332232517 2.772985875121312
Be 5.598509547152914 10.025907411899896 3.8003983918216284
Be 6.912994561666286 6.7115583415337 7.71955994208234
Be 8.558422342044397 6.841960256844758 9.193072100739737
Be 5.09013683413279 7.153643754797111 8.89373004231041
Be 8.273340717631488 3.3978917080878186 7.592530761340789
Be 5.73697267166396 9.536265257432706 5.909873445245011
Be 3.812218998724212 6.617393209122296 5.501044142109403
Be 6.607484894192682 4.90206972252831 6.7683488363340025
Be 9.07410533408381 7.382953755349821 7.190990675919237
Be 6.460907878941633 3.104186108983591 8.483058789065566
Be 5.548444608597609 4.916313713212567 8.77225352644097
Be 6.114156129889038 8.914624934765142 7.989109452511754
Be 5.979196845941515 6.736865331477512 5.8024006535800385
Be 8.16183122501685 8.769428788776116 8.359997326826566
Be 4.854315722364053 4.888419450943704 5.331785361237774
Be 6.166629645055185 3.3898293358038623 5.060399284088682
