34
Energy = -95.06258398 eV
Be 6.28270158602996 5.718581435691631 8.083746594194105
Be 4.8151190310719905 7.8840955006539675 3.739711406867468
Be 2.904533995392559 1.984924718867111 6.318583402232046
Be 8.743526885145627 6.287575315508981 4.54575784529721
Be 4.245585473800689 4.140105864276042 6.230058568029492
Be 5.973174261227018 5.265260836495584 6.113725116565207
Be 3.761877051458637 4.395224413954457 3.923906858202337
Be 7.86165438694874 6.27081277907045 6.424506549511468
Be 6.521018952032181 6.490883073857642 4.450523167462024
Be 5.244867148523801 5.821404637694121 2.8045485068929152
Be 2.3799641092355555 3.3783009736975336 4.966813698862179
Be 4.835356159047519 1.992437614605373 6.809424299206729
Be 5.828979543521986 8.945730286894063 5.284789935019185
Be 4.152549624711217 7.8615290352742395 5.7839572124130925
Be 4.460901062748136 6.047720061280618 4.84603591464491
Be 4.3178895344231005 6.244431000709941 7.120359584884324
Be 8.004214757764133 7.268124089136003 2.8489499066773045
Be 6.793403710690258 8.80889219739969 3.5001832170980363
Be 2.6887439971482077 5.129493403408434 7.8597620325070885
Be 7.560959491388124 4.252229279864352 7.132609504502852
Be 6.293734166013327 3.108003607889029 5.853763931465335
Be 7.62860707455284 5.1535273453109545 3.137305135059904
Be 7.769070423316532 8.061262575082445 5.224963828618362
Be 7.724997184763857 4.580148533728845 5.105708108599188
Be 4.502204733951995 4.879445259804262 8.728277998728215
Be 5.821778926016971 4.298560637832377 4.159625519379313
Be 3.5303608082092492 3.119534542981627 8.076491127296498
Be 6.107912506529891 7.389758773110641 6.59456239862816
Be 2.674911775104355 5.525893682987675 5.791833627737917
Be 6.02412235948706 7.633088801766399 2.0845318807341657
Be 5.760679475097884 3.5631321843350583 7.853945430863544
Be 1.8214916707210287 3.6601030841448328 6.827973905911454
Be 4.423118137155414 2.538479202279723 4.795921402708878
Be 6.9281593909870285 5.99965495610425 1.4565686526568693
