34
Energy = -96.56332957 eV
Be 3.1531142110356822 8.334300615502553 6.802261256349366
Be 7.021094811801958 6.348669292546722 3.2880988883077955
Be 4.731446848163223 4.022640937578462 3.7326896068862014
Be 5.107048846199 3.3227060512848983 5.712011327472374
Be 3.997120303609846 7.071207262210826 8.42611515268513
Be 5.795060054987505 4.6786447675872145 7.037702126311937
Be 7.583006871535353 4.493394365821951 8.136175847387053
Be 6.716733522551912 8.701164877557849 6.808066214922851
Be 8.489008832339227 8.230411273102185 5.860585440738279
Be 8.854701367918071 4.815356017301231 6.41357404286972
Be 3.949555410513726 5.045297788272109 7.767208777520975
Be 2.672734651000353 6.339939950729781 6.880704775679138
Be 9.241380160416233 5.806491465953015 8.21946186401806
Be 8.1391114796497 4.369867372139643 4.402022580758567
Be 5.188711815575406 5.623954536654928 2.471956287684999
Be 8.42212306649267 6.360082752563343 4.898551504634861
Be 4.840671517026675 8.91665755795397 7.663743497866973
Be 3.9735063245541165 5.116230136664303 5.63523941368757
Be 9.689080136593219 6.7497872041120575 6.4935971495486235
Be 7.278273828478623 3.4706496654416434 6.166180963436745
Be 8.45386880666037 7.860066655353616 7.953390409711135
Be 5.18622070839506 6.7740232018045 6.484690255038171
Be 7.221490823555645 6.382744740989526 6.8686492557035965
Be 5.6795857238429495 5.698096551210342 8.784141646254922
Be 7.602951150439833 6.320418774009357 9.178247049781525
Be 6.208894263333797 5.391155735988156 5.053201989648529
Be 6.686873016697088 7.607012559598228 5.046127986080043
Be 4.98693752649633 7.01649577644473 4.10675855526103
Be 6.49165266032058 3.050662988268171 4.279341412269829
Be 6.196532381845822 7.691331440811253 8.534122452552692
Be 4.85750889515466 8.727297109882572 5.547055036284652
Be 3.496712972584146 5.6661372162674 3.664239141615178
Be 3.252602239580009 7.196702074968543 5.118698257122117
Be 6.784052969736889 4.400103582121239 2.810042371911527
