37
Energy = -102.79750157 eV
Be 8.909749758186292 11.787971759248935 8.354650974003413
Be 12.673882578627246 11.85976769806162 11.992018905303276
Be 10.478648384273875 6.660238348400992 8.856045447421351
Be 12.377363621870249 11.909816702550533 9.382254162707556
Be 8.832481326893294 9.741800805626763 9.028688334053157
Be 8.649852155084867 13.556739340840823 9.487346853552555
Be 8.091408155217655 11.411915223145186 10.154365280021997
Be 10.311209744172805 14.56918324445317 10.373279806703547
Be 9.678798152176842 12.595808302992367 13.780970184139349
Be 11.584291926252797 12.915880176154563 13.271405036503522
Be 10.11644645055654 14.31484029640259 12.555327356624883
Be 10.606198975097152 8.840566727215963 12.156684698427792
Be 10.793542456038093 10.98915682515146 12.739795829087027
Be 8.130371806469341 13.656171259821779 12.941559697805724
Be 8.742676007662931 8.338025976319305 10.684274158538253
Be 12.06846008384844 14.054288224689701 11.629992751829315
Be 13.714983418889503 10.831055750131354 10.566757745157336
Be 10.65120569226278 10.77060022093261 8.980227036397592
Be 13.632558703409885 13.014047498258911 10.66424688568744
Be 10.619848004023304 8.83406451680136 10.029065906746805
Be 12.267167358795664 7.694846155101571 11.695263002251789
Be 13.532703023966013 8.804305437139886 10.661319794832968
Be 10.542986433487933 12.365323640701815 10.982802546330957
Be 10.552957600396098 12.978881109440987 8.77922570571311
Be 12.71059407070061 9.701569242740995 12.400221116562845
Be 12.224521904233494 7.533175242062949 9.538884917224967
Be 8.773924234213641 6.36674747396239 9.959352096406855
Be 8.494802049296995 14.773539535215019 11.286984886721003
Be 12.507476581607131 9.668693509871567 9.0808267573362
Be 10.69633980252955 8.637183411845385 8.047314091590831
Be 11.630690400518782 10.465755373220638 10.84271898921211
Be 8.625599765793218 11.67200243792226 12.274357695059361
Be 10.470413555953497 6.960419867253046 10.989896130503714
Be 9.574675710251416 10.308457323729051 11.04665767140085
Be 8.808655874157143 7.769155656382236 8.531270143859892
Be 12.137860324954692 13.981451405353086 9.618082318704067
Be 7.3692109969818755 13.116182945958377 11.133589214507264
