31
Energy = -85.93489006 eV
Be 8.172821385791387 6.115668971426314 9.025350633021196
Be 8.44338243439758 7.988628580421861 8.229191442139998
Be 8.494154354125214 8.494362204991184 6.187651217347432
Be 9.227669861379542 6.361445061637495 7.1641770943072105
Be 7.6731591524683775 8.037868459464224 4.334103142163161
Be 8.660584687702995 4.492665696073275 7.947152871755054
Be 8.846978051083173 6.663299070093661 5.22271493068649
Be 8.559682879288895 4.637218503938912 5.824330314108812
Be 6.496598699296725 7.200337575474406 8.540533810821762
Be 6.274393948897794 9.176156272537549 5.364528459132125
Be 7.243047127373385 3.4022257251377175 7.016956341069628
Be 7.093533768273611 5.921274771726641 4.497162211836813
Be 6.577862146857227 4.80421159131285 8.626612054722704
Be 6.921983952523397 5.524747333803953 6.749441217696063
Be 5.287559208283922 5.127178783350824 3.5957945991406137
Be 5.015378350116132 6.098052517403235 7.654115959317078
Be 6.597738032068791 3.9793067067590937 5.017872524473339
Be 6.95081494101195 9.068031417088365 7.42279967758898
Be 5.227583792596407 4.132260245283228 7.062401546415904
Be 5.090097917783399 5.923357367200003 5.513113647970312
Be 6.48360702400895 7.324540786065179 6.086807882606934
Be 5.02105664944536 8.253091182280802 7.290259420471017
Be 3.3740983578973394 5.019201460589092 6.36886293445108
Be 5.757602471485024 7.437978384859449 3.980273786818787
Be 5.741812793669001 2.4231669392733917 6.056807345496523
Be 4.498416424817228 3.771484413219637 5.077044832709446
Be 4.298264983968544 8.07306044089435 5.31732314653126
Be 3.8465146124229235 6.837476323534109 3.619875819132149
Be 3.3682019909382146 7.071027647476298 6.927419007122569
Be 2.5527346670112996 6.646366868226601 5.131306266225084
Be 3.205128836299791 4.996772201740865 4.150479366005218
