33
Energy = -91.30176275 eV
Be 7.113617038469956 8.729376257426786 9.320642231072918
Be 7.565057440192409 8.41513674152934 6.959802180112226
Be 8.527869066954091 4.580891731098683 6.404828937481525
Be 6.88046011982091 3.194094741399067 5.562073695789279
Be 5.907444705102887 5.136981701465179 8.662270370867168
Be 3.679733391985694 7.348497910382682 5.795302978240997
Be 4.9326949210087525 8.883716206103985 9.491511749802699
Be 4.090372809436711 8.023726710116366 7.769995038323505
Be 5.928015740954945 7.882672022928966 10.855135484122101
Be 8.341832920539138 3.6908131376526394 4.326387686066834
Be 4.551028588934168 6.060960183723235 7.297376245197512
Be 7.124598372903026 6.024821597952676 7.098981683228166
Be 5.776739838830098 9.447118739268582 7.680362753824861
Be 5.051956648188956 6.03100217974728 4.859347097873345
Be 4.2672180250389875 9.308858668007684 6.0743839074062675
Be 7.211920206929586 5.689882774739557 5.112894292685036
Be 5.751404962174916 7.466848424560947 6.283002616304162
Be 6.442218147585192 6.53828708541809 3.3126572060070822
Be 5.6298409962185065 4.590929443821485 6.330891564060928
Be 6.087628585638997 7.340910170051709 8.2405588175281
Be 7.0326124677679935 3.697536166025666 7.554570296863458
Be 4.661281438410444 6.77279619952328 9.542510622581107
Be 5.094124253316805 8.100024871628596 4.361052480775764
Be 8.773426696810109 6.882061280946851 6.06151235624055
Be 8.54399960409742 7.0047986207231006 3.7303970344284023
Be 6.209730546578526 9.509111497515459 5.625907654282962
Be 9.402770226415575 5.375358860951049 4.561957306841689
Be 6.293061046702843 4.360058693889466 3.8586541332203192
Be 7.099417570952845 6.471465699442951 9.848771975096655
Be 8.372655447644526 7.156745720544646 8.373117115779335
Be 8.082932488731185 5.042402378121677 8.70017511633552
Be 8.04520219433739 5.16655271797002 2.9434809493492042
Be 7.131427276430505 7.841304864815124 4.8684618736432
