31
Energy = -85.22427233 eV
Be 3.1953984774518553 4.963181749434727 7.094314730646182
Be 7.002789687809892 5.634652207448184 8.582834650096155
Be 4.169982914010185 4.104327403264226 3.3152550681820516
Be 4.393546478575826 7.293848826515457 4.820357459588603
Be 8.321978309680976 6.14955857541807 5.477200378447514
Be 6.3136784049657475 3.8001411518401085 7.30478591757658
Be 5.026761132811506 5.123607439202474 8.25761284682912
Be 7.832212816790245 8.112659317519666 5.3463853844950435
Be 6.325052730238282 6.1527544886083065 4.67923070015044
Be 4.310602675415965 3.1669972693336015 7.150456117874018
Be 7.0389773687814055 4.1616679969352885 5.170785496121346
Be 6.597599127154812 5.715502622816909 6.6009027035790755
Be 4.631224514184232 6.4986975333321 6.707748153151831
Be 8.035179916618574 5.18145398053507 3.5786804142546504
Be 6.1308352078167925 4.666407708602729 2.938072874040529
Be 5.88593673866557 7.192843560235159 8.247307120852787
Be 5.859074985855373 2.891522569434958 3.9183422416630345
Be 8.32111156866222 7.206904448787422 3.5869369649739027
Be 3.116919493322549 5.7419764076938025 4.235541826674042
Be 6.28192308928203 8.015531492249401 3.82479555497795
Be 6.854851729950458 6.532127939660048 2.414997098289326
Be 2.4489089668677897 3.1880258266851578 6.205869384468392
Be 1.621856695727045 5.001092412663972 5.627997079175328
Be 5.987326660098819 7.90367457839587 6.093907200020466
Be 2.3714532608249397 3.6997344752702523 4.282794530200284
Be 2.729545036493725 6.71072875198355 6.0440989009016075
Be 4.877340068688773 4.697095779067185 5.5006457666949276
Be 4.0511305704935 2.540142715919207 4.8998148236783825
Be 7.706446359855675 7.304499224361559 7.3017892684321115
Be 5.822211015103391 2.472633521384824 5.875784689780758
Be 4.8649474128189825 6.302811440417848 3.0415580691994486
