31
Energy = -86.3309763 eV
Be 7.975520735419843 4.874900950518088 9.405868375642212
Be 9.32556739425532 6.33665200323658 4.711003104392403
Be 6.68104627089836 4.567497246241682 6.085472096008523
Be 5.87714227297547 6.750467166804034 5.817173955915646
Be 7.655290027733857 6.844889683978172 9.769444955464436
Be 6.178732089519166 5.467503423137661 10.14735302389704
Be 5.643762173332565 7.398734515010372 9.193921568669802
Be 3.6400576954573127 6.260018454867974 5.701906431149634
Be 7.88684223525308 6.420310984783756 6.2819773183646594
Be 8.322151019026217 4.533352569922814 7.43501291634263
Be 5.943418291631567 8.360469841848289 7.233174440547012
Be 9.100027052952113 6.370298672988039 8.28555349819283
Be 7.83219677157099 8.036857944820358 8.07773264993919
Be 8.666113182711277 4.494128525296181 5.358652537280057
Be 7.221237673904673 5.600276238332785 4.272596609451668
Be 4.392642689093617 6.995284733684015 7.518936941820147
Be 6.276207851567846 4.162356305983515 8.296703463724512
Be 5.124843198904472 5.091901011269127 4.660725982734893
Be 6.581220928536332 6.1785964602497385 7.779192522199866
Be 2.6859143965371737 7.799873345218715 4.560186991033062
Be 9.495102720120151 7.637152671486354 6.613968601851493
Be 6.000792529660509 8.78743082343682 4.8814030700544135
Be 4.322437328550864 8.463397746069331 3.6660283413056862
Be 4.240265678466096 8.320877468033618 5.868538380483111
Be 7.671683499552533 7.632163278826662 4.33443195858654
Be 9.947397463239238 5.562489418475569 6.5219955303849515
Be 5.821425201726885 7.001102088250534 3.6051391351301163
Be 4.654598364437753 5.481698876278451 8.880018210649895
Be 4.855879345031526 5.018160207837891 6.85306832356284
Be 3.837386593170167 6.430294911149233 3.5797299856450326
Be 7.680940641071653 8.65870574827271 6.140932395884619
