32
Energy = -89.04132232 eV
Be 4.030452141148229 8.192180826638241 5.772854939831688
Be 5.428312341027213 5.972449073631633 8.42666929809928
Be 6.888127153606234 2.934131220034075 7.33831342645367
Be 4.715722723516701 2.9833471231920856 6.593318919553168
Be 6.74583785119991 7.8375585229367175 3.845915157462668
Be 7.133590223976357 4.687177700825206 8.656161325684558
Be 7.918739641215253 3.1461581995215266 5.5343196431249995
Be 4.94113822757376 4.800936855160614 5.097562112775675
Be 2.920447702115098 4.496751852417421 3.7768136120987723
Be 7.830393596665047 5.039412066591387 4.9186899828251
Be 6.113898287579108 2.281931778194717 5.372894167576838
Be 4.762173615347162 4.82712476916615 2.9397633183877905
Be 4.630523623823076 6.440642782223845 6.606728385819498
Be 7.3547663884716385 6.573178194207209 7.701645210814407
Be 4.781742084527567 6.757620870251044 4.534728111101222
Be 6.556011409120577 5.7531108431877485 3.499970738887073
Be 3.002639784655102 3.713167020477392 5.662176529475584
Be 3.0222218918070474 5.85076314808606 5.350138442474394
Be 8.667389946453412 6.535667721795615 6.127625780729667
Be 8.330451210117875 4.657679756470695 6.965833863884421
Be 5.752209112411182 8.006815154444187 7.290696000730543
Be 6.497476169919681 3.6908561265147717 3.9038722240249113
Be 7.578539076924832 8.317724077682364 6.344774832867094
Be 5.27888540568223 3.8353028478293374 8.450173621685868
Be 5.8508870322884015 8.937469750035977 5.395781993707712
Be 3.8565088831659167 4.745270690567825 7.246956889546586
Be 4.7258756629387095 8.576911252086223 3.674031568983283
Be 5.2836204182953965 6.937867176629976 2.4742803770362647
Be 4.4187499595919215 2.9806609958902057 4.249603867566494
Be 6.579313470717894 6.648764956146012 5.568841461289542
Be 6.204166824246128 4.847041707090108 6.66178684937027
Be 3.349933349583889 6.443867530543708 3.1886380695484506
