34
Energy = -96.4276441 eV
Be 3.9771876048819457 8.272393042917988 7.089091816853571
Be 5.91169303702385 7.235397611591947 7.018597655992506
Be 3.4878805058877607 7.793576635401819 5.0744145569285575
Be 8.488726721603431 5.78746651559942 9.500503208642623
Be 7.659538882238059 7.128513068861731 5.585413810033226
Be 4.658492330477734 8.080908369894084 3.450296906843205
Be 6.129576095656611 3.305693082887774 6.632040731533336
Be 4.849961332005785 4.575051001586744 5.4217550721191365
Be 4.2025878412266655 6.669654558215274 8.391205728338601
Be 9.12952685966893 7.833817470494037 6.877603875136707
Be 7.240845040636857 9.04573364706033 6.011473989072048
Be 5.526026639701987 8.168127287441383 8.961706970580522
Be 3.821479400488025 6.2363585528104775 6.355033061843223
Be 7.127175305833324 4.425015914278097 8.200092051123491
Be 5.580728255021167 6.588953514570514 5.0848623842193605
Be 7.268182007074708 5.702404112488012 4.0483007788774374
Be 3.9188754356179225 6.082175397880823 3.933382333646297
Be 5.652568388653543 9.465330483562047 7.35048254162277
Be 9.00568753602917 5.577519576139157 6.17696438603091
Be 5.255089392189139 8.810213290843404 5.379585440889161
Be 7.706179922220158 6.44551852172806 7.6839899317858835
Be 10.053416632652565 6.283431434901063 7.940450920082305
Be 7.3751643651886365 7.541133249088335 9.797035965872025
Be 8.133146488661458 3.5826870282863994 6.39530942124805
Be 7.470977732911503 8.653520791543995 8.06227390914991
Be 5.7805413213917625 6.56691783885519 2.736256023493274
Be 6.786376720864268 3.6761161967793416 4.737276539375669
Be 5.503780823526815 4.71721887918842 3.49988890850902
Be 5.227782423237772 5.080995265430284 7.465593453499377
Be 9.148225590141164 4.476051139084474 7.952467702106038
Be 6.892443784283432 5.306310440718054 6.113849816171003
Be 6.097649856685556 6.088194335052595 9.134298907464673
Be 6.713963220194484 8.002969926935663 3.9454041613337627
Be 9.209574291166087 7.785683602925763 8.984148824624743
