36
Energy = -101.7224144 eV
Be 6.580866259413009 5.599154738770984 7.98882115802547
Be 4.840404194612619 6.662126681642683 7.378465923426452
Be 4.934585888151769 4.526450305372412 7.001576840713486
Be 6.99469563819151 3.9959270827673494 6.655447657060828
Be 6.1991482757984935 5.8296365030451325 5.931465940946257
Be 8.271232211922207 6.023578486819246 6.488526471998742
Be 8.134045773144337 6.679113489043253 8.707157357183707
Be 7.999454056269852 8.756871089133876 8.761890557587222
Be 6.160501196268303 7.691205529778985 8.826356616403466
Be 3.0117452446142727 7.441829722837206 7.874740680043003
Be 3.545016748152448 3.4686761414551928 6.02018723718714
Be 7.454759228937911 4.642349455211504 4.578768678673095
Be 8.844468033850205 3.862205318828987 5.831298711868831
Be 9.393004508663054 5.619348052310725 4.771688181950864
Be 10.403133394508925 4.803773520505334 6.711741770308855
Be 9.294231252993328 7.966358401387681 7.428390705115923
Be 8.000182102052865 9.49453696209071 6.6531965220978595
Be 4.637343583384434 8.835125389040451 7.792380871919968
Be 6.435881916688839 9.73607647997551 8.020042468083581
Be 3.9879248994385814 6.163027512133038 5.335653482090579
Be 5.72056868731427 9.425622546892445 6.133030416062001
Be 3.8474555497380853 4.314700006215603 4.212174955779369
Be 2.2188404764706413 4.814359902033039 5.460609863201302
Be 5.605498375017322 3.7681942455228135 5.090530119954941
Be 5.588650165294757 5.584796551083378 3.98014705188247
Be 8.974231127058086 7.87407240091182 5.39560681834292
Be 7.193094193148165 8.763848258023753 4.851146414644237
Be 7.456355914722046 6.731869738093934 4.4967533404464834
Be 3.6989372888241423 8.263990678062683 6.030626465474658
Be 6.946306783928909 7.599184830803701 6.823236769275146
Be 5.467817395450961 7.61236268167672 4.983016909668766
Be 2.152605647131026 6.810280099462072 6.234684099906079
Be 2.9981141643484936 5.3067748227465295 7.339111539306219
Be 10.515704635807483 6.730344112000929 6.224647538092749
Be 10.059740040485988 6.164693933772783 8.177404679070907
Be 8.587696761978675 4.592700724940125 7.961257887442776
