35
Energy = -98.23917891 eV
Be 2.5503005951587805 3.6463769987512813 5.429433065950458
Be 7.4713969903601996 8.884331225987108 9.177489468387462
Be 2.926722123923819 6.82793716576994 6.520103889348943
Be 7.038208600154752 5.519769866162357 4.858291747241088
Be 9.626556872536442 6.098511565864025 8.313194638423912
Be 7.77621743474912 6.731854677989717 8.955583852363969
Be 6.016201392340615 3.677731561565778 4.811422780143941
Be 4.440024628279796 3.2236351494901987 6.176085753554599
Be 9.7033858083747 7.182556138061862 6.54121196042654
Be 4.429479582699531 8.298462235310396 7.019864437929568
Be 5.953935901877539 8.84533997952928 5.64278025207625
Be 8.370885345493695 4.032494751218567 5.727319340472094
Be 9.927611702651143 4.962755967460221 6.64130192349565
Be 3.0551438980312744 5.547789962286603 4.837331222609484
Be 6.633605922751017 4.0879710223045445 6.717489367141558
Be 6.19753456931164 7.328558449311595 4.198084180096743
Be 6.03692168910738 6.926309196492743 6.4091614306299585
Be 4.27043670433879 6.422882358938261 7.956249074322893
Be 4.313478363842863 7.345349480657824 5.088230252305577
Be 8.316142779278717 10.167463882155285 7.884335254567049
Be 5.050621149412995 5.559607484782858 4.057959457687696
Be 7.542394630767597 10.064456779803757 5.980074411431568
Be 4.098564748462058 3.732400312517384 4.132391864214345
Be 6.192625277205938 9.634428012827247 7.614289592634105
Be 8.30819016076761 4.480796742466596 7.999791583345098
Be 4.937334770505264 5.219696629087521 6.30504374121161
Be 9.31416304841975 9.195321271139557 6.394524453261114
Be 9.163032958391334 5.82234057403163 4.983650311437572
Be 7.971617196639613 7.7000054294360405 5.206394161736385
Be 6.245099590713393 5.587085821391432 8.11631052792419
Be 7.888390025691591 6.067883695239715 6.78322412325902
Be 7.593762861568876 8.052506113025396 7.205949432856797
Be 5.8839957466219595 7.655355149066424 8.533981018104411
Be 9.331182758230582 8.221260254828797 8.381425481602582
Be 3.0166825158774224 4.840622439585984 6.991874292342695
