37
Energy = -104.78452816 eV
Be 8.208989907050656 5.644936125239425 5.61669368995108
Be 8.262833990736961 6.785726067532493 11.325004750390432
Be 8.01472639402388 9.163647204366065 8.00919356606834
Be 7.816371688317053 10.836783800355587 6.349617393800607
Be 4.5143638288396035 6.070993011338536 7.542969761392486
Be 10.802137544069918 7.19314892602041 9.140443742713131
Be 6.418362267530391 10.6466281820556 7.930526574784847
Be 6.136683359808256 5.591839318219522 8.723678531479552
Be 8.738693431367421 7.126425109307486 4.262158988069988
Be 8.016723196230698 5.369204068151079 9.818097653718851
Be 6.201643796374448 9.19783780752739 9.459399265129953
Be 4.922664804215298 9.144985547450602 7.7636502616343614
Be 6.6919988145603835 7.1192543873186915 10.045361031007955
Be 6.510986388550828 9.155870949000048 6.288192315593683
Be 8.30469242016058 7.589412242736759 6.643780898630715
Be 9.605741310852787 9.959555295762945 6.094821596053335
Be 6.8295184322569 7.355650570488073 5.103162454900184
Be 6.560756784627173 7.5785865832128625 7.8568859830541005
Be 10.167822698992026 5.981424029912315 5.111577739093877
Be 8.015733835430112 5.506162639064536 7.686343000172233
Be 8.675680533234779 7.305386729982713 8.816622734326947
Be 5.010297786597459 7.570820917667549 6.2202138035489725
Be 8.192098314726314 9.043304306656305 4.929859621221732
Be 7.987708144786014 8.722757134531367 10.514405996683953
Be 9.456247455308448 10.738044260154554 7.988753639352005
Be 4.820723395804752 7.410325250656169 9.099993452833413
Be 10.143980437718078 8.031001844508733 5.519764398184379
Be 6.285344790096872 5.807544599775133 6.5006698072632245
Be 7.975420576106118 10.622280042598083 9.546463407325383
Be 9.733750833931948 9.294872289909932 9.4959385529807
Be 10.114438234671184 8.596987512528985 7.589511118734631
Be 9.955346522709009 5.858083167547424 10.675994208623049
Be 9.857308150361654 5.274267353662812 8.769260114643581
Be 10.025598755033311 6.514707912974948 7.155795766272866
Be 3.4285756939294396 7.771325883904008 7.601273992210094
Be 7.905896456272522 12.043343372259265 8.012420090356718
Be 9.921662174460055 7.877740156859966 10.964039282110251
