33
Energy = -90.72292196 eV
Be 5.451832701028303 10.111639194337625 3.4627461891849203
Be 7.919172747774082 7.912322761367822 4.578439399008408
Be 4.385677168461669 7.116315949317102 4.826077128206528
Be 6.829848475937157 9.755722215615325 4.950162011446193
Be 5.558594252590608 5.938692289434466 6.303231599496579
Be 6.542955039447706 6.10397961711677 4.412359675790923
Be 9.003957209659445 5.507027491900655 7.209890830675806
Be 4.357273008749221 7.938919820682146 6.782646989304267
Be 5.946227300436925 8.11690216150737 3.644473955350779
Be 8.146328485558927 5.316877842244552 9.352995482432288
Be 6.8027898139000875 5.550293259868131 7.846427832004123
Be 7.552079444952105 6.715754779529647 6.297655000156122
Be 4.6474902013600285 4.579989681664866 8.118975459879888
Be 6.111403373661904 7.8942518084579625 5.6423614120415655
Be 8.851411299219237 5.977109368879261 4.890498245228808
Be 10.604064642953132 5.923731596376291 6.029986425434609
Be 8.48026156754568 7.319780475208776 8.154595710606587
Be 8.084260357912829 3.7669859923872155 7.7681964417403515
Be 7.784963421521114 8.855127070308995 6.595400755634835
Be 5.794895569678189 5.36707524371096 9.772688099009038
Be 3.522957427139259 5.946651686246834 6.6525286571729305
Be 4.167817207441235 5.136199496368312 4.595025522084817
Be 6.947622364082488 7.0401581827841815 9.515110304261432
Be 5.7791393461827205 4.003602037190766 4.924136624905927
Be 4.181565773509414 3.8874619247974027 6.18641892825651
Be 5.767204878256495 9.614250247115546 6.743511874626094
Be 7.499050274722431 4.664146055484788 5.860831785747173
Be 6.340977103206496 7.778811837562878 7.697539736755944
Be 6.529323781403653 3.6808838181856927 9.024605260592214
Be 4.773613231352565 6.634727862465107 8.424020457839235
Be 6.113653411717281 3.5219353802594062 6.974739682376997
Be 4.582340913297825 9.19724948570631 5.081556203251601
Be 9.411673393287847 7.597848553865324 6.152591507444559
