37
Energy = -105.4273457 eV
Be 4.858084425874577 6.275158398275783 8.405084239200793
Be 6.200845999207502 8.78319419791331 6.2416105085118305
Be 6.79416717801148 9.016896884057662 4.3620889804795135
Be 4.548957903752349 7.530888717171411 6.637566938715504
Be 4.629761472692763 8.740700835800313 4.86355943672501
Be 7.893186879698034 7.778685557710129 5.58506037449449
Be 5.122381999726646 4.268222927376333 8.934504505302902
Be 8.374205266384756 5.892993534361592 6.731500670613228
Be 3.2735964754705416 4.729125020941052 8.303060076408556
Be 6.89157570053917 5.192226479315657 8.200033321813306
Be 5.871785086249824 6.772503668636855 4.885916974137552
Be 7.296769763019831 7.234677889014799 3.2827524094168985
Be 5.497938338734118 8.220764632246256 3.014295019660646
Be 8.256520877418918 6.022293588798323 4.708230902633465
Be 2.8853983187111076 7.649029875687671 5.4160895068523365
Be 6.494996248784447 6.801988865515964 6.9692286064468645
Be 2.9459649700350985 6.171745270274256 6.866342498256155
Be 6.619812153101651 4.850079078282687 5.6658153152000725
Be 3.839400681329095 7.15072727231767 3.6994065032622947
Be 8.179073599334627 3.875170180941246 7.010711622631642
Be 2.912633943808053 4.16429617002034 6.15756855837679
Be 8.336610713413044 3.93241545686931 4.823753022112421
Be 6.17967956294276 3.405283969119552 7.430320856814758
Be 4.099490662004997 3.056102831151109 7.452595204182044
Be 4.862236735776265 5.214603143034326 6.607074260669283
Be 6.968426506420419 5.094060657941155 3.422312264489139
Be 4.796907777186158 5.0143149253574775 4.4450323502485745
Be 5.404675579406153 6.185456407915753 2.653119494632321
Be 2.615536043219676 5.652646269120084 4.711572998257242
Be 5.131649306233183 3.256188446516202 5.599002259750958
Be 3.313990516259617 2.292586898498422 5.442837708565898
Be 3.495316865251302 5.347393081284083 2.773510550460644
Be 6.5678528691898 3.1088585310653993 3.844150065803026
Be 3.1458469468274526 3.647041335085531 3.9206441340026728
Be 5.1084042461166534 3.970909559902486 2.591207923340679
Be 4.666609558611246 2.306511487678214 3.7623806198199015
Be 7.0962457196928685 2.5707948452377836 5.756596208146595
