30
Energy = -82.76202598 eV
Be 5.672339143205659 7.041982597883056 2.9005543953402975
Be 7.122842428798331 5.456057144826112 3.0643373020290285
Be 5.033301438484928 5.3215998048224415 3.8353362650194693
Be 3.0237821749992917 5.639752139811478 5.155251233234276
Be 7.393404149400091 7.341100545415468 3.9048596488313003
Be 3.5875922341721287 3.9785610793995976 4.096216861419851
Be 8.78003738161978 5.778536073631106 4.360807389283767
Be 3.738930938057373 6.971836408502696 3.7490644763223333
Be 2.999801059205606 3.718099466779616 6.117456554030902
Be 6.737798277034395 5.185845681007043 5.0696760936604
Be 3.921532497926528 2.2460925127437856 4.989910280113028
Be 7.967186295437704 6.920360873153134 5.8960586650956675
Be 5.689275546195903 3.3688167949116137 4.485954796428132
Be 8.104070956548169 3.860166218210979 4.4254041757452125
Be 5.046894086987869 8.54451886446577 4.247284172129615
Be 5.585447740452247 6.801272446877589 5.396735512179829
Be 3.4684847654256323 7.568361925148116 5.721169147481169
Be 7.04896416796997 3.3506366763455877 6.175059702347624
Be 8.459152202040727 4.870910854418629 6.302614261462089
Be 6.865308989821086 8.695567631016855 5.416800520120797
Be 5.17819195063342 2.565530153819737 6.530438422390679
Be 4.940973601473676 4.829199617755684 6.065124218149418
Be 5.047235700903052 8.803190889573562 6.325702113304922
Be 3.19513722269368 5.568702413872687 7.2813590678929945
Be 6.637919537799083 5.701649552760722 7.175357191479374
Be 6.623441345892256 7.790335276692067 7.274625880409482
Be 4.024003856650048 3.654603491097928 7.933350366748167
Be 4.683282328387282 7.000619812192895 7.376169161465945
Be 6.142682110797882 3.759862391409217 7.943967218167687
Be 4.9832947637268985 5.3685395541956815 8.485663800456635
