35
Energy = -95.76154644 eV
Be 2.6322861032994154 2.9925453229186965 4.03802304409586
Be 7.5557688841133945 4.551327981617865 5.75472112252988
Be 7.828540738385796 6.385496724100046 6.787830806137725
Be 8.46703644780551 5.883818977161507 8.928650623621161
Be 6.177787379792078 4.009428173920876 4.323867478984897
Be 5.496471400674638 4.17751740134246 6.286856234600319
Be 8.940184101983489 4.61488241620335 7.325934087840977
Be 6.470861820074283 6.412057874101077 4.8843915980034165
Be 7.119671222025519 7.029299948704516 2.8685025981746928
Be 7.707683292753124 8.97488743045546 8.007650182400228
Be 9.248097565935185 7.800604105883974 8.643241630033353
Be 7.844942659414318 5.298756154395602 3.785184200543386
Be 5.157489736309192 7.23374539344914 9.754879410658436
Be 9.217274930323063 7.962623905835606 6.5751636044215385
Be 5.666596547931415 5.503534584459783 3.023505548032177
Be 4.370888904604135 6.228377502835189 4.6273481250447706
Be 5.575088708142143 9.061377501736679 7.402974115624738
Be 7.545533023225933 7.5665812032329836 9.917661769416814
Be 6.488100358119862 7.211978933705059 8.175558196401319
Be 5.190560369970782 7.578524651698446 3.2902110384432737
Be 7.054648873483357 8.183934349651077 6.18576286464919
Be 4.218689658715542 7.3602386383526515 7.689424446770024
Be 6.871296220042848 4.80774120200446 7.826028228798395
Be 10.052867875583242 6.292110783468272 7.468967370444989
Be 6.550720759924627 5.649175097453114 9.685140888189997
Be 9.42205013819307 5.678449891959988 5.545960525555418
Be 6.210795021532363 9.068410144875523 9.42055230680697
Be 5.000302441547165 7.990698549905331 5.580200728523044
Be 5.665453716863618 6.256126566343417 6.651686375836588
Be 4.157625127962616 4.251452511326377 4.637017897792123
Be 4.903050596230257 5.521216945494834 8.39026939501003
Be 8.337240556569734 7.228087989456528 4.681511735114844
Be 3.7528512445797495 5.520529235037069 6.437881645684848
Be 6.6854087437073755 8.573598926256905 4.207551064054239
Be 4.241808767815704 8.966536918290382 9.01556304939503
