36
Energy = -81.73032138 eV
Be 6.2328600480363505 3.5799592636154998 5.963512542654463
Be 6.094972767502877 4.458126714371664 3.963455279995225
Be 6.025565186238034 6.639435167274949 3.7239833292093456
Be 6.09238700081312 7.940339344994167 5.488207272734686
Be 6.2285242096461415 7.059893456280284 7.492050637806007
Be 6.299929949817166 4.875189810063035 7.727135706161356
Be 5.6901626914382915 7.471156362327515 1.824073407164015
Be 5.824272008619603 10.004419786118842 5.2718876235726615
Be 6.085514232842389 8.288119609933757 9.182947610317308
Be 6.218804329973119 4.036183715429008 9.64769667826117
Be 6.08522708175976 1.5065021372590472 6.201994497206987
Be 5.817924226349593 3.219054351747723 2.290614119054215
Be 6.232410500971754 2.7710731797803048 7.915175728297744
Be 6.033086963263436 2.367300462047749 4.240724197730244
Be 5.836344517842996 5.345246730169826 2.057120551905498
Be 5.842129129787666 8.739027186043268 3.5463582536894487
Be 6.038749355321482 9.143600108473159 7.2223538081515555
Be 6.236245002037453 6.16221203782266 9.407513110502883
Be 5.408557363281057 11.866859684952612 6.451654979035513
Be 5.5996773544111385 3.257294210741685 11.425019785577565
Be 5.023608975770362 2.0810167895360303 0.8029937475404219
Be 4.826890497319917 8.217312328184844 0.13819151732170323
Be 5.015686772054834 11.866859684952612 5.110694986374912
Be 5.4029272961898895 9.389881162311955 10.746234261712095
Be 5.29714981630218 4.1110636293073055 0.4629844037203039
Be 5.240719425240938 6.178174710362846 0.23163666915769715
Be 5.499409112420298 1.1717771722770083 2.6139179413255604
Be 5.623876900313711 0.3350288024714535 4.5132402936075255
Be 5.820848786285487 0.7356426170414061 8.140247810031314
Be 5.889250490256655 1.9641067937567889 9.813469496383119
Be 5.884485393203409 5.311927679676527 11.282809267638703
Be 5.8253252651727285 7.376193021673046 11.059388970795107
Be 5.626906401228734 10.318203432430904 8.89990517375116
Be 5.500647893455556 11.153918472775008 7.0064195415968955
Be 5.305073821584517 10.75188403189222 3.373142326007066
Be 5.237202628454286 9.524240551561856 1.7058458962111238
