39
Energy = -110.32086962 eV
Be 4.351792766155293 4.983693617268901 0.41554440154075123
Be 0.6104805629894215 2.724411454495185 0.953850905803478
Be 4.661420503662183 2.9218001171103336 1.0832027822506534
Be 2.5548802294054 3.860452726346368 1.0936346936111465
Be 2.5443706496237177 1.5925198369705538 1.4075696241202158
Be 6.160612372777631 4.408814276558206 1.7315818260238154
Be 6.609274568313268 2.2561957943764703 2.0802154450278234
Be 2.669125117862392 6.043667593425966 1.6783093884649534
Be 4.753779568209782 6.509147637909858 1.9565652596118797
Be 0.654403474376908 4.684123007792848 1.9920009026523011
Be 4.767930997406828 1.2440303106122197 2.5589583231693043
Be 0.6283944632820154 1.1252413151464193 2.4040759516335166
Be 4.191963699264935 4.658061234147845 2.3347184696320142
Be 3.458240895567127 2.7771702875238837 2.7864147855636707
Be 1.5064575645400926 2.902833736081565 2.7514241272799214
Be 7.197844259886377 2.979889737561075 2.755542947809682
Be 5.3066048802606005 3.2118162508761343 3.1884318435607577
Be 2.357468189615619 4.615470472669107 3.143963377918949
Be 5.680940565926497 5.376230034473226 3.7064702764787976
Be 2.4534403344439646 1.1062658265548304 3.583667261484416
Be 7.197844259886378 3.74896278696847 3.814602889089562
Be 4.644662632418676 5.491686028362245 5.829079080774248
Be 1.3013406020592029 6.2178151516220845 3.4933436200911485
Be 0.6262097592315273 1.9764889174032827 4.443090642490405
Be 4.248756740431092 1.8422664419506083 4.574481833442748
Be 5.47333142490683 3.53711526712864 5.105785186752207
Be 6.775452473658617 5.035742378002087 5.565480599939485
Be 6.371334686878592 1.716887401759247 4.208668631870699
Be 0.5211397521408606 4.262136702662266 4.194045713507161
Be 2.40096919693006 3.087019933302115 4.528585512274542
Be 3.9309605230414317 4.360796993841276 4.3205497614398825
Be 3.5603526210368144 6.31924905335155 3.7301003403870068
Be 2.5627655158081115 1.5626253700380492 5.7948024820371025
Be 7.168726303714064 2.839116479089049 5.81967478728417
Be 5.602393607723902 4.04929833779508 7.048809698869948
Be 5.184520262387363 2.0047876112098852 6.42743919713249
Be 2.28738005641634 5.169091662182529 5.240393649679378
Be 1.2474520595142207 3.4161601716915215 6.065376718067391
Be 3.5789020167344407 3.475385388080141 6.284014405572203
