36
Energy = -102.01415816 eV
Be 6.552544786399295 7.355544171457182 2.576823549817543
Be 6.555958280036923 5.945801472681671 5.892186309413476
Be 7.726659215477408 4.513791198879303 4.3383292016929
Be 6.753849325880051 8.209995242816555 4.457921876346911
Be 8.603445974946563 5.491073447987109 5.91986858679642
Be 5.68917428833079 5.17250104336904 9.148405224410226
Be 5.8115203690656 5.944722287133652 4.029129816179946
Be 4.795999531077245 8.059878661953622 3.9677702495791385
Be 7.728672284058135 7.518292352743095 6.118058408050842
Be 4.077525076462611 4.387270720450831 3.837451566651763
Be 3.5694186771145877 6.41180677528584 3.486026825368745
Be 7.77907762510975 3.5134288138031238 6.26364707149244
Be 7.309936322830586 5.073811594257376 7.622361113773719
Be 6.106613472810433 3.2813034017489953 7.691107062458621
Be 4.622480250340432 7.42833753629632 2.0293666258868552
Be 7.11458456637561 2.5368538042817828 4.4385835106999245
Be 2.8229882629764047 5.439708273277045 7.011036308951856
Be 3.5111992325902466 3.7981859482096474 5.897362964769107
Be 5.051600624964551 5.4264101928687705 2.1632100792193887
Be 4.062635740795539 7.107369587098188 7.418100151920258
Be 4.966619634643777 7.093901880829479 9.333050427556119
Be 4.380133587654877 5.832678231353742 5.494848307997932
Be 4.959686143408809 2.3916710747551804 4.599470600053681
Be 5.988198322217474 3.8149384157918544 3.276244599485874
Be 7.191202708189663 5.374155201444361 2.5251422384528137
Be 6.43774988081221 1.8445932139304113 6.167235467053286
Be 4.582493312454221 2.2795137110256403 6.717619051630374
Be 6.223004645830927 6.902795727304462 7.739913094641983
Be 3.654219341115528 5.656800077549099 8.896615962469795
Be 5.114560235811426 5.115618452946822 7.214350174889687
Be 3.260139807977205 7.471690689689169 5.368942133325871
Be 2.4652090611850532 5.398079162907727 4.931289086273235
Be 5.391322487583557 7.926721528704512 6.012921011396452
Be 7.980360776545046 6.585668401522293 4.162308254319961
Be 3.881315578037944 3.7244869499035467 8.077967988219186
Be 5.717544508902347 4.103579235386049 5.467153669771645
