35
Energy = -98.67173277 eV
Be 6.219799796187804 7.6739707578671705 4.8241858158185895
Be 6.522385757031928 6.31398508425622 9.286394971509337
Be 6.6143808798898975 4.432218261229809 8.226681156825805
Be 2.9720761835024514 7.6628426824023705 6.237528760875584
Be 7.0394974006294495 5.594906469283998 5.071179257672524
Be 6.223010501134368 3.0527192858131458 4.6045168272687755
Be 6.911845201162653 6.497726432383585 3.164238395550108
Be 9.361337623415553 5.526663927642504 5.31387444485442
Be 4.777977248174561 6.853107719189535 3.4064927541178776
Be 8.34058431841032 7.317327902844307 4.828033011724108
Be 3.4289348011304073 5.215731926935967 3.7624961120152745
Be 6.599359586401701 6.424764575327365 6.964558680577687
Be 2.8066237551217577 7.056826182383759 4.242254814563372
Be 5.996441588361857 8.07419637989448 8.341318930337716
Be 7.208441612741369 2.9808350927672635 6.448224561933817
Be 4.228415055267912 8.414464210619151 4.665509821840538
Be 7.947289541933163 7.716361120968166 8.505788862607568
Be 4.879104064443485 5.837515715658661 8.01409195257317
Be 5.768893264267196 4.564339717604268 6.373906578771431
Be 2.5308501247520288 5.376901711662014 5.5825200139412114
Be 8.818301964319582 6.855983893330952 6.849656534018797
Be 8.257116562517163 3.784084324710394 4.740047077326128
Be 7.332299656884106 8.41761230049808 6.579930350969354
Be 5.145177242024923 2.66525599204379 6.443953270643846
Be 8.32864080482223 5.682487988676704 8.570381151433306
Be 3.93613390870431 7.715805892547283 8.144167831714975
Be 8.083213982531772 4.779491973014706 6.71878656298029
Be 5.125825335759252 8.281318924038226 6.543201041246096
Be 2.844915422353739 6.091578372417696 7.5238039144967015
Be 4.655200256997345 6.179902387943644 5.66589413809241
Be 4.055070303525244 3.7306519361722414 5.070157891224147
Be 7.190624925570706 4.353594942715899 3.050802159748631
Be 3.7539819514209363 4.310983501641552 7.026702932146021
Be 5.400292657046324 4.907219565567942 3.9010815466179287
Be 8.720003976141191 5.614727658952686 3.4473893798578623
