34
Energy = -95.30104534 eV
Be 8.19520460444459 6.202226402826343 5.549330571472731
Be 8.261853521217368 5.452068392764001 7.409834681891354
Be 7.6839244393175035 7.548730001378876 7.333007603722243
Be 7.851941395278524 6.764491906667938 3.588679977737542
Be 7.084566213182972 7.927392726767482 5.179516209499914
Be 8.23872836622387 4.757352816213962 3.9833216536163354
Be 6.152095250265518 6.308182562452153 6.54792350265697
Be 6.218035968980591 5.36011601963098 4.638141406105464
Be 5.830440362905646 7.589102681962058 8.513337366363581
Be 7.4883224577923615 3.8493648452212974 2.3253290881484965
Be 6.548859911781117 5.6790424373179675 2.4170191199278026
Be 5.801309419681115 8.632728020483146 6.759160115027756
Be 5.88524822181317 7.353738958479248 3.494823688056116
Be 5.291848017725642 8.91142024708421 4.798653616733543
Be 7.072741597305873 6.0692355916128 8.876096655198332
Be 7.61152303962617 4.15896047386058 5.902998883018768
Be 6.645072598089382 3.28691713800947 4.151908927039692
Be 3.8077101004353167 8.631600813891817 6.215325900313238
Be 5.464183532667207 3.9539028394906457 2.5275171811745922
Be 4.494762853659278 6.949310512050212 5.0208620949499725
Be 6.58603547938503 4.2350099916240085 7.800516775835059
Be 4.5370895035947685 5.662726884503338 3.2524431071488875
Be 4.239663219666992 7.045063073860358 7.315280535506628
Be 5.087101751432649 5.574992237372005 8.523759905884637
Be 5.649568471383855 3.3340518701306467 6.101351752548027
Be 4.398391913849897 5.164132131362516 6.196568273865656
Be 4.571994784772841 3.7767175943632023 4.331553442750801
Be 2.6152000892320895 6.62271655865684 6.079811448683232
Be 2.8953341789065354 5.016166691818674 4.61541196884396
Be 4.488698917656082 3.669563423304027 7.850978784188258
Be 3.0202480860120327 5.404790979565098 7.903779598993004
Be 3.3934489942824606 3.2869791749720165 6.010593446556681
Be 1.810843209971716 4.738787556623165 6.295122750054605
Be 2.4082106839945654 3.450861198338938 7.752966058822989
