39
Energy = -111.98732351 eV
Be 8.443086938591481 6.066204126577569 7.604796988310149
Be 6.37966487581949 6.4603875659683805 7.60087825234327
Be 6.0327758830894025 4.576445446359921 6.769985013162318
Be 6.270778611964394 6.361848326862043 9.810316569970746
Be 7.095423439663269 4.627377415184045 8.709297867792072
Be 5.04353579613793 5.21031599812102 8.534854062162454
Be 4.592336574560725 7.295364928116317 8.706541357439722
Be 5.317469661415262 10.284390639912925 6.768287951283732
Be 4.478528857114116 6.238343113332117 6.767210672405621
Be 6.861237831344968 9.4184020379147 5.589551244831367
Be 4.514885173646502 9.426417306963701 8.534396995538497
Be 6.360066463316522 10.49856184719545 8.70857231622271
Be 5.988424271741222 8.61424516667448 9.80887529495175
Be 4.221515315727163 8.290904453326803 6.765677201178496
Be 7.685178963252229 7.686075534586831 4.552921084859797
Be 6.11906921786158 8.544438687901714 7.601903602046474
Be 7.319516300115058 5.793501197721593 5.596331850023678
Be 5.77247140781826 7.447129905107906 5.593238894641256
Be 7.683732367454598 7.6816762187838545 6.556617573652083
Be 8.064872853694183 4.191093124173059 6.769005131861919
Be 10.40955450693489 6.179759137146675 8.713304255771215
Be 9.454818633550781 7.903763762055666 7.6051496320585095
Be 8.019940608165737 9.434320667267613 7.603675737425224
Be 11.124322099420455 6.965813170638208 6.772364194992433
Be 10.12910613634376 5.154514412536226 6.77375052347659
Be 9.954398760632657 9.811787238451803 8.712016424008805
Be 9.365330205326858 6.751237883234935 5.596596880222351
Be 9.08479061631118 8.99822867644591 5.594976062154081
Be 9.429359425081877 10.734617627489447 6.7728688112038835
Be 10.841807719738465 9.225074712076971 6.772701781590539
Be 11.270013009366224 8.131903128170153 8.53998730585279
Be 9.597542578743372 7.922326743795744 9.812480559063813
Be 7.681147789683427 7.682427084687983 8.737266263109968
Be 8.362468128613806 11.232382831184939 8.537142116096229
Be 7.681613300155668 7.682663834636771 10.781630813596912
Be 8.50146841335153 5.93394145087985 9.81254588442745
Be 9.21602817757355 4.4098609015793 8.538715595199697
Be 7.192370014233812 11.158969649281834 6.768082406802456
Be 8.044726277776896 9.578661484285261 9.810861802307695
