32
Energy = -88.15917086 eV
Be 4.690710115519322 5.287263649168583 7.821134520122041
Be 7.248909699468238 3.320492194409284 5.234561216622871
Be 8.410488725478869 6.903539202482296 6.329969924954941
Be 6.317499668235317 7.329673984914131 3.104204001697462
Be 6.785226090596557 5.529741210802111 4.737416216959348
Be 7.803091530169103 7.648172771846744 4.521225808460155
Be 4.660022441037907 6.126372398639683 3.5181570844273105
Be 3.706698027471503 3.1344698255200787 4.099827298176712
Be 6.259642015643448 5.297355237876788 2.472023788477977
Be 3.4716312532336833 7.021754507306723 5.023690489378132
Be 4.573763378830151 7.271262393554062 6.880924137920841
Be 2.6251580467215536 5.627472115205592 6.2739184207430965
Be 5.5536208317536495 7.2778534976033145 5.029926204895386
Be 3.278112932559789 6.63390873422053 8.511320226472519
Be 2.5036584205121675 7.604165784229811 6.918997284414002
Be 6.235011425605348 4.069316291251106 6.840492366955397
Be 5.0768405122190945 2.8132270721786177 5.59758214571158
Be 4.773519659305794 5.197923196890035 5.546543866693698
Be 5.791831819794352 3.6994486326146543 3.768472984181725
Be 4.362478441897269 3.2801799911709284 7.486935315117364
Be 3.0409883071856103 3.625594703537141 5.983952621532985
Be 6.827994559350121 8.174510142606618 6.303460160454399
Be 9.201161209258979 3.802567614811056 4.940340350249551
Be 4.2088884164361735 4.4064990934267 2.609731263442349
Be 8.162695510696752 4.8697996368212095 6.41544259432838
Be 2.928612325790963 5.021508579742965 4.270613612570886
Be 6.423654626874072 6.172102300939791 6.831823734796661
Be 9.038767217731491 5.801681986264457 4.670374475414718
Be 7.919891826844441 4.267071344388058 3.417168228178776
Be 2.7681913715707602 4.522566309228815 8.075117958222172
Be 8.058509270926312 6.2732337411258365 2.932008838332263
Be 1.4465874330858957 6.143128967027667 7.9864999718995335
