33
Energy = -92.25907899 eV
Be 6.4321915765736675 5.227927562070061 4.1679862115450685
Be 6.492038045948305 5.423757753582602 8.549169881020864
Be 4.095749410573043 7.051484508318331 6.074804389553489
Be 6.155891290317747 3.727926541704871 5.6561144416299936
Be 10.089726301894506 7.058219427590484 7.83880585882509
Be 9.512196184707019 7.367268911424746 5.870010349488827
Be 4.427141589214115 5.520592536278247 7.416739324043166
Be 4.595397028068291 5.300506994196007 5.145726177898457
Be 8.874030432241222 8.791058050350868 7.176687107980387
Be 9.488161194730454 5.340546042264999 6.7691064832811545
Be 7.842696906414219 6.897466390393454 4.412715273753802
Be 5.794568821247373 7.302620503873943 7.500155295553658
Be 5.409888304745999 8.5574767985531 9.400654516035104
Be 8.045966878698959 4.700179703414935 5.307010373567692
Be 5.303885057843546 9.762679054646933 7.727677593038532
Be 8.583932287790285 8.973450126571926 5.096312428283281
Be 8.774631118232117 5.739528485890625 8.903798237657346
Be 5.6231586631646975 7.132383537642538 4.691819984357654
Be 3.9625297515481757 8.11795479390998 7.930123108972583
Be 6.9777763183966295 9.972833277460888 6.36775035837069
Be 5.033661601856026 8.8816131081475 5.911718276885742
Be 5.6640957581562885 3.8085195285365487 7.692754983203991
Be 7.880005466074289 6.686361741261523 7.403463650696465
Be 4.8514272482622935 6.560984218126363 9.241553618816573
Be 6.624993241959454 9.004985466657054 4.4659906042974935
Be 9.619805726080182 5.779480877983165 4.696617074134587
Be 7.159442297781841 8.985697888486845 8.32907212442721
Be 6.345057664991399 5.758389146708278 6.295607196862336
Be 8.823718710102979 7.9124737693891065 9.12903598083471
Be 7.106327625401795 7.9473431998872 6.106907628479838
Be 6.958567117002301 7.1296673102775205 9.521102711704865
Be 4.1886001049261825 3.7165397245676774 6.338484486562472
Be 7.705692107554591 4.305034852331166 7.307476100737216
