37
Energy = -104.42532757 eV
Be 8.002265002289823 11.322947518901216 10.047131218193535
Be 13.080643091552533 11.398668562483302 7.001398462411285
Be 12.960192026293964 11.938636907943893 10.56043242099
Be 9.945274269048584 8.05684952210751 10.865535353429447
Be 10.011279555663052 11.358374224061315 13.702683419671503
Be 13.854566178587591 10.864118592128191 8.827492962748556
Be 9.398645907073943 11.427647431505491 8.469562871280484
Be 8.237735190860418 10.105469729759466 13.458602733765892
Be 10.162194491919252 9.78340351944198 12.102742040132055
Be 11.94489739847271 12.993422783015404 6.6950681069170495
Be 9.56523278482088 9.819130048933557 9.869345300379845
Be 12.82578098082946 12.748134278562231 8.612336551314883
Be 13.205499531202861 8.93973254670175 9.533464403418932
Be 10.412076385539557 11.616903220687687 10.383028263468093
Be 11.039278503359741 11.15540440504407 6.962466161225619
Be 11.780251559458257 9.992114023681168 10.877172305854048
Be 11.190864747195343 8.051887874427386 12.720563290876823
Be 12.576472431147263 9.530058850237376 7.642850963592534
Be 9.02832289431082 11.332187640456162 11.797757829188603
Be 9.768889470260053 13.184375664320822 11.93646114114048
Be 10.75231801302083 12.884813725648142 8.375050440758384
Be 11.369335821233438 13.407574227456411 10.287733891650877
Be 8.115316641181977 12.27991628469385 13.341118185182033
Be 13.328367664891148 10.967489183431598 12.405117460977626
Be 8.98335987683081 8.173753053232538 12.812081946725431
Be 13.15094415933414 8.861093239021267 12.162137499246535
Be 9.161818979386675 13.18439137269417 9.849119237771715
Be 8.10217434899053 9.446567361486814 11.361620769947704
Be 11.993991490823696 7.715380107648861 10.851487581681175
Be 14.212164165961289 10.220376405905048 10.794942033324311
Be 10.020881589355954 9.27852566517543 14.177793522710397
Be 6.9976219963470845 11.118436624730418 12.02267131466166
Be 11.469090261524357 11.829087683817527 12.163624168145466
Be 11.173106679218952 8.646765077853402 9.107445227727203
Be 11.58794209643232 10.83489492593947 8.921394733693395
Be 7.7235127977775715 12.963350178396919 11.367818013158168
Be 11.837209207802523 10.01122997516548 13.378346027718145
