32
Energy = -88.88399275 eV
Be 7.533493298676457 3.213329163819294 5.451137688743948
Be 8.658409444258293 4.906868787804715 6.348974473877854
Be 9.571021665306333 6.784205634654407 6.208692519016062
Be 7.567280505846004 3.971045555343696 7.7602531554916725
Be 8.153867045815868 5.131486199632482 4.39037333871872
Be 6.0113256591701 2.9198465980957957 6.954460147741528
Be 8.990114866709655 6.155236843344926 8.101209419537055
Be 6.414710539095181 4.323810022876391 3.7305472490420803
Be 5.333629877025368 3.256264673820337 5.071975148051283
Be 6.489311152294994 4.915586174243452 5.897838809900469
Be 8.87972737388557 8.274468238889508 7.504583291665554
Be 7.614039605643235 6.723105870767457 5.554852858493486
Be 7.013825326506356 6.053939398071712 7.534213111170399
Be 8.494594622521948 8.57923157107911 5.517658771668888
Be 7.661336644499269 7.587473785610215 9.014847134990168
Be 5.608495576864995 4.412611025356222 8.259331980298755
Be 5.536602712356749 6.666878050364949 5.943052901213248
Be 6.274000982603486 6.128595628098578 9.415764644559074
Be 4.420954433793052 4.522970672624896 6.54302793648791
Be 4.616339456718845 5.236906986094156 4.572211193674213
Be 6.650159060912463 8.041427836501752 6.9796460854335765
Be 6.299387727003451 6.356305201456692 3.956308406408657
Be 7.289551505955894 9.523275742769416 8.423509568792355
Be 7.162750140679628 9.980495829882548 6.3278254240099665
Be 6.517037280148143 8.395223011572197 4.802193045116336
Be 4.722126660429877 6.248672966913237 7.927927981985661
Be 5.610421240388361 8.07557778220506 8.875543286654102
Be 3.522450030191173 6.337930346281771 6.030525283678256
Be 5.45610078004189 9.818300900263194 7.633410865436012
Be 4.477900273663988 7.719449858110092 4.614408658155417
Be 4.334015615008529 8.18299022494291 6.980764133152162
Be 5.0791626599636635 9.520633182488233 5.63707525081324
