34
Energy = -96.46027262 eV
Be 6.475975625404746 3.4754333615317905 7.371500492856787
Be 6.353298437259362 5.687555941004644 3.935290693687763
Be 9.848900058145073 3.2983675585604963 7.055224508737428
Be 6.682981625145456 6.791378822230954 5.811004430439978
Be 7.865297671967678 4.220090127566188 4.343863514185733
Be 4.8199919996740554 6.508940082036825 8.663620531472985
Be 5.550135204754345 9.976512202509122 6.879020811066582
Be 7.164038778877856 8.745581616986305 7.136188730418105
Be 6.1570634523734356 4.225352622635302 5.441904833530169
Be 3.241039007538006 7.242982053090514 5.1142853940893405
Be 9.568086946242211 4.560721537423342 5.484181612673085
Be 8.722635337301126 7.262453745780772 7.417259263243014
Be 6.539644097545852 4.9738486305563985 8.775097566480524
Be 9.83616223861801 5.270645876058538 7.532578475629632
Be 9.859886727134763 6.5751197354276805 5.888656869552226
Be 2.498817349894458 8.28954574967881 6.658639474906328
Be 8.416236982069366 5.795681024954606 8.873604828186016
Be 5.417162772107784 5.363906416623929 7.06352545593863
Be 5.0167136189085415 7.62267167235673 6.7032278240631875
Be 8.044260636747088 3.1458892714048052 6.138574718729654
Be 7.15289384696077 7.6585269393890805 3.8607878186974607
Be 8.410563478583786 8.120695608615243 5.517478778482038
Be 5.1419377866968885 7.561243166420513 4.2856064409428045
Be 5.395282960652322 8.677205516315542 8.546448643679614
Be 8.436327508609693 6.16178537081859 4.4983034453362025
Be 7.757392806787247 5.276538283700136 6.732453890962771
Be 4.134182813851349 9.17873834432035 5.461872586898261
Be 6.350109389279373 8.98832417561834 5.210782810775028
Be 8.30503721681726 3.800373176645933 8.29854450453195
Be 6.743854586376704 6.934488207500656 8.086000621706651
Be 3.361321871775422 6.269052573102101 6.986266941361571
Be 3.6814715025782108 9.690140584295825 7.564209345164017
Be 4.613026094652539 5.7265805631953235 5.176738296534741
Be 3.3891512972794287 7.874511170254251 8.438137573649785
