38
Energy = -108.42423782 eV
Be 9.080258715102232 6.706278924761762 12.250224027187286
Be 9.939175397426595 6.737314897140032 8.404478009716527
Be 8.619552687910392 8.721320516533911 12.039707124184455
Be 7.539338322439042 9.223597612511304 10.268489158185028
Be 8.978560745746687 7.6378727065544 10.091199140677066
Be 11.011504892883105 11.937789516092556 6.916543233744003
Be 7.29564157058207 9.220061102910464 8.122320591864366
Be 10.600662680645076 7.894800405830597 11.531530056505975
Be 10.067759966814952 13.657094628222922 10.085148603163073
Be 10.82328110506358 13.411292276538 12.158258250835543
Be 11.76985439231206 10.10864987814354 6.594503296788441
Be 11.510720690853836 12.68291176780205 8.793194238040508
Be 9.687669657853087 9.544005156098125 10.449972975132038
Be 8.24675073353865 12.52013643090451 10.037621546087387
Be 8.131432262360203 7.318045094753437 7.563457121126703
Be 8.862815258913109 13.052944429240357 11.85007722885929
Be 10.457274556450862 9.870427285440805 12.390377705280075
Be 12.113391686714847 13.033581633315036 10.702250413039103
Be 11.066730875819868 8.047890177966734 9.500182327061339
Be 8.261485395037123 5.863546879339346 9.18385369661933
Be 12.59661292601582 11.20533867195093 9.861336893520669
Be 7.2818411987180225 7.1940076013113154 11.20483089460611
Be 10.07013868298338 5.981447317450826 10.489200703637465
Be 10.909007041222491 8.462306617537338 7.458163136026567
Be 12.826827374052321 11.334300492838093 7.82970878918281
Be 9.586220152040259 10.321139038167106 7.08995323134784
Be 8.463020916261785 10.915714253602255 11.490895075340683
Be 12.597780705231349 9.33731103715713 8.590642807776764
Be 9.548414559966764 12.346925347018347 8.3487765530694
Be 11.906068183879201 11.383186538657801 12.04974121029842
Be 11.799017972777715 9.575963780575167 10.754742696926549
Be 6.901348607063378 7.487000522826259 9.146996713305256
Be 9.953863139814787 11.770980684799946 12.94085670244383
Be 9.24275147955162 8.842581352573712 8.489519326596579
Be 8.554289591394875 10.701221266500838 9.080562054648178
Be 10.784718197841753 10.358227463141164 8.81634659072907
Be 8.17852969113075 5.304497166651079 11.156711695367788
Be 10.375281073038947 11.528176744355696 10.486511008001544
