35
Energy = -98.21829407 eV
Be 8.639284922537549 6.903925892118991 3.636235136393755
Be 8.697915006307952 7.20733929154402 7.6870614619807816
Be 5.5413199965060675 7.895585243096207 9.384328826305506
Be 5.565739847436525 8.770664903130541 5.755498397630519
Be 3.6651311108865103 7.757968738398028 5.346994936286954
Be 4.459010216696222 7.901011676039065 7.289818503408849
Be 7.440911573973852 6.4149954739919925 9.591400559774264
Be 5.359026990354567 5.920809192660207 9.894098265244748
Be 6.3958025710171045 4.5808214775638225 4.7115204109464175
Be 7.5135160592172054 8.565743448199065 6.614305182586634
Be 4.659594025164636 4.9686111157934265 7.996034475561215
Be 6.5613889035786 4.641779077505508 8.889553114355495
Be 8.389639119926235 4.284529813367302 5.729364932276878
Be 4.442143022816316 4.5507382843105235 5.818850452642401
Be 6.3380777892592715 4.649875378089702 6.743546708172928
Be 9.213214090384826 7.503791597830478 9.722192388322277
Be 5.258720695882342 7.852647465702409 3.8725532513215595
Be 8.179510126267719 4.91817591023998 3.7036229288714613
Be 7.572234778993412 6.251448923707615 5.8311723180095925
Be 9.241132531195404 7.5091319657398286 5.574029909285034
Be 6.632283873097069 6.354791988580161 3.518147597602589
Be 7.256510928780011 8.118667786929215 4.593499186816123
Be 6.364451992325458 6.73167724162103 7.664968228602276
Be 3.4814267531775624 7.021751478565821 3.3595309850151174
Be 9.759511514727862 5.71065781501632 6.7406213315031005
Be 3.8502630154178394 6.74330573829519 8.877661220009806
Be 3.39569044271738 6.173605360930069 6.819238563545739
Be 3.040012670204212 5.751987772380689 4.865568579244957
Be 5.926979075050555 9.195638763623553 7.812358438366241
Be 8.052870055706919 5.167226432827454 7.635115976249343
Be 7.511250541531599 8.489628515134969 8.835573170764025
Be 9.32562006421115 5.610688660268227 9.051958857952695
Be 4.733443157804916 5.470749914667123 3.7562902355079384
Be 9.784993855189766 5.616321342087721 4.7295655595551125
Be 5.455040407691938 6.497368046080441 5.651381635924225
