33
Energy = -91.89111026 eV
Be 4.7830842920087395 3.859138202981993 9.633302421964896
Be 8.005077058380316 8.063999983080539 8.586591471204061
Be 7.660498473121891 6.414444934207058 4.224255307133985
Be 6.454888627377547 6.990081182924616 9.455398856785791
Be 6.0740495728707895 8.393429829014986 7.911484963939431
Be 4.978181317584939 7.5277343900670575 6.315154607845254
Be 6.582038094345872 4.8297028886943645 9.15370359990649
Be 5.199530562691162 4.0207263222513445 7.567094728017789
Be 5.761745655439514 7.388567130449633 4.448501424072791
Be 6.182181133333347 9.160750131896588 5.709847636329588
Be 3.621525280580271 5.093732861187633 8.46541309474349
Be 9.583918426075442 9.270671949908525 6.254482915947619
Be 5.96939960730381 3.2468867040213967 5.762117501128883
Be 5.185298697585983 3.94508319396631 4.035821347802719
Be 7.744692280326728 9.45505270355964 7.142193263219996
Be 7.297870518669829 4.392947957408882 4.5790382361225355
Be 4.051781366680036 4.035413006475368 5.780942106979499
Be 7.222530830956986 4.366620843125831 7.074187972221923
Be 8.455226177135192 5.682929826302176 6.009604353099886
Be 6.01476323859232 5.589201578260429 5.711828513672737
Be 7.961008328474131 10.223160047612858 5.2514650381238095
Be 4.292382484155041 7.142893123762558 8.410097301678377
Be 7.980083413220876 6.070926777109152 8.10246935478999
Be 9.194410807976766 7.525788315574454 5.0882551968967045
Be 7.21323237982015 7.364301247152044 6.270396838026332
Be 4.266445263822893 5.806276428067487 4.534360448458465
Be 9.262003895146307 7.417993655132934 7.1419526884856595
Be 9.412406881192538 9.389641736588867 4.206041794406109
Be 7.51331713794416 8.500101997941362 4.108179817928366
Be 3.951205677068999 5.826719277929416 6.635929818255385
Be 6.009234355013643 5.628442022697291 3.356736069954072
Be 4.816978608105815 5.854224833793498 9.966451351750134
Be 5.869878024313133 6.093283384168158 7.677568426422114
