34
Energy = -94.65742366 eV
Be 8.629387580018841 5.723941537231354 11.245287289717728
Be 5.841143993662037 6.649411406072285 9.074094237737771
Be 4.464254208224022 7.7401445434739164 3.6221032574228618
Be 9.013800607302423 7.3402851860260085 10.158986928730735
Be 6.231454925928067 8.897915368401993 3.9586474140709647
Be 4.033406531419143 8.515147081450783 6.530090864485463
Be 2.890767727424793 8.43456153110106 4.806332751227474
Be 5.495175082022222 7.295394459471353 5.488174790594528
Be 5.744508062769807 4.79757984869155 7.990468294771299
Be 8.394280467924458 5.740837156295136 4.075690659485715
Be 6.7121535652833995 5.616190779723059 5.137288492834448
Be 8.331117001136382 6.728904861961417 8.310179198903182
Be 6.23492495158952 9.292101708372918 6.027003423348658
Be 4.556419177113788 9.587484919771544 4.818032972836185
Be 3.5202585939841975 6.589247103989949 5.442026418417412
Be 8.677852792711782 6.379166742342643 6.243711856688495
Be 6.652013825171538 6.440134995215425 7.029333902975459
Be 4.4865994354523595 6.602430789132783 7.3692188350256265
Be 8.675660974712631 4.407692125901023 5.716645160523081
Be 6.7219363796205025 3.8159966620897787 6.298405201959334
Be 7.311765977291579 8.278433804938055 9.188095639387639
Be 7.991450506743221 4.718323801140829 7.718508139583403
Be 7.207115077807678 5.152823133320102 9.627767867701378
Be 7.799480088028323 8.288089271228243 7.084416240790675
Be 9.297250486520902 5.323161517211805 9.401039129786904
Be 4.818817433578751 5.701414804598487 4.007545276101833
Be 5.591689873273843 3.786396621921906 4.4947812210442
Be 4.888758842509418 5.075286878117704 6.06813683844096
Be 7.597564262913249 7.671297195481584 5.060457007269131
Be 7.5701554717357755 3.609567219965893 4.219673592566298
Be 6.493067441084313 6.910274199978202 3.450241510800713
Be 5.723482611220599 8.287055323378366 7.77868709678288
Be 7.054766270610854 6.93034254333938 10.734913245579468
Be 6.562305647101109 4.887750752554688 3.0388011162984214
