31
Energy = -86.26096126 eV
Be 8.77866745099078 7.867323688660206 5.32391609424845
Be 6.818115127268635 4.974134849267629 9.911824659367916
Be 9.14667408725301 4.325287854692943 7.528657948996847
Be 5.865254700494217 5.109072259239293 4.922632676234164
Be 3.276444674961234 7.404953751706182 5.917898908658487
Be 4.804337398134171 8.902000513528389 6.592302725545522
Be 5.820583732303046 6.500634391530752 9.161350020312067
Be 8.795268911987995 4.814894305676777 9.480129669717574
Be 9.71255416314937 6.1831442070014155 8.259381254163738
Be 5.652297210249745 9.498431325947378 4.645484575447392
Be 5.78235207680812 5.736652993149681 6.990064311515163
Be 7.241896807200731 6.7336782664462795 5.992626878036065
Be 7.09033345962007 7.9830548810154465 4.103523473338033
Be 4.375888205888826 7.036638221422825 7.6521176886927185
Be 5.411415540881843 7.259456866625071 5.442544677000926
Be 7.5809366224755435 5.858030044855063 7.825686678194781
Be 9.152869591784782 5.964560398392648 6.205165100831191
Be 3.937490448558744 6.558247022646899 4.094437401054185
Be 7.043970542865623 8.884005675755132 6.066548074886223
Be 7.601860936582669 4.501338580317408 6.03534828261708
Be 5.658452307440855 3.799521450122483 6.607993235715419
Be 8.522988831550787 7.712232994899839 7.425750959500344
Be 3.7473106115660486 8.804784304039858 4.5535374592776146
Be 6.389666530819055 7.799464864344832 7.694733338229858
Be 8.018378132733599 6.83027242634788 9.51540928409379
Be 7.107973379663254 3.8159171162323564 8.13797354839657
Be 7.836282539242583 5.920008627063977 4.280948501535644
Be 5.986479918005724 6.3920886699722885 3.347758231294201
Be 5.205265630173769 4.639516999525455 8.599442946084146
Be 5.067244146553996 8.200921588036591 3.1796818205295216
Be 4.065083600458754 5.484068179205708 5.999466894151793
