39
Energy = -107.94375964 eV
Be 10.034914536458801 12.378133287442175 8.836149741984007
Be 13.864054604070331 14.099222674595149 13.715589679143926
Be 8.245977450912633 9.120250767141863 9.64575688513319
Be 10.661992378993132 11.53491189794272 10.522038551133237
Be 10.747302211405424 7.352158913680386 12.331512671907475
Be 7.355311900278438 11.040393458793117 12.713392716993194
Be 12.315672931169896 8.70724573020047 11.543160588600905
Be 14.68850419029579 12.087419851086832 13.856185208644215
Be 12.109068428295132 8.667056443402974 9.379890105475862
Be 9.1701380432471 7.650600856147437 10.866120922730868
Be 11.142463152470881 7.222894598002491 10.391420832916593
Be 14.07848249671551 11.927995198238206 9.944763814917524
Be 12.421153754754519 14.239889928406201 11.949740674082033
Be 9.283981824816507 10.407437966189315 8.466204640004984
Be 13.257042401015962 13.932854075459437 10.08372200284868
Be 8.109116263653378 9.41321335799496 11.586680786689445
Be 11.697173592373913 10.743986536576166 12.254394138983935
Be 9.172020609637205 8.469822914754337 12.946483146067013
Be 6.6904076356565 10.545105623318443 10.725017325201698
Be 9.166761157849619 13.156160402088148 10.791554779795442
Be 10.315473943504998 9.520429543977393 10.899829824518594
Be 13.822345852949065 10.911441380250722 11.990045886480853
Be 8.550889572937011 11.219201654590243 10.225252825847154
Be 11.273394311041296 10.410117766392112 8.604145181939119
Be 11.13653928954129 13.676911750701004 10.225194777752368
Be 12.181874377867299 12.297923589840835 9.045608312091371
Be 10.0990032083727 8.433301523472846 8.918335189318498
Be 14.374940611109475 14.96727606105585 11.925895170578361
Be 10.720119391888172 12.799032776806682 12.304121282674222
Be 7.147092102369386 12.496467130909814 11.372493691773283
Be 11.037072607534125 9.120754576452192 13.259709975896218
Be 12.761755706272904 12.48105571459925 13.205418408235893
Be 15.788328708871921 11.72932452720081 12.249587574287489
Be 15.743199859215302 13.667835592985021 13.14591433593774
Be 12.529650640913964 10.432743589072276 10.294785608414424
Be 9.53495328323812 10.85400813679901 12.507871895087849
Be 14.362187233567854 12.993080064658201 11.614711894034086
Be 12.422746158645152 12.319609541034556 11.15167095480913
Be 8.606429962611028 12.75027136766992 12.752750658207873
