30
Energy = -82.27122264 eV
Be 5.406977772545791 5.09973206825358 10.145941346705778
Be 8.344625665347497 4.0669405843261925 7.610266046284588
Be 7.853727324949712 7.942987528756503 4.038794604133717
Be 7.4033877283077585 8.796844477912325 5.924454637713769
Be 6.513632784016206 6.812698208715851 5.793408384600712
Be 6.328722547046087 6.758635104779422 3.2460333119311753
Be 4.630663806843465 6.057749434418609 4.1254046086684015
Be 7.309645434138934 5.7325912273648365 10.537335367061027
Be 4.897631047592025 5.315248724379989 6.125259517307535
Be 9.287585648262489 5.941582174289659 7.380000103875217
Be 6.04835210029232 6.859683967468057 9.383426516264668
Be 8.240656267654128 7.026116521822638 9.188006944372585
Be 6.734971855412675 8.142301324123586 7.813879898619717
Be 7.06675049690388 5.907675080747647 7.718082870424316
Be 6.387709010192401 4.9043912027262575 4.630663198426789
Be 8.158860170516792 4.994128941380572 5.806425027871877
Be 8.675742730806071 7.905980127593378 7.347495106676059
Be 6.823975371087585 4.076603604059611 9.013351072435071
Be 5.100159469599293 4.8868230740132805 8.129403542152303
Be 5.949292029424881 8.672450142464802 4.353529402899443
Be 3.9505955172481975 8.9916063090777 4.666036579050874
Be 2.9365817712386595 7.366257057430051 3.974634506497403
Be 5.2879547957455015 8.72395631705505 6.371696644029003
Be 8.084293844675758 5.945677583326215 3.9594144124221304
Be 5.031824379913405 6.942669432435601 7.539074001917392
Be 6.459089362625001 4.094935602980724 6.657279624676052
Be 8.738895334297288 5.0558840723393175 9.330858639430538
Be 8.927226781282902 7.006115123414112 5.5512479816800315
Be 3.983813179447464 7.186307138899384 5.79175894649963
Be 4.575406424971794 7.924178495831023 2.9855878077584554
