39
Energy = -109.3367897 eV
Be 6.286803719951729 8.004353462845987 10.772964041808919
Be 10.69159720930228 12.10024800480115 7.89510779780472
Be 9.495127450266244 7.548358103346738 12.860364375432212
Be 11.007624134752017 11.041038152314067 10.010177362145294
Be 8.242823513309284 8.637156226306809 7.9354873609753485
Be 12.617676950196229 12.149373486015126 9.085747891935346
Be 7.202350501536133 11.680701917544681 10.388314132120566
Be 12.980378917635818 10.023993698881972 9.561487628073946
Be 9.529796671482675 9.829694728716841 9.179569740645608
Be 11.028270365718072 8.850692193503276 12.91902976936914
Be 11.50258258866423 10.237500573862157 7.99812693883776
Be 9.025344751314561 9.715288750282557 12.895406251189923
Be 7.031035400511259 10.145198581078569 11.942465764654054
Be 9.947875878008025 9.046642248063389 11.015802540466396
Be 10.857156386842476 10.872852988798341 12.14327130421633
Be 7.467279946995267 10.489611229210894 8.668208723756022
Be 9.6422232170801 12.569195867992557 11.084552791466276
Be 9.399815677716711 10.573751359497017 7.318353551052775
Be 7.624128048761765 8.281296686145867 12.454421659110324
Be 12.60763016946336 14.075599870460257 9.917841603271258
Be 10.27711396406933 8.613036560695699 7.612139074562089
Be 14.472755711615974 11.475817420610552 9.953379623510985
Be 5.977470972754504 10.056679910105665 10.226422667695573
Be 6.310618895576968 8.69093764469175 8.768130472140838
Be 10.867706300210322 7.314508874706047 11.25038175060519
Be 7.5285302790267306 7.10213481901716 9.207043116982803
Be 11.709028863246774 12.774745143129811 11.298820598107321
Be 8.88186309721701 10.77077275348521 11.021990975639854
Be 8.534924647086537 7.022608980956661 11.092556488004178
Be 14.447623910720457 13.413630426352203 9.263598453928557
Be 9.014316057598885 12.021844049430731 9.114041270220953
Be 10.747363405028555 13.292454839337728 9.520868932085412
Be 12.106046798284815 9.177142422116098 11.230360901643712
Be 8.018905898934927 9.020007110221915 10.283702707726828
Be 15.720548711938555 12.92056719681235 10.713810806853242
Be 12.938560242362023 11.10208066589405 11.426403706780615
Be 9.560959611737747 7.640361869299196 9.381227679192838
Be 13.776900255552873 13.068738139323923 11.293248463737667
Be 11.43739348177951 8.645248628282465 9.375284068719681
