35
Energy = -98.35085064 eV
Be 5.906403312325421 8.27306871184678 4.905543703710823
Be 7.655118985822255 3.253546674576102 3.985542333093007
Be 4.016735677019837 2.831617346063893 4.707570028604056
Be 4.497566246983366 8.062256274427762 6.500736210837218
Be 4.766708529204661 4.692103218402457 5.663724514300697
Be 5.505837595800933 3.7238138964250638 3.531940351282315
Be 2.5899178280775277 8.059394982695325 3.637869298502764
Be 5.990851769431275 2.504156404422879 5.193113845990632
Be 3.5119058360141273 4.623391282748563 3.7528570330045343
Be 8.536466305388787 5.360679661594444 4.236838120097503
Be 1.7025521842103204 5.811650800675422 6.545384637346309
Be 8.775987947110591 4.8846378394676435 6.376148474165023
Be 4.01281966116956 8.978882853390498 4.73432149920049
Be 9.453165379369604 3.6692404984918325 4.879584403955266
Be 5.574362271313773 4.11545891983584 7.988410849392451
Be 3.235004003982452 6.424165395081696 2.7342865823286737
Be 5.128112240672401 5.649766741231924 2.7561774001394856
Be 3.5778682963448376 6.280089977885265 6.511515054494622
Be 2.6861460799193155 4.190913280400822 5.7045392566110245
Be 2.0947867997221605 6.066009217729575 4.521426130576642
Be 4.344506952662612 2.80992084152671 6.7511907671295495
Be 3.469542035821 4.5432512098587186 7.589192067667027
Be 7.079159523151318 4.892580174103034 2.8911575007202672
Be 2.4535225900532467 7.832057486284866 5.65049429159724
Be 8.039144646467287 2.7414324943431976 6.006087789588082
Be 7.78523197975183 6.641263510057645 5.682116460772269
Be 7.733893555402794 3.733981614930793 7.788795425953767
Be 4.988887639367809 6.067537159437996 7.903670022877573
Be 4.3123584433171445 6.6018600609154054 4.602686134424402
Be 6.82092087029458 4.610151409901841 5.492350136621184
Be 4.820528862325232 7.865903281775305 3.034452457703697
Be 5.821744148683803 6.550276148941048 6.095479508960686
Be 6.353916180456651 2.3582371053471163 7.170131903161079
Be 6.62856387567061 6.607096691523792 3.9283610883555062
Be 7.076262074092994 5.636107161061022 7.4928050442376835
