31
Energy = -86.28258025 eV
Be 8.363133245423565 5.872106465386959 10.892597496588017
Be 6.4011991430954 5.66509221315049 10.402179913701188
Be 7.620704973658602 8.355661302321348 3.913620997019325
Be 3.7751668928288384 6.254275540947282 5.680585327841019
Be 7.585706875234361 7.262728556844244 9.51902928023057
Be 8.996951032991463 5.624971334203845 8.93850090164679
Be 4.941165231193291 5.343419804010582 7.313947946077012
Be 8.533496414153072 5.2616712588988355 6.765953628384731
Be 3.984636256107125 8.242058795826663 5.055817817672299
Be 6.051287041795516 7.568548622865042 2.7035530911167336
Be 7.791401227958989 6.411254318929906 3.433667982276673
Be 5.955053378369691 7.199181515845889 4.84890641646675
Be 5.760824972518343 9.236624274814817 4.171060001240314
Be 5.456910504146856 9.12877470100759 6.239685805738099
Be 4.6756035388832755 7.444500618777868 7.013891886205099
Be 7.686446901573483 4.112977547601365 10.196895001677714
Be 4.265887536480984 8.485791730357784 3.022334555650637
Be 7.424132656355477 8.565513072559558 5.992778085324333
Be 4.2686524908706085 6.553689864955137 3.6657161690768687
Be 6.628297809468094 4.221934616436135 6.734790106904782
Be 5.998218651311539 4.132376595248554 8.922683947532956
Be 8.45183140437012 6.88370289482259 5.3509949599194275
Be 8.078290248219515 3.8391716724771197 8.240759463569077
Be 6.523542756895345 8.140117516706702 7.834655679550501
Be 5.321982912304811 4.9914247969808905 5.240652999404237
Be 7.408268936776597 5.026126331821815 4.923129037026129
Be 8.427858048473327 7.281976025963508 7.4838628109475955
Be 6.004338711341286 5.5039713113407105 3.3142666712726343
Be 6.662925085787295 6.411956712355538 6.475749613297756
Be 5.370386434002976 6.735644004284088 8.875918082783599
Be 7.056967380450551 5.714024675297088 8.303083016897537
