32
Energy = -88.79669424 eV
Be 2.516177319828455 9.729120849229785 5.8799263230384
Be 7.375248033430199 7.647617526786779 5.082612032137207
Be 9.853316900059706 5.477052922846081 8.705957281513165
Be 7.737845794850752 8.223793570619442 8.987128901259258
Be 5.378217900601323 4.379227505050077 3.7787002150038442
Be 7.791090064906664 8.599856763054762 6.956611016931292
Be 6.039231105853009 7.053178713041446 8.877483510427973
Be 4.313566787353988 9.647330928076638 7.002581148495431
Be 5.974388435758829 9.013275673690034 8.01072202669194
Be 7.4849879079074295 6.19410952529888 7.132037527622894
Be 6.0315312952741245 9.281667112991899 5.861804981866956
Be 5.0601823309594005 5.616242602216809 7.6231443695412615
Be 8.276227208431699 4.331561969761448 8.104572396293678
Be 7.408673052919169 4.272273232461097 3.947012313845706
Be 6.233280023435875 3.240222463562684 5.239723503449626
Be 4.532286874606969 4.436607571206565 5.786727256366076
Be 4.426383991711731 6.133365893653387 4.310820204616619
Be 6.55209293824861 6.201726633094483 3.5675062556690156
Be 5.516617708694928 7.8377305488108 4.310463716546118
Be 9.228711140009052 7.409423789445961 5.9967982619833045
Be 8.063973301139969 4.110889048711504 6.007753686728501
Be 6.300083045332171 4.02856851947981 7.169651838808139
Be 9.55657228729253 5.4588850178009904 6.6896097780367345
Be 4.2424405154663685 7.720556393022426 7.835613127284874
Be 6.266048478201993 5.6022079926692445 5.563584879822638
Be 3.7801784616998666 6.3288730971300025 6.2176298632559055
Be 6.507834294836987 5.014069566152212 8.994575924227977
Be 8.077379538144902 6.217767655530575 9.368093405086226
Be 3.9786862840574337 8.249577616980828 5.565455161485324
Be 5.788022287641925 7.361980991394885 6.544676615355357
Be 8.387012796629309 5.865374914978625 4.8739518425264885
Be 9.31776579407095 7.3119172906063215 8.00312453343869
