32
Energy = -88.2748328 eV
Be 7.354077832113011 8.792276459539513 8.533760999571808
Be 7.18144822042934 6.850300037645475 9.304931366657305
Be 5.438270428456382 8.101846725627542 8.866811095655894
Be 8.96444235426955 7.58248314514152 8.324257192748822
Be 5.184637199859197 6.187773269443389 9.518743086902283
Be 8.603116369111895 5.5439300970865295 8.273868917520518
Be 6.167076943501082 8.759311681668782 6.894714002630031
Be 6.539632385254513 4.958313491817568 8.585463555880468
Be 5.36016703390864 6.446614990905869 7.070838943967888
Be 9.583216621083247 6.708820736836188 6.53816809986667
Be 7.772360687754159 3.7848495422998774 7.413822090783435
Be 4.145695025150835 8.515741177413172 7.322942655023903
Be 9.391505787969836 4.6412527296723445 6.557725258682907
Be 3.60179791295468 6.911892997814847 8.503102444464123
Be 8.287120333151977 8.540649988749742 6.630346599065295
Be 4.436352079461925 4.784150094137482 8.209091247054761
Be 2.6077984952554 5.369512245349567 7.588502746729265
Be 3.1542106517216757 6.948108366547726 6.413287720056608
Be 4.837705289886094 8.052921505610433 5.416933616142137
Be 7.329402827670408 6.5058438430901635 5.891956067213516
Be 6.87001515864113 8.602590465984775 4.9413608818317885
Be 9.195504741976302 5.5881995303932355 4.819335071827148
Be 8.901175174491133 7.734753920063219 4.777844967325176
Be 7.6160385625250635 4.2684787776955435 5.382849948463114
Be 5.841155494133788 4.1917531363825855 6.7325698654455906
Be 3.9340274702757707 4.870403533642021 6.12933594384044
Be 4.008680641546065 6.3356315084312795 4.67581839086777
Be 9.167485827748196 6.612626239639012 3.0518227305757755
Be 5.701221678337575 5.2355072581308555 4.949110670646816
Be 5.821881870030363 7.050209686952239 3.829591979408578
Be 7.583436637955302 7.809713491536621 3.1473596670166577
Be 7.422612692483776 5.716809753859055 3.7070026052415352
