34
Energy = -96.68649644 eV
Be 10.334405180187524 5.703946424652085 7.348200530144618
Be 9.372179340926415 7.4166373514273065 6.7999673095003965
Be 9.485146248127387 5.5982189024070115 5.495736550097769
Be 8.73654076789235 4.360853705696827 7.391882249661999
Be 8.5432077575287 7.329363075234936 4.804993404835534
Be 8.73289196473077 6.264781825905842 8.529371961657386
Be 7.846552277718778 8.196442261856134 8.380207367152776
Be 7.546975560674679 8.296316626984714 6.298293883079587
Be 7.623257850715117 5.999717807856732 6.487712106377758
Be 7.62426788724553 5.563609583458849 4.166928032188526
Be 7.255918509220893 7.280954159068707 3.09888668158979
Be 7.130582467954029 8.918021834220916 4.402902128517236
Be 6.944498944404362 6.81574664386576 9.585321523509787
Be 8.08678097588402 3.9828946310236373 5.457409086780364
Be 6.732034910942331 3.5636870606634146 6.943301725907769
Be 7.034961933966469 5.004906752780605 8.517202573133021
Be 6.192258413583554 6.897412583380138 5.298545453593058
Be 5.154481481314064 3.9491901904016737 8.322115915200635
Be 5.518552446648558 8.275640622869501 3.338930293711181
Be 4.659419160406633 3.7004371412887798 6.388445118474088
Be 5.515823683302007 6.018316760880189 3.4892742150730336
Be 5.189319390426601 5.924360360127056 9.02147022031083
Be 6.096960059756068 4.465744339974831 4.964581740080796
Be 6.339689460101747 9.51578948552943 7.425167662405026
Be 6.061251763650444 7.331798680509347 7.416657418228727
Be 5.661196829186637 5.431317710130122 6.82025651348023
Be 4.141507771550551 7.386322715127827 4.476066526758549
Be 5.354055554508814 8.836011637407259 5.624403628071799
Be 5.642735521006849 8.415196989131324 9.187148707434549
Be 4.2431801135117055 5.482683160208915 5.257264517337196
Be 3.6955380879594153 5.366562821667224 7.534690291258908
Be 4.398727625892936 9.054265813529659 7.540290725332114
Be 4.120872654577466 7.198706420239826 6.509618779024645
Be 3.8856030514369766 7.3555195674346345 8.578130807030423
