35
Energy = -97.5046316 eV
Be 9.360530708267904 6.656351426751847 8.278774036221527
Be 7.49857170008418 7.878051614570897 7.930287991555817
Be 5.286446036380765 7.7445560505585505 7.449543978299187
Be 8.545750674324688 9.680723507977882 7.020111066066723
Be 3.6918941502510694 4.807067051594758 6.648114392084379
Be 5.452983418146173 8.343321525893868 5.3951132128926655
Be 5.034326371102675 4.5932723880049275 3.3857491866105422
Be 9.274758310138457 8.717776728905376 8.753182412582294
Be 8.330347927255271 4.88200895449251 4.736317296065277
Be 6.741416233699189 7.749415109115991 3.877557875931795
Be 5.9974771874364015 8.91614879423052 9.103350466395815
Be 4.263162829553682 6.721908317785456 5.963668304813013
Be 6.034771359774787 6.708683191508071 9.093176250544174
Be 3.2488207780404528 3.5290166387071924 3.5204644372286427
Be 6.425817754993136 9.497851262209158 7.0042051128075435
Be 5.4679468662753195 5.168039172927846 5.3300212859908145
Be 6.888850335471818 5.695990308655668 3.5930761854617725
Be 6.458584165844729 7.87406501806193 10.782341826358842
Be 7.612690502989861 8.702396857023684 5.491169162293635
Be 4.974657246414338 6.72426442643205 3.940637801526952
Be 8.101368320457397 7.034525230016831 9.880689681633095
Be 8.863922288993356 5.728179364879808 6.504756032373507
Be 7.550823963020965 5.623427886274922 8.195524294573245
Be 8.508828546754756 6.9440180494797055 4.674673008952617
Be 6.871504165905753 6.730469054584163 6.190836639641806
Be 7.604318580269946 10.11265795916018 8.74700037294224
Be 7.224286797527916 4.425656423141276 6.443555662815241
Be 4.858043945781685 2.648037944272186 4.35426543371098
Be 9.215504668464417 7.797842887051041 6.578968863263497
Be 6.666857862961883 3.6419275897921315 4.489327315597401
Be 8.022652601780889 9.034401320873425 10.363927477068671
Be 5.571330935729764 5.4792244140793285 7.421416435536414
Be 5.24351352622164 3.3867007436055103 6.321313755243089
Be 3.284974621451838 3.1890151144839627 5.511895120955181
Be 3.4510508119866743 5.261793866651403 4.65377381771552
