36
Energy = -100.63121304 eV
Be 6.6911739993637696 8.386141559119082 10.720536178862064
Be 5.843198614085543 6.236677265814858 10.149324154064534
Be 4.812479398789873 6.235924504929053 8.354087660342806
Be 7.105775320699857 5.858118771222365 7.892559906120233
Be 5.890360995890175 9.792239049699557 9.18548575138156
Be 6.209114994482765 9.354544658425976 7.152198458959748
Be 6.990177204306939 4.620549354652639 10.403853918721776
Be 6.338554317641225 7.778598188368116 8.722188816666073
Be 5.378674755491224 7.388350648422694 6.801289205245714
Be 5.6062766532421655 4.410260156707633 8.816987066983408
Be 7.781907078678028 6.550992765455429 10.702479412755103
Be 7.255924141217546 10.866779751576278 7.961944076803159
Be 7.5870879853872495 10.226754872552444 10.089124727782607
Be 5.340296816213162 5.257796907430714 6.651173802258621
Be 6.52546241718773 3.659583333160482 7.148718194378143
Be 7.562696879669963 3.4215101903752525 8.856117767004283
Be 9.533505313492487 7.888188750337358 7.015869231849438
Be 9.686134193356779 5.868741724102645 7.68028397159534
Be 8.38308553715304 10.08468679337314 4.37695559662718
Be 8.310111945724667 9.666735270030575 6.464382495014478
Be 6.361895920706515 8.61729170278531 5.19954593118964
Be 8.652842302437964 7.15191839881825 8.864279381174034
Be 6.75580788596125 10.662177398825449 5.54175534135059
Be 8.799404072311976 6.168089105341277 5.878532064913358
Be 7.49549320917668 7.706242379266727 6.883193541133121
Be 8.32725378816499 9.143280694127256 8.462374601205063
Be 7.272021988047162 4.795078364834773 5.589723530253673
Be 7.918632334266784 6.457654395568982 3.905982047572702
Be 8.548588675467276 4.240948694051048 7.188911298927026
Be 6.342031205296381 6.5294680279219 5.201813872506402
Be 8.683446155890545 8.487488728204228 10.45262321940975
Be 8.732074402037822 5.038538333873232 9.324600135597995
Be 8.665028528776592 8.11264744741128 5.046075463339834
Be 6.663251457098512 9.78088041902084 3.48902521036613
Be 8.147496352495791 8.407558210945641 3.0205789757300505
Be 6.341971142779384 7.683626713040702 3.3438884112922174
