33
Energy = -91.52188452 eV
Be 10.542217519817012 7.663575761343462 4.662336400388636
Be 4.612954859796179 3.516467701966 8.244826647826228
Be 3.702529523935717 9.052742378125826 6.520560258740532
Be 7.804184081055309 6.599276474819383 3.9033728153296368
Be 5.38195999495933 9.037968748892391 7.9813042491382395
Be 6.714860477562937 3.6771366029493326 8.17589417634873
Be 8.944542118785616 8.240843018369306 3.531374894621961
Be 7.081892526225757 6.025311754404757 8.36480859999457
Be 5.546818075479144 3.9719975562573735 4.977510687157177
Be 9.296086526025892 6.0653097311153665 5.518410457964992
Be 3.0800856963229646 7.114199425694559 6.345559889738316
Be 3.877699553120395 3.9262982805180666 6.399034020449219
Be 3.588059238749249 7.902122194058746 8.162146950907173
Be 8.216582217879424 4.887794908024051 7.017531669105112
Be 8.69131762324408 7.172297450403031 7.497149668067906
Be 7.2666924838577795 8.759327536268321 6.89251777586179
Be 7.2110008892900845 3.2441107755900442 6.1965691253107575
Be 4.205649388741257 5.696091070098481 5.454481520326857
Be 5.363212176654217 2.5776993827516823 6.622774981926889
Be 5.932847322449745 5.091545477665857 6.733937839468675
Be 5.580917839744811 9.426504064470258 5.917728372069416
Be 6.796665583066321 8.203917867679596 4.769944428249231
Be 9.740021505469668 6.357465575664966 3.3817392444835646
Be 7.623907718659448 4.798956441037508 4.916144264286585
Be 8.780685249936 8.174818638862657 5.60166474658999
Be 5.947508953453398 6.129367209228605 4.6542698245159935
Be 7.3644727750269565 6.590096432048476 6.113133359578027
Be 5.275909735599373 7.096050683430688 8.962290467231094
Be 7.124056573911405 8.008296132534815 8.749542209371842
Be 5.472297509779448 5.062969626201043 9.167920062575933
Be 4.577447614283812 7.829908656369392 4.879101595810157
Be 5.458305482474755 7.187584361353904 6.74015689339374
Be 3.9870489796639625 5.702385896823662 7.734699718192201
