30
Energy = -81.71642656 eV
Be 4.899739350522731 4.072902035906892 6.299019829001661
Be 5.820152659774772 6.665608191943459 1.6023026014126782
Be 3.473550475938689 2.204321350416169 6.797652479475391
Be 5.914583633768503 4.662306414313937 2.7194664708065495
Be 8.1460944009294 5.921112934302221 6.047169948728493
Be 7.577130839650777 6.270791128657099 2.664131002501802
Be 6.62300856378881 8.092533855858843 2.8788315228422947
Be 5.031953593336683 5.878721767745006 7.766940042995336
Be 5.688920280027533 2.2626793745550486 6.630857325658059
Be 4.612311408469674 2.396045609926771 8.391366748309967
Be 4.20193777556116 2.5787182461679325 4.9515241613040395
Be 6.047411933158634 3.5845360600543548 4.6218647071254635
Be 4.574632881869289 7.931928018870144 2.769843772648407
Be 7.511461513137617 7.201212023689881 4.616973608610846
Be 2.7469598722918978 3.798395239370957 5.790905395534016
Be 5.818243014525421 5.739647799424505 5.685240807867156
Be 3.6802135283201745 6.914310710671613 4.394300478771569
Be 3.50437164126364 4.150783593781214 7.834186523872865
Be 5.608513692085394 8.179739077797587 4.795025122553371
Be 4.096622773475014 5.945396969051438 2.4944628225618883
Be 3.6143520230401385 5.615161972098489 5.964824722611096
Be 2.996471821744878 6.263188856073351 7.6635684929406045
Be 7.497026351620047 4.9736722681519465 4.345961323633713
Be 5.975981259476587 3.9475981522337324 8.122595061646606
Be 5.699741482230821 6.353338083080425 3.771262182614501
Be 7.042938122983892 5.667056497160262 7.700131801728774
Be 6.599408151411443 7.476519975020734 6.588292603024162
Be 7.1576359988762706 4.049850203911837 6.352952451880475
Be 4.445828012917199 7.437524944145674 6.396112865995687
Be 4.29940572366385 4.671001425479104 4.248835901203947
