35
Energy = -98.85841683 eV
Be 11.419724858162292 6.232069657776732 7.950069402830751
Be 4.73280351020674 8.183100166116068 5.082587807443871
Be 3.0882758703064406 7.940180090675645 6.199160902337751
Be 8.195471185620171 5.490077208096819 8.969633467415399
Be 6.7011181579188746 8.467423745230809 7.9034791707323215
Be 4.757322017058374 9.05584750900202 7.067553940950473
Be 9.977828604956771 4.790946486715566 8.14683006149839
Be 6.434281893546799 7.802763345528388 3.737085590514822
Be 6.487376994840935 6.743600920359675 9.13089514382042
Be 9.43921488086004 6.275296428541464 6.590116907369746
Be 4.483180285988123 6.154098072196705 8.838305160495398
Be 6.572468233700511 8.323567669680763 5.856732650678104
Be 4.350251848325915 7.051971387535597 3.451708350304478
Be 5.961962761982881 6.231283759964355 5.102029112944845
Be 5.028528291963693 8.197128525447537 9.024088615059192
Be 8.145798064336319 7.212948651884942 5.029606610888118
Be 4.391719846275341 5.033412804427893 3.3082927807768847
Be 3.711612016008542 6.083528652146616 5.303314997332781
Be 7.60255498862142 6.057551270097258 3.4298052250149533
Be 10.115201904632002 6.439059447334706 9.402193341812078
Be 7.23936518210896 6.419629278327413 6.914167608569004
Be 8.047287102798345 5.138708339459298 5.2234650008237065
Be 5.186048542861939 6.977048446276106 6.965970953817521
Be 6.365095461908237 4.333059094541624 6.155286076504607
Be 8.497796859654011 8.285983994815219 6.786287035462826
Be 10.246173406100892 7.865356841685486 7.830948509474748
Be 8.184653555567571 4.443563017190883 7.192332143157257
Be 3.1965441839412 7.996666434549604 8.231280310568446
Be 5.85397066349646 6.125117389447469 2.458263879118101
Be 4.625055530873443 4.1963900450536755 5.088056000320249
Be 6.361957269803804 4.409961043876029 3.9112416780871473
Be 8.412469367874687 7.575667271794988 8.75911712602917
Be 2.967599021926168 6.229934503436451 7.314925662693404
Be 4.541025826415448 4.898870569622288 7.003476165761438
Be 6.2540714255341525 4.913997547340957 8.217502225569403
