30
Energy = -84.46272287 eV
Be 9.678401979639117 7.252852678540469 5.814919153718989
Be 8.694227330768205 5.799117588647653 6.884509497585734
Be 8.603705985095951 7.738460215253319 7.661672059575797
Be 8.638850913285658 8.985068106598462 5.856432681152904
Be 8.132919983109728 6.114832519435755 8.991660108719014
Be 8.918814432530636 8.017761824278496 4.0889114578592025
Be 8.578492305593684 5.864206070408196 4.506645014024025
Be 6.865302934264339 8.711422679005013 4.579032703742234
Be 7.273821563743535 4.6959054623925525 5.87735041245872
Be 6.980822747408159 8.029497707916738 9.040435882744324
Be 7.578904147722837 4.40578003557904 7.904147584745884
Be 6.758973011908119 6.555550428978244 10.441793618157172
Be 6.916998048546783 8.755321873066777 6.9596657930722925
Be 7.267183319357787 6.9851059779799645 5.661092232220159
Be 6.18614170461206 4.977540773832411 9.262261117596903
Be 6.506688961119597 6.476955010283219 7.552936265278234
Be 7.314395542469132 7.075958132814075 3.2740551182460753
Be 5.254899329067024 8.049892889477025 5.963431470790505
Be 5.50821253646446 5.919813655111955 5.8455533005846885
Be 6.528366531565901 5.293539186713272 3.976019152251148
Be 5.188079349409409 8.376657235564092 8.005973464114195
Be 5.651512503938825 4.139818410975042 7.2125945929963615
Be 5.3853642745820185 7.18837312060592 4.023152623461753
Be 5.072617543176993 6.825980130569662 9.307398493303012
Be 5.397456527977974 3.9202849985485497 5.155517955878844
Be 3.6737800147246427 6.782760326512351 5.231103888665337
Be 4.370551319496182 5.2841088984102145 4.071573172858297
Be 4.296109150262715 5.120595746153572 8.362876836896962
Be 3.7562223429204176 4.853307872917195 6.221466369484983
Be 4.039733853566003 6.821080631758796 7.283368166143706
