35
Energy = -97.44286037 eV
Be 8.384529964854835 5.82532784406921 3.770599620699415
Be 7.109189434528301 4.842085869154632 5.610235550210985
Be 0.30411735484014385 5.777471496095756 7.144996909113835
Be 5.638678386552292 4.412410484459111 4.135065624006175
Be 9.145841176443408 3.9938191043870894 4.401741894472957
Be 5.463632466134507 6.953089413631061 7.891096378134468
Be 6.1407307199842185 8.002720745142659 6.149567829652782
Be 7.383707458867229 6.560398069523971 6.8742280847178865
Be 3.469328927864521 4.167841461419284 7.005538736266531
Be 5.138038037230624 5.768141600956057 6.042975241589697
Be 1.766976321162996 7.133461482014987 6.781852025966498
Be 4.63648429922709 7.981663041851176 4.541922072065473
Be 6.5449444259267615 8.76848954069563 4.238079235895485
Be 3.6255569828713963 4.5465801258106495 4.953560380391525
Be 5.615176439128678 7.677038815629101 2.767705550162207
Be 7.6366565091123775 7.592413863120957 2.968585056271771
Be 4.3957075446362115 5.1282184539674125 8.59639243001207
Be 6.4142934512344025 6.538531213943264 4.576351051314659
Be 3.4933473610179937 6.423270726458736 7.4335415376796705
Be 7.267879111835916 2.851545506032397 5.019783306978329
Be 2.0174379008290866 5.277782643589356 8.110623772500986
Be 6.4074580401676045 5.023607559362159 8.058658975872945
Be 8.148518103784303 7.533791527928342 5.076425703330927
Be 8.400210174468851 4.785040320045903 7.495062477820399
Be 4.493384317365493 6.0820772840108575 3.6637911109192522
Be 5.200486971094892 3.337703093024434 8.05722499973676
Be 5.329493588031908 3.4845120408883457 5.998635254737662
Be 7.092596190729317 3.1752895647030335 7.130538434498924
Be 3.082560633281261 6.6925214277249365 5.165762264925642
Be 9.127858176097936 5.623333005706794 5.723458906789343
Be 8.923466976743399 3.3133019391201852 6.247103366493178
Be 7.477869226856883 4.0445968428475645 3.292599284091117
Be 1.8605414249096741 5.16878229368898 5.9969544475643675
Be 4.065471418276415 8.041328426913035 6.490250585089964
Be 6.485173288481989 5.764357932750977 2.6295556572555365
