32
Energy = -87.29267741 eV
Be 8.741424895550667 5.146360446756605 6.769570562484745
Be 8.346354285825866 6.420558961556393 5.229097675180497
Be 9.286481250775322 7.17539216168614 7.203693894412597
Be 5.097032992096998 4.229672482468715 6.551800202609237
Be 4.94200837258622 7.673083673595284 4.063777175194622
Be 9.058891027436202 8.408502823255194 5.498070812726554
Be 5.622599525990608 9.58844653451151 5.184880876637366
Be 7.650694932344631 8.409995024738016 8.418642255802938
Be 5.834371302674903 7.241741318776301 8.217714674791138
Be 4.5680431781847535 5.837046800321132 5.165694116279239
Be 3.653352335681369 9.210256580600673 4.494138031512938
Be 9.235651204017955 9.223705934841497 7.308219561655645
Be 5.585622526119323 5.131544563306784 8.464210425927005
Be 6.450442565947611 6.349067560284475 4.51766776266521
Be 7.176768300804048 4.1656012487273 7.733142664403752
Be 3.9917686524173215 8.112867926240341 7.702032299659053
Be 4.235056395947648 6.119601234023364 7.165945704415274
Be 5.3981133936869705 7.653762659421241 6.078442160022443
Be 9.099134359196839 3.431948500573402 7.918398501225375
Be 7.081811366687353 4.3825668171319245 5.337580514698029
Be 7.6868083713059 6.211458321079922 8.318648173665338
Be 3.3360107901892806 7.580672345089059 5.706947163252371
Be 7.130054697954146 8.258215949254652 4.564498523606004
Be 8.497266253086401 3.0451287120377706 6.038398571319229
Be 5.850446725595988 9.266902658951766 7.442440264816145
Be 7.52922647745808 9.694861956365795 6.201930798880623
Be 3.9959955805775222 9.636453565687283 6.421997305879131
Be 7.309881984225776 7.655055959855395 6.611752261960333
Be 5.696173701051816 2.839617925909891 7.948774116056832
Be 6.401528033428292 2.544561970983469 6.050210497763196
Be 7.641260488155158 1.968871008568609 7.56675788032875
Be 6.368494698719086 5.88524703911969 6.603695235888282
