32
Energy = -89.74486726 eV
Be 5.322822101261639 4.818906099915983 6.261589796519287
Be 6.746718856949548 5.511939227711241 2.5467817041285272
Be 5.55921409307859 7.216411318627437 2.440386987540885
Be 3.725460185269602 6.489233549878686 5.985543133448695
Be 7.168880739035479 5.150261842285626 5.526946304634986
Be 7.633081299936853 3.814134907596508 3.545212402900538
Be 5.7824687533737436 6.8636938992873455 8.593137319605308
Be 3.1544563094456595 4.559605850024845 6.479042113500191
Be 3.8980527441322 4.9645966025894035 4.590759234367186
Be 7.294564636895961 7.530165101996003 3.6972627591546017
Be 7.4214518759542445 3.759999778811491 7.1169979996602235
Be 4.163698908261778 3.5383146037391895 7.8560525700972486
Be 8.648072397281608 3.885429715153857 5.281119065681386
Be 6.72204941065008 2.882999925146609 5.350483223859505
Be 5.595993667977161 8.881289974309205 7.497617385752809
Be 6.701706625033804 8.732331141164957 5.5926887969711485
Be 5.94553374194267 4.558016552045347 8.419516995822294
Be 4.500171044921909 3.018893287699818 5.609134954271124
Be 8.366212188506356 5.678502414429548 3.8959369496271643
Be 7.960227075772357 7.020355637575158 5.641330358767531
Be 4.681040762305739 5.45965984212644 2.6998176338101416
Be 5.4707693351728 8.570467800145074 3.9446305620816844
Be 7.3440517351035135 7.904504909412971 7.4661656446625475
Be 3.9122455095915596 7.179666249050967 3.962420835055512
Be 4.133825304269198 5.631224376265812 8.012772450254053
Be 5.859634724908915 6.838310289469847 6.447720711735619
Be 5.709111969771828 6.201791955515542 4.495194645264245
Be 5.641118723392059 3.99948862970758 3.958151439957494
Be 4.011196117459384 7.694923028210753 7.682405153974901
Be 4.467796112865633 8.509484651332055 5.757530608788497
Be 5.802092122719194 2.5670154364849944 7.224195018915587
Be 7.395680177965094 5.808574790585827 7.522429456621109
