48
Energy = -141.04094912 eV
Be 6.985371028924124 7.44611407286573 3.4926541182662056
Be 6.925849236290407 9.526435970380502 3.744622609020531
Be 8.892325873081083 6.9442631483175745 4.554663093070233
Be 7.088272164200506 5.589118328260615 4.766477613078477
Be 8.784326817268711 8.63848054035044 3.45685763552087
Be 5.313804617778357 6.607347922690867 4.670419258845414
Be 8.438983614045085 5.8921893340762095 6.278420431294863
Be 8.342181805254135 9.635799127322926 5.241583491350521
Be 6.187544534271097 9.71933217923054 5.711675993202202
Be 7.007875153667226 4.377827188299773 6.494194584303403
Be 7.098290591232211 7.748339041166804 5.67253503811164
Be 5.131539906762847 4.766906044867626 5.758630382031421
Be 5.221737420112324 8.589835507731035 4.167942697835975
Be 3.7855211650158593 6.374394927810222 6.034338762651143
Be 9.100333703077128 7.966999892323442 6.484662927544535
Be 10.271054234360152 8.674773081644114 5.0223588939787716
Be 9.639332111855442 6.280314697226748 7.881494260768015
Be 7.814323826225261 9.549738254997507 7.257403237809573
Be 9.784182406513567 10.014710879078418 6.8374726519531634
Be 5.815840294097106 4.524408562076193 8.265670097995095
Be 5.987806797488397 6.386718728930823 6.972918313144195
Be 10.66926479440802 6.7338854341541845 6.055979119847955
Be 4.664127140122159 8.188699926662027 6.088407062966085
Be 11.211421572075391 8.519088774524112 7.105858446523806
Be 7.751315890320053 5.245122257004912 8.246108171926135
Be 11.67069453499297 6.7385340248251335 7.961859950431004
Be 9.362340764037146 8.37129048174262 8.630483001031976
Be 6.083034031125956 8.462867872095035 7.448871112655793
Be 10.96894423585302 10.110388199544195 8.535048602795117
Be 4.00165144842583 5.11611593428736 7.574994814239681
Be 7.194083171500368 8.993900906075908 9.193629975439277
Be 8.923038260818682 10.466453488754988 8.96549890248205
Be 7.7491569833501845 7.311430575524582 7.775522223191909
Be 4.143473502244275 7.288573106684023 8.036667190429474
Be 4.959445430344945 9.07774481262623 9.015757444215579
Be 4.62472856444083 5.640601721268621 9.567566473820156
Be 11.485946099663524 8.250985510250985 9.436625049612621
Be 6.193964810076376 7.083763275646929 9.09852672873486
Be 10.290561657221502 9.750198322505627 10.40490310107865
Be 10.621152610049393 6.400251587924276 9.697467454953182
Be 8.526292722106493 6.541231646364763 9.660523755538097
Be 7.485102687702496 7.406129065067849 11.150250773929056
Be 5.927060062275521 8.708631547133148 10.876785680898315
Be 8.28064091066043 9.387486506096234 10.845832778769928
Be 6.772727477337914 5.317655901428901 10.13633233845201
Be 9.69347838571394 7.856933282691387 10.900429351576511
Be 4.154612873539559 7.6753819948066635 10.153728157465004
Be 5.527524273198317 6.654888609789226 11.221628440345999
