44
Energy = -128.58205444 eV
Be 5.893139851942125 6.182418899570051 1.8769597514389416
Be 7.149959205428386 4.484737758385929 2.2896549836213804
Be 7.440741891935301 6.257307557789224 3.3478402094360824
Be 5.844452367024518 9.29004687682103 5.208657821020177
Be 4.0414923874438795 5.234997168396795 1.4856940118987711
Be 4.088918261868557 6.861286276895122 2.805268777162874
Be 7.550170863104653 4.268749509584212 4.35629444950817
Be 7.406136716821014 7.863626773007188 5.103914625659354
Be 5.779653065785317 7.581493408977436 3.7247415841486444
Be 8.402647694603964 6.020699641994125 5.25980341900972
Be 5.309346627831511 3.698311698258994 1.7333506308254487
Be 5.393897353167936 4.922879553138115 3.537260800883689
Be 4.103807514604637 8.270553874169043 4.903954884613524
Be 6.916080530491232 8.902994238390132 6.834753811765953
Be 6.439326086129616 2.7531424371591613 3.361659231318069
Be 6.369897998424771 5.907389119217806 5.1061625690512455
Be 3.1322064690224356 4.953331104346494 3.3175611222906918
Be 4.157267537121495 6.220348506172777 4.785811060363386
Be 5.47848894031427 7.20661407166566 6.294750283012015
Be 3.217911710648615 3.2615300528633893 2.0020150760085342
Be 4.869943184141951 1.7372264538721256 2.266211724936056
Be 7.517869888756 6.833009015470925 6.985651845143065
Be 4.686217832784144 8.869814516299085 7.047855321972431
Be 3.131379608264938 1.5009992571409474 3.384842458279208
Be 6.073762490351785 7.7492355011802765 8.306299593369067
Be 5.70859189095124 3.7684946504610446 5.322639918698046
Be 5.1303464876129246 1.28634684129808 4.401939546583536
Be 7.311548372278866 4.701507653638611 6.567576886351197
Be 2.1397285223658367 5.557591755642156 5.284334983600944
Be 3.3104722913109 7.0870822724159055 6.496228795415066
Be 4.893912366603423 5.262554638131195 6.6006502783680965
Be 4.349419408397476 3.1212882897033465 3.7197090251006846
Be 6.888472263469185 2.1831605015640525 5.394861015272341
Be 6.280824740459175 5.613426950637762 8.228977335536225
Be 3.6826968348980302 4.210269342757169 5.253141955820548
Be 2.1866465432443936 3.2517270857630405 4.033256074737611
Be 4.341090441202641 6.671995228619744 8.214555806498305
Be 5.864620898878985 3.4788524835109533 7.475982542733718
Be 5.07538302215648 1.8104295653871407 6.434414842138025
Be 1.9170311299552771 3.5733311643457863 6.122864008776203
Be 2.8224753165329206 5.195894716672682 7.259277290666594
Be 3.2733907746219826 2.0436233443222687 5.413726703199944
Be 4.439251558482915 4.601504024914115 8.578474033873233
Be 3.7541714868044607 3.2318322577066287 7.173285595311581
