46
Energy = -132.84256373 eV
Be 2.7356019398541376 1.492533265528758 0.11617465657783857
Be 1.6498545209659585 2.912179987838766 1.3510451930125122
Be 4.713097337134987 0.9482678642425684 0.9190337693666434
Be 5.066807477828397 4.6257136942385495 0.845047419703654
Be 2.720229123069997 4.748292674076692 1.6192970579886323
Be 5.8654779627170575 2.6823149808331737 1.589271973468722
Be 3.765367474638849 2.9523854165533554 1.1405648966980686
Be 2.343561897316379 1.0582407565141074 2.204883093367246
Be 1.1463971554993353 4.4431643554607065 3.1015881686259816
Be 3.2256526321681647 8.171053676272697 0.7692819371511648
Be 6.0945567795086335 6.261743644440283 1.3959979980109858
Be 4.067896164510347 6.266155578502635 1.8653245337876514
Be 6.741810888046859 4.521759487276794 2.298048224569979
Be 4.718831256228385 4.016627011478037 2.8306182631445753
Be 5.997356959136351 0.7873470970571123 2.9591306354987528
Be 2.0018582250651438 6.53792944114527 2.773435190590952
Be 2.821730660745577 3.2012361138300576 3.092031635416675
Be 5.5647423371014915 6.0702976610467765 3.3476457177575334
Be 3.3065616575547354 5.357967805911025 3.658701686343663
Be 2.536112908922165 1.621102608381819 4.405671078446432
Be 4.225402336914863 1.7748025240933214 2.815957830141332
Be 0.8598375722640277 2.3073397590840927 3.203058566044479
Be 6.638551420933337 2.7729165203459227 3.6345595078425337
Be 4.943311135605631 4.700208968446496 4.92104361436104
Be 2.9093903216618844 3.9443512670384333 5.002932896882979
Be 4.435872022462156 2.64426816240111 4.623602942355099
Be 6.882454928678768 4.741398042821474 4.390140467975808
Be 5.2706903188298755 6.879978659694218 5.31049072388754
Be 4.468918996723342 0.5038121945766874 4.496849356018114
Be 2.1138408694917135 7.401590115184018 4.7096079098866115
Be 3.9406544704016486 7.454940865722628 3.6923965509833465
Be 6.281837530095292 1.279878947503802 5.034630422917663
Be 1.4328083054206153 5.49861690459918 4.958229710442061
Be 4.132731450675812 8.256583318074314 2.5733763348844994
Be 3.6647791181390494 8.171053676272697 5.741837875955726
Be 1.0419872457481913 3.2783007156176867 5.008614166939539
Be 6.119473387125221 3.215965978440826 5.881047366988051
Be 3.454321775495052 5.779983015237051 5.721553264292935
Be 2.6506336134592914 2.389640978280964 6.360460069320486
Be 5.439982495436416 5.367377832468493 6.829509312501393
Be 4.423350763675911 7.109032732900383 7.27344735524995
Be 4.68471221825417 1.6034936314527366 6.364675970729903
Be 2.222588176841118 6.8632218386284904 6.831054490058951
Be 2.0287318985699834 4.495328258318716 6.755382513116479
Be 4.202423297794943 3.663527239466836 6.801055514685601
Be 3.543845632192213 5.411364166253566 7.878328796913278
