44
Energy = -128.16773112 eV
Be 7.642916715407843 5.676579822693917 2.0805185032913562
Be 8.658239422042566 4.579374240914511 4.031247935424707
Be 8.405823975389763 6.645057088975439 3.8055358404483792
Be 7.408590085012883 3.6107792721858134 2.7936265694543274
Be 5.335058217683738 6.420857797733005 2.0638502105705068
Be 5.5736390517637 4.34580730095649 2.1280043774558366
Be 6.871086547841655 7.556967882761184 2.7806996648118885
Be 5.821301139427347 2.4689468743006944 3.2847298888941463
Be 3.6277187304569374 5.257245128780294 2.6134142369838083
Be 6.5782775993633 5.480649789487286 3.7594887662820278
Be 3.8483787126070097 3.164117046793078 2.6932656104859825
Be 7.874749517988332 5.788694014724708 5.63072873500107
Be 8.040311787821635 2.4416161727729007 4.471868032364722
Be 8.561451711381961 3.845953679442273 6.032800339469508
Be 6.736401329838161 3.8632818711872194 4.996722241160046
Be 6.588137516434274 7.405184985466043 4.915012058448837
Be 4.692080675234314 6.348703599726786 4.126209522747847
Be 3.5896536718444927 7.4640865347760785 2.7820352817166563
Be 6.115909957689539 1.7375855838525003 5.129834734372843
Be 5.189023464230772 8.425305455625816 3.7088092824033176
Be 6.99909164617626 2.5794336110928353 6.77332114564559
Be 4.890130939949124 4.252042465231917 4.172718122937073
Be 4.067810168495469 2.2675999038876165 4.68163059919415
Be 5.797819534205242 5.504740490390128 5.676329059051059
Be 2.5719498053425274 6.269342980883807 4.282362927968701
Be 2.6801343465803336 4.100523885694144 4.1799228670863044
Be 5.164008364044599 1.5337054744937846 6.941221792030263
Be 3.370803616608489 8.389862517171233 4.73433000968869
Be 5.033974428940397 3.5593967515618923 6.202619922468753
Be 5.249227015671125 8.915035509198521 5.960441697320717
Be 3.773109179103427 5.185346773538853 5.732305140746505
Be 4.540412265185588 7.032042841876695 6.02503636678409
Be 6.931447511634491 4.632550898547367 7.222225902895608
Be 6.524707002346775 6.9373813870656535 6.997211119967901
Be 2.808242833302469 3.27179727126391 6.059200530035051
Be 2.044938594639456 7.349099806269906 5.99350055557713
Be 3.556925764140742 2.357157192500126 7.769977462615516
Be 1.8529549882061704 5.2328849063328216 6.237937568189797
Be 5.400048406723486 3.389069604173714 8.207331775912875
Be 3.3388990297775245 8.669794038518036 6.84698587213317
Be 5.023186119845374 5.597295249463273 7.703472779967616
Be 3.3102132694516575 4.40549918350642 7.721662629799464
Be 4.839723926008417 7.862357223915565 7.900893797311307
Be 3.047952342447435 6.567635193908752 7.617345232086911
