41
Energy = -117.59910097 eV
Be 8.529704636832854 9.405171268915849 5.029064540678363
Be 9.132450140788933 7.4328963652290625 4.190880129431968
Be 5.148559991493167 8.794790346260038 5.144497951917859
Be 6.896294807673524 8.168893031343483 4.2085542747301865
Be 7.07615172613771 6.0287187716847 4.338417978102683
Be 10.493913842461936 8.77973425854154 5.163824625221794
Be 10.162673126614289 7.011804118599616 6.090275400605278
Be 10.848739579867402 8.998713346531384 7.333879199179879
Be 8.254941651375812 10.553539733835509 7.115681297064144
Be 6.830796476291932 9.144721643585447 6.22295051457619
Be 5.680732368315391 6.927370060184613 5.732620979045429
Be 6.926188136007134 5.383203851732682 6.413914676379809
Be 8.80499572964084 5.478554225293994 5.2957221343668515
Be 10.017091455994674 10.495420090091697 6.150701462627734
Be 8.78553704848178 8.424002387803858 7.0341410618081746
Be 5.322164315462654 6.188874510705361 7.859877745184518
Be 7.856885295705378 7.280136996143825 5.72197933705131
Be 5.14305808056412 8.336471627625189 7.256761392570636
Be 10.014400422373209 10.961418670675966 8.181243194172028
Be 10.266923902218734 7.251142057819533 8.415098589243755
Be 6.906034407172744 7.364363062002685 7.44893459471018
Be 7.039409853305192 9.342497364928139 8.390512764422654
Be 8.729499310212807 6.133452763206928 7.321519260693132
Be 7.172982211698025 5.427070156645801 8.604873875063733
Be 8.167914937913027 7.360533020507421 8.971399078380749
Be 9.300913929387471 9.186131969977877 8.788330722985915
Be 9.217344549240337 5.595027994840805 9.294636670643175
Be 5.8905245387909 7.871128476542521 9.276909040812228
Be 8.102137249098615 10.892430970293567 9.352119106131308
Be 8.167882213288593 8.782191791819791 10.398385570408227
Be 5.773226565516056 6.002122764943907 9.995747515147274
Be 6.487287450346288 7.665881475651178 11.301237357922963
Be 9.910933242884376 10.573145651511041 10.335523225769215
Be 9.717611941584043 7.223375581511721 10.5333574675913
Be 10.953187129711136 8.815549946565474 9.903181671090449
Be 7.764358947146517 6.097972965751172 10.706874187831486
Be 9.743015771203098 9.118893166588524 11.774951623928276
Be 8.216180916787895 10.81194430849269 11.444956178902022
Be 6.459421197069523 9.842592972929305 10.540902229911207
Be 8.440976674146235 7.457480603172404 12.157875722225198
Be 7.471927468135032 9.215608868453659 12.382658890411232
