44
Energy = -126.70584192 eV
Be 11.839464212391976 12.146001303669303 7.146235176962804
Be 8.359686246135725 13.35780290259647 11.584079758271878
Be 11.947913384183519 10.502636349112361 8.488419061003171
Be 12.91578416186345 8.626611027665405 9.597900010457563
Be 10.036031201713195 9.703739045987119 7.771146337323282
Be 10.290681708691311 11.080554086281532 6.232435701335162
Be 9.824630272228365 13.381657894594609 13.220052271719807
Be 10.846550647929856 11.423568636194185 10.113220727041583
Be 8.741066340981696 9.987118786135747 13.266229684677443
Be 11.87832680530495 9.872362910532143 6.411098643126264
Be 11.50303504143106 11.01326984288121 12.07152804317988
Be 10.680342830468419 13.375902208370384 11.258633961084632
Be 7.558351919366183 11.923455622783946 10.136327691252001
Be 7.71114215522173 10.336010600996072 11.485372283725685
Be 8.993828439718852 10.461750944205868 9.66205709239974
Be 10.849757042329626 9.170649187754528 9.714628837815082
Be 12.655270753819687 10.562438924931483 10.36181215906026
Be 9.326397456522724 12.861211089967165 9.798340376275807
Be 9.75059973063303 9.972487925162294 15.202352318302736
Be 11.766665066825906 9.675335622910062 15.17111975087806
Be 13.575253315887439 10.95131332686888 7.164974706492527
Be 11.155056738825234 13.050116574275451 14.838138815424061
Be 10.263365006377226 11.329607573779827 13.660515771019591
Be 11.406552791882634 13.114154973126007 9.053554819460023
Be 12.398634454409374 11.457452268365275 14.272715135389722
Be 11.935802342171774 8.7769250402956 11.552843311035646
Be 8.187787645044526 12.028172987929077 13.30744771376501
Be 14.478195398567376 11.614901984090444 10.57211224878697
Be 6.689152878619557 12.070498501035404 11.94421134477173
Be 14.27007076328412 10.241192437976387 9.046837037616571
Be 11.948776052878836 13.02689056490616 12.903938201606602
Be 12.67067724593698 12.721786219587331 10.851153885700729
Be 9.810924228985092 9.464175439805594 11.527478490469385
Be 11.598940539439697 8.361171769573884 7.8988798830959395
Be 13.484019409324107 8.963236999101468 7.605033949873588
Be 9.438798982025492 11.567324051863773 11.684542943856398
Be 13.310157015298158 12.191290118953203 8.853080613917996
Be 12.843316873685255 9.627962594859364 13.257212783005796
Be 11.022908734267721 11.380715322959448 15.983884008767234
Be 10.747226359987101 9.143086676296692 13.38727740499043
Be 9.954822860260647 11.749728339154823 8.150333968997936
Be 14.01542070921821 9.577224838243277 11.421183877813837
Be 9.289735414518361 12.26291794062496 15.188039562433378
Be 13.537005709424589 11.481866742944684 12.414611152232775
