49
Energy = -143.80456874 eV
Be 9.022976911980166 5.5310471451795715 4.207762683581797
Be 9.0146701566859 7.580433193401472 3.742704586338473
Be 7.1166595663520384 6.65427052962636 3.722557583496442
Be 5.802184113746683 5.6469703882028615 5.191069456879859
Be 5.905130432064543 7.729806617920447 5.120538305644642
Be 7.239415992184646 4.565116706842035 4.207941526126857
Be 10.163540535980019 7.055331021786743 5.382016493780848
Be 9.67808596248772 9.127271172209442 5.066613259490873
Be 4.340690745217963 6.632642530107866 6.304864113017157
Be 7.961268133268203 6.857590617918475 5.674483341367124
Be 7.644145162248714 8.79641591911185 4.655401449717911
Be 11.106876184594427 8.501869818318179 6.47684119598939
Be 8.44400389641633 3.7738338825833226 5.572955230686538
Be 6.2944980865195115 6.960061938943282 6.923789841521561
Be 9.502335555288004 5.3448861670047805 6.257431785079707
Be 5.137294969474757 4.915612767505682 7.222515622068829
Be 6.824206486716909 9.013916459034546 6.683302672338996
Be 10.11908077620659 10.278330593697028 6.92923570213961
Be 8.28506244518295 10.393128279823483 6.038903735099998
Be 4.9456030274538625 8.383636070816248 7.484441933206761
Be 8.925000740302321 8.374845475652426 6.967426669717082
Be 6.692764320066362 11.057789592758734 7.1953736384061315
Be 6.303463628241537 3.6208797267096346 5.908083731271331
Be 8.3041345741694 6.454334672141363 7.796146663564036
Be 10.684633928168934 8.841927537446226 8.444872539984715
Be 10.266202358088739 10.901136580828501 8.834840788045192
Be 8.682747472439965 4.177274310294603 7.751857685456634
Be 4.42878334641902 8.28060778232633 9.458216464452809
Be 7.180332587565653 5.142942088746506 6.754350647565538
Be 4.230150775483788 6.493266361691114 8.352490349819004
Be 8.249293783484887 9.7333185864284 8.406342920293428
Be 8.654365274319028 11.779590449345921 7.751777767244099
Be 8.19746442151792 5.256535680980753 9.54904155507187
Be 6.350462742658739 6.0304927418554435 8.693094628083193
Be 6.930299706489282 8.02655922666863 8.685970802750557
Be 9.782870971106023 9.467042913699949 10.180355022421525
Be 5.821838399058223 9.89493392359464 8.806662825383762
Be 10.358774174152181 6.875150190281392 7.59597542037018
Be 6.677367644605507 3.9493811188243075 8.551909373730552
Be 5.070308405598543 6.55159507264407 10.461818818396837
Be 9.104189436706077 7.629796676432418 9.32636387886962
Be 4.8140078958518915 4.711933977515995 9.35881351391594
Be 6.9213170079299156 11.808032731241564 9.047189296571887
Be 7.274058899437223 6.859448206298008 10.573309226819896
Be 6.414512958339561 4.889453012276983 10.554264010028646
Be 6.645183638042564 10.59802705112316 10.670977713945524
Be 5.914663757950182 8.516454815667874 10.7619891532324
Be 8.563359296605054 11.200884313986101 10.086788623558524
Be 7.8503739259792455 8.974848573352457 10.448980964303072
