41
Energy = -116.99118024 eV
Be 3.744387643344132 2.962125328194369 0.35596483106738264
Be 3.8192205249080193 0.8181274526985141 0.4933100027111858
Be 3.627612725965969 5.047271023102132 1.209762425946765
Be 5.410058358927891 3.622052221031197 1.5446895745920168
Be 5.620332632912878 1.897065642429291 0.3915007841126046
Be 2.047359902687209 1.8794677950941583 0.8130357052592788
Be 5.933493395175117 0.324046325526109 1.587904545656149
Be 2.5002506762522505 0.8469358239461668 2.4648916400759218
Be 5.069985569732309 6.343431671019581 2.1890713647977544
Be 1.8417668055302436 3.898909473954309 1.2561537384253243
Be 4.480318503124945 1.4715533850141478 2.2681784256144275
Be 3.1771814343135114 7.08175125727124 1.8947140000482396
Be 2.7152789305017957 5.001120709470115 3.1296199141585617
Be 1.5157874615089255 5.8911937843491335 1.4951794126629165
Be 0.9698720100812483 2.4489667418796675 2.5960949058447294
Be 6.701429222681957 4.148922871007782 3.3208526778660716
Be 3.8286309763333795 6.709312034773992 3.935784207176452
Be 6.7408890504425925 2.080414010902759 2.356502436774218
Be 1.680913871011138 6.803849244047384 3.2874497108102574
Be 0.6707682295467486 4.638549315468917 3.183754456776391
Be 5.804634862578836 5.968303885348546 4.3124333697173
Be 3.254284249920473 3.085983811705043 2.5928964586681547
Be 7.016297137739304 2.923326116233561 4.450351544221974
Be 4.718053143335125 4.688218274499979 3.1705717420340545
Be 5.174307545474772 2.812392745289968 3.582090069182633
Be 5.759211483819897 0.848518916979545 3.8166922855346845
Be 2.2265391891005475 5.637025742354462 4.992525880278074
Be 0.7425464346846017 4.367010668985294 5.984604284644796
Be 3.5717576746148576 1.5522372267660267 4.158693573422313
Be 1.8762785628584913 3.412176863195302 4.397403365340014
Be 6.9263781734391845 2.4089712425205243 4.592220896419451
Be 1.4499599411904924 1.3162694871343386 4.366188550901734
Be 3.783910028803318 3.785065663125916 4.8096864937607275
Be 5.836873310020811 4.109992158139879 5.307381784218276
Be 4.334243706971746 5.632712156964287 5.760054742049234
Be 0.7898197701643512 2.279186853324737 6.141965264959086
Be 5.084692306800072 2.134290874241857 5.611697932553725
Be 2.5822238507400455 5.120081895782033 6.87894225796935
Be 2.8641358024854293 2.0276137552700915 6.016825082792377
Be 2.0516515061205336 3.30025748726452 7.439967660192921
Be 4.1781377150316645 3.712769555444053 6.879863492513404
