43
Energy = -122.99686187 eV
Be 9.810364403712502 7.1871326060439555 3.674334982458635
Be 8.38783524228553 6.013760103742049 4.591558500218385
Be 8.18530405429447 3.9583315006679523 5.111393373010084
Be 7.321258349869052 4.6416678295215865 3.2725546224700475
Be 9.234499390395946 7.6926902969456314 5.7305133592195
Be 8.282085980194749 6.362419055234056 2.4934807056211294
Be 8.682781337059765 5.5969867541647425 6.525064236535337
Be 7.152362906398226 2.394012838618442 5.983470884111517
Be 7.699485718071018 3.890144631074225 7.302626753631307
Be 6.290344243785208 5.901650428952305 1.9265903776043471
Be 6.161357824805996 3.2780903316884413 4.421628608475808
Be 8.777214769401983 7.204937134426477 7.760835096736196
Be 4.739119930039817 6.924004541516106 3.0236594651409927
Be 8.031439926107367 8.074463596281147 3.808870574238207
Be 5.223102843811835 4.991389872917234 3.6109972184283174
Be 7.0958606372824855 7.274306124167543 6.063168496443485
Be 7.183906418521556 5.875995867894356 7.997424178581224
Be 6.084496348848412 2.5704454628502225 7.688260910225841
Be 6.517860960759831 5.21615507718513 5.759137520763908
Be 4.964279496591092 2.406373039522474 5.931132984019989
Be 7.853654694761116 9.393719303672738 5.333758075276331
Be 8.317322890414147 9.049212172934467 7.257866681967013
Be 6.580442611048158 6.65189542554046 3.849972512945848
Be 3.3567528910238367 5.576488838421769 4.115300524525636
Be 5.6173605269395575 4.574552085257428 7.880690810304128
Be 6.900857726354227 7.961293679963734 8.393064464703265
Be 5.228383309724256 6.457700751626978 7.0309446699450815
Be 3.8906911607215204 3.495392600223003 4.352720125480383
Be 4.023714254196066 3.1819503411389127 7.721075264536769
Be 5.980632911272333 8.578070909943149 4.634247090294479
Be 5.26060531013979 6.665213007355354 9.018761401746808
Be 2.8994346982644283 2.7625319400821233 6.0011069416891925
Be 4.96180278230166 6.742481169283635 5.028729664907233
Be 4.317019572455478 4.805584533705888 6.013031955363583
Be 6.3030701502763575 9.36252517497629 6.73208959037638
Be 3.638029610752573 5.2499513457337645 8.170886203115437
Be 4.9907263865506035 8.573125577105673 8.255948050604024
Be 4.463406864321536 8.415393222112067 6.286133957353917
Be 2.1228234812968916 3.950345038111323 7.467626644074839
Be 3.063728022999677 6.720708703351176 5.8450690832694905
Be 3.3751162325553588 7.342824452346481 7.838152371640779
Be 1.8485479868661623 5.942522996463646 7.224548142269666
Be 2.1279914105871427 4.7080456364788255 5.510973448115092
