45
Energy = -128.85949477 eV
Be 5.7640414083282305 4.824078413657494 0.13848694184950974
Be 6.163776556079475 5.738061234455745 1.9385216551132989
Be 4.1479924160765185 5.353843428575196 1.311274507330714
Be 4.6079627796242395 3.3552446897171304 0.8194577824943085
Be 6.61250860528 3.617023050104219 1.6266020639404637
Be 4.645620705397993 7.059557426299711 2.55677479289876
Be 8.428392837237398 5.941668243848684 4.525985536740821
Be 6.510873755410955 6.803798554935055 3.756025796516778
Be 4.65849043325244 3.835612018878821 2.884495216625148
Be 3.0841533725446206 5.501522781118793 3.1574759277642808
Be 5.17210386276041 8.41089588566824 4.168924980497497
Be 8.630453103164731 7.020105988031284 6.331873348671268
Be 6.949233821618347 4.667148181591145 3.489904766028919
Be 6.749313023952098 2.541392151051567 3.664248804914977
Be 7.8324657709863095 3.6892356212847695 5.07491693086297
Be 4.8850224558884126 5.5159036276038 4.151506434475106
Be 3.3672381673248504 7.381876101773428 4.112480691251951
Be 5.4383000131955885 2.024745153135976 2.209580781556958
Be 5.2106108844954475 8.678193869948357 6.729320732816064
Be 6.626683010169187 5.6050588063502405 5.637932350932366
Be 6.926559460623675 7.84197364973726 5.517348500182433
Be 3.5352071821616153 3.891042065249175 4.6796085958624865
Be 4.7745113384041655 2.09825273552775 4.306055624540031
Be 7.142742748692597 8.02317557600825 7.607072893804002
Be 5.000323159289687 6.9505835211037486 5.520924886588321
Be 5.336449224597226 6.673799298308379 7.5061990784805275
Be 2.894923678449748 5.845866330754508 5.3396920349696755
Be 7.502800246414549 5.927766680852957 7.743857152372353
Be 5.678180868796427 3.8494009035787284 5.0038706779046045
Be 8.820160917193027 5.000148053807614 6.318081750345064
Be 5.602325789705117 8.779658325926027 8.75310343080434
Be 3.291981463219197 7.694692852298584 6.282092550337654
Be 7.133631629038625 3.927315533974032 7.012911828807186
Be 6.358972826000643 2.1785186826605822 5.913696871498773
Be 3.7480573416068435 7.9287214869049825 8.334123087409555
Be 2.67824275512811 4.130822787141795 6.562329060252469
Be 4.201372569580209 2.7229706314516986 6.296939409089448
Be 5.862784087122382 4.816056247297827 8.573016966116251
Be 4.705896182645666 4.954953032717071 6.432766547213698
Be 6.313529103689638 6.887192801980369 9.321776728997692
Be 3.0440447070581618 5.984225899706988 7.559389490052392
Be 5.539136795568009 2.919100659820053 7.774363556318621
Be 4.651868448395425 7.747493637242117 10.19844656337277
Be 4.258317917619022 5.931082258411499 9.261131171951948
Be 3.868980109977785 4.086458653272077 8.251649033211436
