46
Energy = -135.43772286 eV
Be 4.8362656483073225 2.799016924872228 3.575912679646844
Be 4.4401084118874286 2.1217187117728638 5.549899973221677
Be 6.560220917078975 2.2629046020712495 4.785950488745706
Be 2.803775718124946 2.522504008169094 4.209229870737467
Be 6.724343456599783 3.8284021179383396 3.1784427722038475
Be 5.84907161818398 2.345577935059913 7.045036797587833
Be 4.932077509549451 3.9994832412560872 1.8310946024477066
Be 3.7917692103658585 2.1364678508779305 7.560579867844548
Be 8.080274503466764 4.062150868044115 4.728712348526544
Be 2.5430431689706 3.111756847996778 6.313495460759854
Be 7.705269625704672 3.0179659647488255 6.484944512257518
Be 5.972289500160016 4.080589845863896 5.520573720613426
Be 3.1453922905973286 4.11540760667985 2.908570731112854
Be 3.8440695585442746 4.114493350774706 4.98014176322445
Be 5.018558059621963 4.925886858949535 3.608484610123299
Be 1.8612977105660276 4.399303202323073 4.580030960434602
Be 3.1647187187882677 4.090270568036059 8.368468532986938
Be 8.018778485398101 5.64644892398519 3.1021381673693877
Be 6.252768072226637 5.6550142353526605 1.9468683571095529
Be 5.051110161536318 3.1220315598638835 8.84549728680431
Be 6.693740874305986 4.08764253190675 7.984279803412664
Be 4.5645397184402325 4.302607065482124 6.945944230787032
Be 8.0196414531694 5.053398920803741 6.675332438386575
Be 5.153396257101292 5.197963045344835 8.92479738516914
Be 4.081076730126976 5.949040072755166 1.9103561873840735
Be 8.893453437870223 6.00346251642645 5.007586297780771
Be 6.768325434314377 5.828352813359643 4.841404371389311
Be 4.622686652841064 6.006231841201989 5.470714707574032
Be 7.216348399705455 7.475203676370832 2.327379319109893
Be 5.307511956901456 7.559755277485781 1.5026487983517132
Be 2.608366711634365 5.134452680922792 6.3775473904500855
Be 7.168756558877899 6.212005396271032 8.492625504319173
Be 5.973847372234159 5.988051425772024 6.931185044085659
Be 7.76899843161238 7.690809029198055 4.24635668225201
Be 5.387914519283496 6.866407798405635 3.643594655460575
Be 7.827960881243394 7.078427262363476 6.404024249818159
Be 3.742882079978418 6.185845500546203 7.727257884139959
Be 3.1486204468877976 6.124660152893264 3.929009816449088
Be 3.7483817278524794 7.8982624063697475 2.7119009284796856
Be 5.221567488316874 7.241478626576547 8.754824118900391
Be 6.0599176784391595 7.8268777948147426 5.443976742986774
Be 5.854729829673192 8.749851097510321 3.3125363835416657
Be 2.7381812174488895 7.144708527423605 5.88631074370482
Be 6.474173602572868 8.136621535341652 7.537333489525137
Be 4.459452705621376 7.984534381418052 6.839344462370693
Be 4.085681624013602 8.14164670896371 4.725674991165364
