41
Energy = -118.50534519 eV
Be 5.932323948388297 6.524531642933658 3.7544849173429014
Be 5.990521503843357 8.626323916102862 3.9465172701985476
Be 7.6803409281142665 5.561869982118787 4.59424398038603
Be 7.957582934905247 7.601455100338618 3.694900149153841
Be 6.96072744117394 7.474666021643884 5.423672254875067
Be 3.8900209480066588 5.809109168403367 4.412392215117112
Be 4.157494654937991 7.64749937561186 3.5435581459566245
Be 4.905740607921872 7.261437919327085 5.897364711099311
Be 4.253071680757681 9.214895063653286 4.8072898925007195
Be 5.593380531670011 4.7359209651844605 4.837808072556724
Be 2.3519851558152918 5.8080065013280295 5.765375367510639
Be 9.256340442755706 8.131928767031605 5.390009322301154
Be 9.597610923401097 6.408729090961652 4.401049499615563
Be 9.473548282641765 4.684947267320415 5.428574426647069
Be 4.199558504242038 5.174851890428882 6.445560049545536
Be 5.885785822000764 9.23537386446086 6.212091207573554
Be 2.7932137116468296 7.688809086485932 5.154762483205809
Be 8.35488124163339 6.518076470803494 6.6272423540947445
Be 4.645849430785832 8.208438636628385 8.245122153017581
Be 6.275220036000288 5.683036705545479 6.451879572093267
Be 10.4499647806735 6.311205784436371 6.411342939310818
Be 7.669305714792614 9.41361822952659 4.877002431198219
Be 7.967064436890611 8.939553880365313 6.865547021378492
Be 6.525860332431604 7.44517962962424 7.401836456943226
Be 7.64355075051818 4.235998141841137 6.326089718475164
Be 3.59256834626774 8.943368499657671 6.716255027857695
Be 3.121134060278623 7.008405099250072 7.235937792544183
Be 9.488306020509675 4.621116260448322 7.43526214360682
Be 4.948051915941111 6.140849871094306 8.137421639381566
Be 7.469907565779474 5.665139011702994 8.25152484351949
Be 9.61563468838434 6.303153932293885 8.588485421959952
Be 6.495082385371582 9.224872109715346 8.39854564972307
Be 9.777828358795139 8.048754980562936 7.411462655436651
Be 8.152279433190728 7.797984574351325 8.740972332911936
Be 5.976800274477122 4.198269718105335 8.018525405255536
Be 7.97727971532697 3.3457115827103148 8.169331792410887
Be 9.013776953569314 4.541505361829369 9.5446987972403
Be 5.8480559318578464 5.432674352063815 9.874723840163918
Be 6.2037154134739305 7.3997944596676195 9.49092713947178
Be 7.1411826182508475 3.901728263340982 9.88358375808732
Be 7.829722653244263 6.143479901767767 10.248896229000465
