45
Energy = -131.48614635 eV
Be 3.3099740655815197 0.9274582548868814 1.8319790372221887
Be 3.848347670094428 2.4417106215859823 3.2575752287093933
Be 6.7760257626521465 3.8803364284620376 6.096326064555673
Be 3.298945805449069 6.187809508228811 1.2546719442050602
Be 0.3424673326473391 3.2794544681165703 2.0410756748217835
Be 5.048194463901669 7.780953558663473 4.570027340122385
Be 3.5829837980820614 4.549993004373296 4.4473491526947795
Be 2.742743061366943 0.5435428796740815 4.16210249082112
Be 4.453206264035019 2.904091256958948 1.1915784651844885
Be 3.5086263361375702 4.424432577146523 2.226308280094504
Be 4.495675746140328 1.1540560603197896 5.117749334427667
Be 2.287430852452097 2.833989957433487 1.290470948269971
Be 5.99731863892213 1.8971143111255113 3.6618252337873556
Be 2.2737502594419223 5.876772882574553 3.1581714094189137
Be 1.5799902725844364 4.797612345184936 5.093898763735711
Be 7.651232316432501 5.5068626743540126 4.880569752236358
Be 0.9764134925881418 1.2962232414455088 4.982988720022422
Be 3.3272972126282045 6.660626602220165 4.842300737215341
Be 3.2309598534281845 4.415638347730523 0.21192799600040574
Be 3.0614266108028363 5.582778821506375 6.542725410130868
Be 1.512553325135708 1.7150696759359825 2.9639896422487886
Be 6.738009169388108 7.39214685518812 5.612274585064089
Be 4.591589703277911 6.167715814515865 3.040031930403779
Be 5.228380346198958 4.0292693009394345 3.185036191495636
Be 1.531552659327701 4.9023602032678575 1.3900646972546147
Be 4.796834285389438 6.808538468058198 6.456626427416493
Be 5.085359522287994 3.212552905709835 5.0867294089781305
Be 4.644879569332624 2.3766860263892444 6.914659254487561
Be 0.21978851018720807 3.1451276560689934 4.293384526668023
Be 6.661035666508913 7.004572436685586 3.634445720329472
Be 4.61232024622014 0.22846904169988433 3.274479883512503
Be 4.894874687617654 4.570876095102473 6.845824606504317
Be 2.830225514529342 1.4137486006173074 6.3868543649602385
Be 6.4913091282916175 3.1545842979950534 1.9187111902469354
Be 0.3052656541069651 4.988567299354968 3.1746391297765633
Be 5.237353275734042 4.968227608875046 1.2388097652117538
Be 1.0493141434634428 2.983801441458157 6.193619998373105
Be 2.987012670607517 3.5778231991726743 6.647538966420202
Be 2.5602519102556007 2.657805693214446 4.805662190093376
Be 5.506357966287629 5.388611471442037 4.79710310063266
Be 5.495517574945166 1.2178508415127647 1.765203345647648
Be 7.120220532534214 3.6587922767997196 4.0555369878539524
Be 6.828350798719102 5.223741672147699 2.713383719611556
Be 6.619166115215766 5.794780484669404 6.7845025275259
Be 1.9459245062940596 3.7632801284127604 3.245723152832442
