40
Energy = -114.98038566 eV
Be 9.27758542930383 7.380945826842296 4.3326447050041335
Be 7.904819632081837 5.803196311729687 4.573655784354228
Be 10.821728437873157 7.997317682688677 5.4843817663367656
Be 7.382052782423796 7.852936993698446 5.0016069758215504
Be 5.793245292207959 6.575263088284143 5.438893216284803
Be 9.31542906548224 9.310421080422296 5.219998912097516
Be 6.395457934287381 4.511288711448513 5.881714595658785
Be 5.363367792898674 8.737677746495743 5.552277872525902
Be 4.448137815448253 5.123395120447763 6.1821389509680245
Be 9.812963838407608 5.833664603152217 5.6524308349331465
Be 7.578038605646287 6.074556974828507 6.526525938099195
Be 8.47594538705569 4.29274442609838 6.171819033471
Be 5.886054350970524 6.016122856515433 7.706265055017314
Be 8.890338773587471 7.651336480992817 6.640174720357829
Be 4.343708012687492 9.129634328079792 7.325963109357664
Be 6.5377482141439724 7.937718602505402 7.136876154997929
Be 7.503239025033917 9.589367896610389 6.168887001723262
Be 10.374279448967826 9.17463297015586 7.371647408966824
Be 10.9444509865168 6.926698571628128 7.146661930994191
Be 5.782808478079249 10.438359311270673 6.863172929014359
Be 4.214463164810338 7.118302908299523 6.763241243893938
Be 8.212783960703444 8.895629393751628 8.157285569807588
Be 9.059356924742195 10.829632200852577 6.713657474140185
Be 4.7921491443584445 7.690444670604393 8.700825319053166
Be 6.036408451993315 9.517706418844398 8.743002007298353
Be 5.273528166953715 3.762054454329192 7.432196698986858
Be 9.755948761571775 7.4004445473088225 8.66535996056841
Be 7.309094219519494 4.486777095497014 7.999957030620162
Be 3.9945810051241764 5.399784955190788 8.263826189396825
Be 7.806790960504826 6.7736639205784686 8.454367123507355
Be 7.446495018048341 10.925688063755493 8.077237950527278
Be 6.470774206343356 7.84778662704341 10.00528388148009
Be 5.6167689956559395 4.375643208434009 9.335607742456983
Be 9.9068592458535 9.127823250053156 9.690434308097558
Be 9.395056614895326 5.489589165105015 7.681722122597348
Be 8.48103894786051 7.707869072503021 10.242659957751775
Be 7.087782140934289 5.686426555500307 9.967997415207034
Be 5.107249325578341 6.163225437695781 10.033285234977198
Be 9.383341906317352 10.7651024226131 8.699714272968587
Be 7.870236514942211 9.73123302796092 10.046708580495402
