40
Energy = -114.23916592 eV
Be 2.5193985038595685 4.242458133767345 0.9221024278168048
Be 1.4564074991978768 2.6204562193143937 1.2778955167727464
Be 6.419914356234258 4.773295376296355 1.9660638155053212
Be 4.495264216510844 4.475053772153841 1.3718546898882529
Be 5.143860613853406 6.472363892628393 2.1249757232591384
Be 3.057473303347258 5.737657819646514 2.2995772294451706
Be 7.105409889767213 5.809727359896721 3.5294741459566072
Be 3.539155370837856 2.448309363598485 1.5795385563117805
Be 5.372549361065142 3.1663659675769558 2.883115235127267
Be 1.4217485183467033 4.133004731771371 2.7131239185709064
Be 7.385638836307647 3.549696636774851 3.396396770021958
Be 3.7174465134758026 7.040747035132333 3.7937610773855894
Be 4.827148837201157 5.12864814079624 3.6073033842001405
Be 5.7391499049920425 7.10859313723667 4.302912017801053
Be 3.3467118352308107 3.74805944528974 3.112414379243618
Be 2.6955993671831835 5.286131992014539 4.381597586433688
Be 4.054060392908818 1.769438890411127 3.780279255152023
Be 6.014243653641557 2.184600483531882 4.6515344215963195
Be 2.0777267969872693 1.9987934638559899 3.150721351547409
Be 8.47801272193372 4.709985404240602 4.7408808515778365
Be 7.9099981653278935 2.8290006832247236 5.348113516603959
Be 4.219117218675499 3.5818421219138523 5.0254860394486025
Be 4.279054593002953 8.100424877860187 5.4372126586872715
Be 4.56417580580234 5.710263070592646 5.579310030809981
Be 2.0015147602928214 3.311663458984433 4.7954587226258205
Be 2.6173442906389877 1.3123532549812011 5.143038118281298
Be 6.1931635611923195 4.3449118642326185 4.983314329896028
Be 4.489372349372271 1.7231065930243752 6.103672802947218
Be 2.7598901743306454 6.7488484129627615 5.942640108532866
Be 7.121995142579554 6.1445365992752725 5.660787810781546
Be 7.8409399683532826 4.374228252933331 6.647628725617053
Be 6.230615992684908 2.9079091583822723 6.674509727370467
Be 2.642194593831676 4.640648528525783 6.392977069124372
Be 5.552132710990005 7.039983152884555 6.876779399948833
Be 4.371115591080706 3.6691293677968186 7.290338506955803
Be 2.7004192857325777 2.6006878355741203 6.704688565255824
Be 3.7480436361609373 7.856267986443519 7.410855487276711
Be 3.8910520845441248 5.799253532691695 7.613781633788699
Be 5.926209192522939 5.018797131910631 7.161289073349272
Be 5.345174952325627 9.153201412196273 6.893039881409295
