44
Energy = -129.10903911 eV
Be 1.1411659014304794 5.8842861671873985 1.2087033669022043
Be 2.8085879284313875 2.7681358076186044 0.6014642697443467
Be 4.485264962709918 5.985673265429081 1.213723079220012
Be 1.2833823510595304 1.717485579150098 1.4079302515922452
Be 0.9399326577979609 7.105739005430773 2.7937971975653952
Be 5.975461245065498 0.9767575047528384 2.0599213572425277
Be 0.9208447065089631 3.7388907487064937 1.2110441165740249
Be 4.8489634299696975 3.955152847780381 0.897683405997736
Be 2.7946870684559038 6.9951268972179905 2.0347899302415704
Be 2.893061185170608 4.705010193734102 1.3311305181292716
Be 6.098940387565129 5.123056022966336 2.3084363461073827
Be 6.477140859350768 3.1092399942662134 1.9139201149079823
Be 0.09860629597832515 4.9411919670113305 2.7728742169569895
Be 4.354433519098054 2.291461564093027 1.9753782699641718
Be 3.140109008628304 0.7455959951941129 1.4734950358629606
Be 2.0128162914950356 0.9647262762585068 3.181916874882412
Be 0.2904099002329615 2.685734347921855 3.0837032881753927
Be 7.5294334422487745 1.8840311039022182 3.2351158117038654
Be 4.420471079100546 6.446218192317229 3.223238451452016
Be 7.1595799035476375 3.865030461163641 3.9100761967708944
Be 2.298899212355628 3.1621435416380197 2.793145088262672
Be 0.5544826038356132 6.116441565987218 4.498308813264525
Be 4.335814231256878 0.42488914807928513 3.289714930322919
Be 3.5624552385542247 2.1867400244390156 4.083007967269416
Be 2.5198568807550688 7.087343103916468 4.295844084458447
Be 6.353784043687281 0.40136860343785064 4.016163064473068
Be 5.524864260034393 2.4315305941885423 3.676029621811845
Be 4.213772627626237 4.190948969831676 3.1841422229062206
Be 6.853797517174474 2.15642696025926 5.337750588704781
Be 5.847799242456335 5.371002603376577 4.379868987700146
Be 1.5424486586328137 2.1513855157056168 4.884987947722446
Be 4.933651083643439 1.13557502546513 5.361402468281204
Be 2.3112507215560667 5.26979117089118 3.338181387196746
Be 4.760777932469153 3.614861646375641 5.183167134640961
Be 2.9543143606832247 0.4947982540812959 5.021056520576476
Be 2.740209464664276 3.8865073540136836 4.800821505103835
Be 0.6281894291571168 4.070705342850422 4.659429490955276
Be 3.2619279463581017 2.2062304339910948 6.291326687931897
Be 5.339319513025808 2.5565529246660916 6.827702156571741
Be 3.895852275824945 5.613743684763007 5.067967768419229
Be 6.603480151775336 4.111336881117546 5.9270369153899605
Be 1.6224858764201262 3.5709488666283025 6.528119432100514
Be 3.584307768881913 4.242490258019405 6.766817590351798
Be 1.9857586645202876 5.560485413369887 5.852457354784853
