43
Energy = -123.68870702 eV
Be 5.767875013487717 11.381044055218814 11.226559505025376
Be 11.28733985482049 12.873333191168248 10.387101569466415
Be 8.731747472942091 9.801676415830345 7.124080587410951
Be 6.146575562534483 10.253239471723862 12.897504925405306
Be 13.819918197655417 9.549034510625024 7.5058846295397545
Be 6.339863680590821 8.380884308287026 11.776846784835
Be 14.340588899473902 9.984356085676223 9.459664407816517
Be 7.951295681604227 9.433039160751079 12.850625238338667
Be 7.660260448690562 11.547166702699114 12.284807292201583
Be 13.256943900394738 10.027202572509296 11.294706636773919
Be 11.938058509488306 10.565991264357063 7.309792617025473
Be 11.691665344816672 12.370102319682312 8.417366819220259
Be 9.999182966055615 11.458878194350907 7.559026179744409
Be 6.224903290475768 11.100168733135153 9.207728171600456
Be 13.624243622971212 11.482797273238008 8.134881502823458
Be 12.037842403351435 8.827390512099145 12.329284527700697
Be 6.920034151400823 9.488042723266458 8.255997509722292
Be 10.090833681889512 8.989163614549208 12.664803805784738
Be 10.24505874299063 7.332052278816287 7.65569237589356
Be 7.78028695052454 12.056216276118583 10.242019895825777
Be 8.78056012172044 9.654348170328603 9.431491465808124
Be 8.339208643533418 7.991181104329549 8.013677861689937
Be 9.439616748143669 7.29169954701133 9.622266955804971
Be 10.602232922481326 10.969766541547447 9.61482141273718
Be 8.688504808881769 8.261796146958293 11.318250251225871
Be 8.030263181709028 11.506720237880884 8.1816136708718
Be 9.531339053514433 12.481981612466088 11.290039084513268
Be 12.15333483432689 8.369482415635717 7.401186505262699
Be 13.654664651036088 7.9377697278728725 8.765357988676042
Be 5.5169094850275915 9.223782388865143 9.888456266179853
Be 12.880819955019417 11.583339601106209 10.066422075247111
Be 10.67527553502836 9.08813760542773 10.471504212668677
Be 11.358225684639487 10.93752748988792 11.643955374663038
Be 7.286823553835262 9.94940248974273 10.798634389416836
Be 7.277468995850536 7.992204620407783 9.794923387161464
Be 10.83552925103659 7.302118978566291 11.3940672993499
Be 12.259237832082105 9.643237696235445 9.270461804764702
Be 4.671472829328551 9.639363061002303 11.708144183324597
Be 11.610175848731311 7.351102219045955 9.248152754804373
Be 12.883757395693882 8.014892213431903 10.6948735921458
Be 10.443773381104332 9.293068898720781 8.206716088147413
Be 9.245831410432547 10.439306627340345 11.420750900478916
Be 9.54822168964942 12.829911736829848 9.149879663507566
