48
Energy = -139.04981871 eV
Be 2.5955502813004814 4.280804048913518 0.5877437299081368
Be 4.764539339696505 3.8129050682525865 0.6428447443739248
Be 1.2194084488832229 2.5600876435699145 0.658352672611589
Be 3.2818463697784854 2.287207066442615 1.314776091565733
Be 5.36445294699928 1.586426648445239 0.9445999338830129
Be 2.0929399484447653 6.291637123705696 0.6991891779063646
Be 0.5930227310929116 4.517627317386802 1.2033061530913307
Be 5.647509187030641 4.9363995337023425 2.3584054937649968
Be 6.6732643620535095 3.163460907785577 1.3808832879063835
Be 4.054107393920088 5.999526195777723 1.3313619115203665
Be 3.628812832549767 4.239680616016792 2.3696395713740643
Be 4.198145714516268 0.801212210195514 2.7078752121134038
Be 1.8461442549935507 3.3741545722550916 2.481274375735089
Be 5.007422076340038 2.7677373349984182 2.5018124074926265
Be 7.880837266904189 2.754831065713391 2.264039550458555
Be 1.6571386204648202 1.3161023771386544 2.4248785181045514
Be 6.582574497397306 1.465466881649685 2.7738020113018407
Be 6.798255990523152 3.464181404496489 3.5723137239229006
Be 2.9327038700064434 7.297125024507966 2.483640778012599
Be 6.21163522537037 5.521207413793251 4.397221480343493
Be 1.951849453944752 5.439675868801103 2.4908741101816534
Be 4.686254492771484 3.9946803604709835 4.0060450240918275
Be 5.066470314099726 7.060270292049412 3.0833142149193997
Be 3.719512975247804 5.790644139775757 3.812042829184977
Be 0.3886546531208656 4.485028467138839 3.540410627358478
Be 3.2212294795342293 2.2936287607414347 3.7192993112612407
Be 3.1662765613749064 7.616725323327464 4.565349912057537
Be 0.8376373069440733 2.510289034725825 4.151535926194713
Be 5.32304912950528 1.8462203646174482 4.398155951316738
Be 1.9328323066372424 0.728202206006751 4.438471593454737
Be 2.55637310080383 4.163175317971263 4.435730728700647
Be 4.97628821840123 6.898185921095615 5.330869693927511
Be 7.300356123031102 2.118881406940895 5.172925426854436
Be 0.9261326054326732 4.451309507525887 5.655674860763432
Be 7.880837266904189 4.187827205160757 5.370583532498708
Be 5.898066742322384 3.6231897593372486 5.4807458829748015
Be 2.6277264423098186 6.062525590985156 5.949863572951961
Be 1.4295073079414622 6.295925072050809 4.282756811925862
Be 4.0102418893647815 2.9759874625342753 5.62282155077697
Be 2.0215237431286384 2.33433439246692 5.856303783874808
Be 4.384256038139127 5.003235460273394 5.825525387317627
Be 3.7182941700400876 0.9422191635974477 5.535821316278835
Be 2.7300827449204883 4.066761022158951 6.843792126447137
Be 7.119004532986331 3.2618652257723917 7.0565633081195065
Be 6.4316693116689265 5.332881401828117 6.505688793355401
Be 5.5826096447327975 1.8100164359961437 6.565726628306961
Be 5.010396898817063 3.7150052198167494 7.406857604152458
Be 3.5935308697832524 2.121729058146031 7.366488561421
