43
Energy = -124.28337943 eV
Be 3.842377018346255 3.2925727362569055 7.992207439963711
Be 5.85856624049866 2.86331639018155 0.012121346660350345
Be 5.196561344632549 4.778750067514825 8.36442877023684
Be 4.100974291512436 1.6399831030219436 0.9711109897107546
Be 3.017465555010106 4.944843965724533 0.6513361760184894
Be 4.505009771031991 3.5637343760726794 1.3981943518206241
Be 6.550331602364372 4.302725996596772 1.4669886245141535
Be 2.3049273553112655 2.934220803542366 0.9302682375099066
Be 6.125474256602946 2.2295026029661034 2.0671477665099744
Be 4.728186172065611 5.5914982916488905 1.7742802756150022
Be 2.530618139054658 1.5234495061399949 2.56287317985632
Be 4.81945124277996 0.5828696083274713 2.6474666847231756
Be 1.1906555217069947 4.615941339127955 1.6959799217282927
Be 4.269619526176256 2.3904106045436944 3.0612492697218134
Be 3.0040421316706207 3.9678254333866216 2.665705510401546
Be 2.5448955483698037 6.003976709469803 2.6161448300052776
Be 0.9599822584972322 3.044867150857424 3.0463806351606593
Be 5.477160891687754 3.999176250773207 3.148415536324385
Be 7.143400235085119 3.331765212487254 3.929289903525706
Be 4.260440574362283 7.251283761992043 3.0780954822202444
Be 6.149204580026407 5.935217577979596 3.2731994559434874
Be 4.184633868483516 5.31532266372209 3.877902513564171
Be 1.2442370188101246 1.396377338344743 4.503417083026056
Be 0.6388613720901675 5.064596827282751 3.694575168674382
Be 5.059457885002341 6.911807490006123 4.942082159908244
Be 2.6295872460012957 2.740283106601093 4.310207422252164
Be 2.7890851802609182 6.74087430882504 4.642300850015978
Be 2.396983749031523 4.742489465153609 4.485977861012568
Be 5.918519049593939 4.924987852827646 5.180966660796037
Be 5.82719726078591 1.6670000499054 4.2928022974494775
Be 4.4975082582500185 3.4092302966679107 4.86915941906123
Be 3.6960298184711307 1.0684448745899375 4.630961622069381
Be 0.9027586425217647 3.3854330909201384 5.342278647685562
Be 6.35909534792741 2.937409799685344 5.859410838456395
Be 3.776372824627842 5.537460363505851 6.033100869992537
Be 2.952399464234431 3.6433915571908457 6.131501650650731
Be 1.5475672253006438 5.291246578862634 6.226755653389213
Be 4.527456928924993 1.9441819865028 6.428969354576801
Be 2.3347696719932345 1.7253375911105944 6.284976717098685
Be 4.894177635852631 3.981083066719068 7.006158674024305
Be 1.3761833097675393 3.5133704358994593 7.458207117992151
Be 2.893598031329632 4.804342075369417 7.866718799910226
Be 3.3163428096689995 2.809564547418159 7.992207439963711
