49
Energy = -144.84698121 eV
Be 6.899284633378784 9.088711883697599 6.108102776773091
Be 7.043453706082753 8.09832067693016 4.15862525100014
Be 8.741227540452881 8.002232955533122 5.811465531558963
Be 7.420004862632056 7.811473724355695 7.853166525880264
Be 3.4908386407030685 8.389413493908375 6.2830201667619034
Be 5.167083449881316 8.765678922371094 5.055772115204519
Be 3.1706118212780936 7.9111851139303075 4.3223995597351
Be 5.108487288430651 7.472020266452435 3.33820998323881
Be 5.368552893152309 8.12087398301288 7.165933606129482
Be 9.254457266661747 6.792960429784 7.397519896409178
Be 8.543064848648207 6.548587962722332 4.214958813825874
Be 7.053814500361236 6.434340519413528 2.566205276457144
Be 6.870838345716701 7.058566537120652 6.032021078225616
Be 1.7284205504810757 7.271981479533002 6.051570182383288
Be 10.106661913052989 6.394508879347615 5.647584836970056
Be 4.805522892137165 6.709392415223713 5.415950823124434
Be 3.7882806233453694 6.634922052779559 7.3744516288122135
Be 6.43966360358842 5.882543937610485 4.349796497537779
Be 7.721113672054904 5.688058426162781 8.05280840438155
Be 3.194508131074123 6.285565943214206 2.9576476014913275
Be 5.091841975357937 5.787758430370424 2.239496257005604
Be 1.421435078464709 6.69617756053252 4.010228044029375
Be 5.71868223573378 6.567240849502508 8.577621967747723
Be 5.948498085564662 5.349776101501201 6.867436973961108
Be 7.866547447301039 5.276832719743052 5.822835343865524
Be 0.9711952617830596 5.29926773482273 5.444710344188784
Be 6.166305330236511 4.445008142909872 8.766914688767312
Be 2.9259251163349496 5.830547544209257 5.265492583788508
Be 2.309160429373431 5.092703222206298 7.181890330664389
Be 6.1122170947889805 3.9583320066317813 5.236918628287172
Be 9.71163390152877 4.630239323009212 4.76809592780356
Be 4.205310482927978 4.822453404964719 8.341903526523643
Be 9.454204886648093 4.6192259769454616 6.899077309074841
Be 7.978051534906004 4.595415704714174 3.661862521197738
Be 2.0507854002060317 4.588792338823942 3.6269905824862922
Be 4.494319758421879 4.903547079086545 4.158740499001956
Be 6.125543784791637 4.177029071760555 2.8289655318085596
Be 7.420516635999231 3.679573305302261 7.2227707231754925
Be 3.8771519289324177 4.052426636492631 2.4234737362809784
Be 4.168722872495525 4.5948013172267 6.216367279428852
Be 8.394591412238114 3.180651856291836 5.4660480631516375
Be 2.268011408608866 3.661476642423375 5.603359205670063
Be 7.253559695322213 2.659930096222767 3.864237744002443
Be 3.216652322260381 3.2027948351395614 7.444540648806896
Be 3.078674165104424 2.7919424031977895 3.928529492555069
Be 5.347688755640864 3.193974021226405 7.315160351204703
Be 5.111040912031201 2.611606626189559 3.7402214262772904
Be 6.521311580944246 2.0735587692664184 5.840142958064254
Be 4.248498091423831 2.479768382424394 5.658782640650618
