40
Energy = -116.08818941 eV
Be 8.40570502060647 4.058552376865644 3.4772894167456347
Be 8.861207923731591 3.057253642163121 5.17640146132919
Be 6.486398120590831 4.365108656811474 2.7702922259264056
Be 6.309557846953157 6.298087529518181 2.0257468135154864
Be 7.675838422779048 5.976968863639351 3.487178176853661
Be 9.009252071606015 5.28497491981758 5.108425782362342
Be 6.971549282965395 2.734498687615395 4.266436107100577
Be 5.018741367397214 3.5398661832487988 3.862414801198609
Be 8.95124405290879 4.138638777692475 6.870758648236115
Be 4.52210985168446 5.234396580937092 2.467648330472333
Be 6.378864681423198 7.792026569162421 3.614319740031116
Be 7.329072636586135 2.831639638630963 6.61664190586123
Be 5.461641196123108 5.956078950623787 4.338942980250511
Be 5.416092124430883 2.431807808312972 5.728906478193116
Be 7.377203061588633 6.822752567824921 5.289713454671987
Be 3.3973337642018153 2.7766676836022706 5.015315228248127
Be 3.263248034214297 4.686530350563398 4.108675288781248
Be 4.683753849616382 7.397005628659425 2.425333812225947
Be 8.462668857945719 6.148286129542331 6.971721042760331
Be 6.838880307251056 4.602391574612576 5.3832659960995155
Be 4.6614930105011325 4.433803986671747 5.733300221254743
Be 2.3488704218442478 4.307020972196159 6.083510047402993
Be 4.229641182389694 8.15985582524188 4.293323545214875
Be 1.663177596938796 5.8203858944590126 4.831077831488061
Be 5.793680826818573 6.04019766111621 6.655966365868051
Be 7.386106317648984 8.015190316933282 6.948339837952801
Be 3.864997115261067 6.35831603992002 5.663173746229985
Be 3.0648311683125926 6.606406980964879 3.4335606764428386
Be 3.7006966439545868 2.8620975559223862 6.9609996376754255
Be 5.667604125549759 8.046816448994893 5.70870583368647
Be 5.534678479346395 3.7049714239631775 7.524376070976125
Be 7.247843888295396 4.707439318534084 7.92530309001433
Be 3.7370807508247417 8.327687577452545 6.494688113161045
Be 7.107172122534348 6.76028518981906 8.471980711330845
Be 2.097348480588217 6.373569261925316 6.7978181769679535
Be 5.374306521451976 5.559555482124711 8.665718432042622
Be 5.522053677904898 8.034123678374865 7.850870617623284
Be 2.274442833177762 7.746153116861038 5.044112367665278
Be 3.916182797457584 6.847751578222514 7.876244203019768
Be 3.6845304582585925 4.882392603797999 7.6067285662123005
