48
Energy = -140.06867176 eV
Be 2.912577241670167 6.668084192380565 4.324029877218618
Be 4.909611495167989 7.171235372633658 3.710808478027098
Be 3.391541743726731 8.630025486698184 3.768151220319552
Be 6.566621793706707 5.488505791837382 4.176195781467718
Be 4.431490439360126 5.248177843005109 4.1493338446897825
Be 8.461109369075752 4.38081462503179 4.4891354258888985
Be 6.860981751047065 7.74973803081957 4.182761283929857
Be 3.845077719872543 7.678591330322347 5.84232811227529
Be 2.1282157654339433 8.495568358293598 5.357950935307691
Be 8.49796013198448 6.425089109846143 4.656241279595465
Be 8.790804300213571 8.48772388827415 4.67378147833023
Be 5.588158322600466 6.486280704801308 5.809682744665853
Be 5.300063540145606 9.173277812258744 4.517380856031329
Be 6.869010367969204 3.3242899640326047 4.982788432491811
Be 9.958298868164162 7.2778059705955735 5.972188736039639
Be 5.291710501861253 4.282531883800501 5.7292051413966885
Be 7.278777824196547 5.308985336297758 6.284242338845357
Be 9.026356979156064 9.182957650330184 6.57935083121117
Be 5.364222720111293 10.385839475687973 6.338462799538083
Be 7.205705270108412 9.562815220703248 5.437619128118285
Be 3.637197710340562 5.574601318559696 6.048593996221466
Be 8.578606550004917 3.2962489105289245 6.287498038912289
Be 7.638141457923958 7.539593043812821 6.3219660383745655
Be 9.734342246038333 5.163779394699828 5.958771595471554
Be 3.546783029299965 9.967061805218956 5.374945378616291
Be 10.035292112829127 4.095992534511044 7.750031091402902
Be 10.300229951812588 7.974317239633907 7.833874804967453
Be 4.2188374450920465 6.854981425678766 7.713452804872591
Be 8.258401955642043 3.2718174223542267 8.376112424653492
Be 10.896001115152051 6.028699626918531 7.587689417102772
Be 5.642131580156229 8.369252931998727 6.753447555446384
Be 7.182135761147664 9.633668065726566 7.543433069320385
Be 5.109711880867115 4.977680795859876 7.665651462583198
Be 6.568977900545924 3.322881433142224 7.067825145072396
Be 8.39235104636636 8.191016807194996 8.493268264952654
Be 8.68311893004755 6.098566024585191 7.724418937745779
Be 3.628361487794576 9.15399471467576 7.2828824790489275
Be 8.832540724033251 4.87939854727261 9.605012965809973
Be 5.293568879756742 9.986811454069736 8.350180611088378
Be 6.570895335767993 6.790399909032575 7.840874923990007
Be 6.993636475375623 4.8751606922498425 8.449819990814367
Be 10.854786134249991 5.018011839143497 9.337372384022233
Be 4.480410160804096 8.284693558564076 9.082775171700353
Be 6.741220745835669 4.85548084230864 10.404969471366375
Be 6.476626689180015 8.448135029476488 9.293197288122045
Be 9.76351962218964 6.785186579614684 9.459632414395493
Be 7.622687467725129 6.639473496914554 9.732419766873303
Be 5.437925259110282 6.311492309263557 9.474979582324005
