47
Energy = -137.97803937 eV
Be 3.9661516565379955 6.501692966280336 7.9629425010307475
Be 3.4251373777637255 4.447629885733594 3.3524310461192153
Be 2.8390211613549146 2.5840175457496586 4.512030599522782
Be 5.805445836516096 3.884344968356818 6.859243546293436
Be 5.146177901540024 5.899779022121881 6.271708073580852
Be 5.487071944522377 5.20511594569256 8.594215345650168
Be 7.53201812485403 7.805032205217299 7.765939910692801
Be 5.1688523424937225 7.751510413688431 4.791569126297284
Be 4.283132998187214 4.150255662645861 5.282943774540882
Be 1.7717336724655675 6.667231420325796 4.829421463829781
Be 6.706731319446356 3.213403012682937 3.0680807997657777
Be 1.320633466791187 3.329643543011391 3.2813232820655873
Be 3.489071604035323 7.493181992761276 6.10157780921381
Be 0.8791447117645541 5.3912802143771374 3.2870608845724143
Be 6.889190284026953 5.075544657107981 5.217843408570429
Be 1.968883876021583 4.510118849285782 1.7675074607766093
Be 7.034106781263251 3.865039678004655 8.525059564310016
Be 7.112989647916192 5.699252969879298 7.155732325236063
Be 7.030837528270577 7.288510277684694 5.6027389988834075
Be 2.6841847030909496 5.574983212642786 6.512923103366022
Be 3.0869256033170496 2.675713187083518 2.3522984852115654
Be 7.462145630289466 5.8337157454086785 9.25946508548959
Be 8.305750431452552 3.749458686905154 4.458181644367422
Be 5.468697718547647 7.974844985709791 6.931134447180928
Be 9.157536331299141 4.991859511704614 6.029641530659964
Be 5.994152005829734 5.607789537820359 1.7932214190580957
Be 3.206314978427464 7.98039883195483 4.072192078370086
Be 7.835852199058611 3.478121492484383 6.565768635280189
Be 8.86091822706336 4.585178270475768 8.069720876114138
Be 2.531771116796417 6.4952590465278845 2.7138856100412325
Be 4.357981810257916 2.385309310814675 6.173500350771399
Be 3.9217058220570444 4.236842090734327 7.563608198076363
Be 4.763347381674293 2.643293775409109 3.705899119641598
Be 1.8910178779444893 4.571258721544214 4.8792146376571175
Be 9.123054852558784 6.588134014951101 8.310803097350597
Be 5.859679504673003 7.1774766148643145 8.768300891055965
Be 2.4897647937159935 3.3341457152626197 6.42856993556171
Be 3.756974213796725 6.061683993875903 4.564044085323099
Be 3.917810471083961 5.458296665346931 1.4864563619543423
Be 6.671132737182193 6.805500179454016 3.5259422720406848
Be 6.3286264488280475 2.9497171281430914 5.073241288094191
Be 8.958079280181316 7.001178583280853 6.373550594534879
Be 4.970543905283294 3.700397956159209 1.888078551979709
Be 7.59116063945008 5.039749105638953 3.0142914525260602
Be 4.654616723183272 6.933960524485179 2.7836981968133925
Be 5.433844150806838 4.906092471216966 3.697365482197494
Be 8.540574186441107 6.177551389555096 4.456128628393813
