42
Energy = -120.72980434 eV
Be 5.9417464733646375 3.1303577365678463 6.974791742240802
Be 7.984494836902538 3.50584193297059 7.294864258329606
Be 9.838322088660725 4.250212823333722 7.093370062348728
Be 4.477900155611429 3.8342967600357367 8.308623841893082
Be 3.904404205289241 3.315139098416379 6.336581363582655
Be 7.404015176432068 2.8402811675247177 5.388271372213142
Be 6.45784109607404 4.522563424270578 8.4213536849346
Be 8.918537588962913 4.183740057200899 5.228837521289991
Be 8.41787454904053 5.30729377162806 8.323778399519615
Be 4.833380241678216 5.830912584081694 8.894401351824436
Be 5.564863245715046 3.5958666201660607 5.054665465248505
Be 7.324368884731675 4.118007458492533 3.661302094490762
Be 5.203172910392116 3.643019251864806 3.0837373972718223
Be 3.090259555972806 5.277565349571074 7.748646011805391
Be 6.062770736703336 4.895549289303054 1.7984470873661749
Be 5.000241072203064 5.217940093234366 6.546619988140136
Be 9.042891422021519 5.961006178797925 6.4041184041187424
Be 6.872183053624248 6.326213469195161 9.52268637032
Be 2.3032506558698778 4.487003546370726 6.047093534469707
Be 7.032678623471731 5.091780679159428 6.048577915353972
Be 6.350326583705372 6.583276816666364 7.507233701592911
Be 3.8067595169956734 4.6509369034138235 4.541275719849922
Be 8.398773340366915 7.326328890913845 8.003600166996257
Be 7.366107894780218 8.289171384744552 9.483225648404785
Be 4.211715550453989 5.3314401748081846 2.4756064657279793
Be 5.7889675151131 5.5794414537141765 4.168449340658342
Be 8.232037664878058 6.01336135653643 4.444752413935525
Be 4.066439144793019 7.190489095651404 7.47128130302518
Be 3.198521997043913 6.299611346157832 5.808680342753263
Be 5.440197333721168 7.895271653488484 8.948923950415205
Be 5.40890843790406 7.146820341943704 5.64340735465966
Be 7.3721498189064265 6.094646406918336 2.620680949280146
Be 3.907918813449681 6.868257487475674 3.9086782775898437
Be 7.6638362666054745 7.478342200802096 5.960768319115959
Be 6.971288991720172 8.798194278629563 7.5260090484246405
Be 5.485020897492066 7.009077456193224 2.449731211065562
Be 6.917653566424192 7.6736341321216015 3.9083153480781494
Be 4.993254641963126 9.04273244907094 7.115556234970158
Be 3.6643874327981587 8.34330064853852 5.58621664031587
Be 5.054677918595185 8.599159415477114 3.8734767648113064
Be 6.412275438015706 9.093337281691108 5.458966075047297
Be 4.669539206297224 10.072177648464141 5.329255194349143
