49
Energy = -142.42653201 eV
Be 9.448906335761311 8.922992521121094 10.654467041095497
Be 13.194166240522495 7.168638105626577 10.583987966984369
Be 8.980415557259132 12.621226308024704 13.962171482872433
Be 9.335501224637513 10.315216253676436 12.544276142677216
Be 7.778519589541509 10.072227439887582 11.20169246834815
Be 9.99336601812765 12.991454712522668 9.903373843718404
Be 6.288275804536171 12.637324463748609 11.446222666959105
Be 6.431294691996859 13.232456586055324 9.501683171700675
Be 15.040559927934769 11.098041075537814 10.52923350395442
Be 11.484982785041288 11.489037757788337 9.211511550195441
Be 12.344210520246735 10.680666372544222 14.749518681484084
Be 14.48513389939535 12.193055863101021 12.481998318861958
Be 13.305897406365002 9.681806267254197 10.573818495433958
Be 12.802744091613532 10.710607304697577 12.3977278745005
Be 7.376252303564343 13.57448634929725 12.914887689598903
Be 14.65599365714422 9.604607867458899 8.888043480740466
Be 14.242020396221905 10.98166255920297 14.210510887831475
Be 8.088809396315984 10.07516183766566 9.179368302844523
Be 11.276337283870564 9.414223214193107 13.473963573803076
Be 12.832123032898796 12.500795473610749 13.851972515825612
Be 11.308359081914823 12.088900238276826 11.414522057342376
Be 9.158826954044697 14.498404866824968 12.956175937484172
Be 13.328146788196307 12.101482014273058 10.78939435660772
Be 7.227169405872561 11.780256622809171 8.219842053906232
Be 12.041240224456148 13.410904501359974 9.972028903701078
Be 14.477743316522345 8.16452091773972 11.930341362759812
Be 13.270286877259782 7.94955436277009 8.740802477495274
Be 11.156886500549183 9.878898697055819 11.389783446385987
Be 14.992794794785363 10.143979631843434 12.425038882749526
Be 11.530859115080336 8.377126581957553 9.891486065044237
Be 10.308807380583607 9.69266521086252 8.842437800153071
Be 6.302615512882703 11.091515715717367 10.002560647350158
Be 9.389067957134827 12.50648059022327 11.947199471390256
Be 10.944827233634886 13.52675662558282 13.36055270136424
Be 13.410346431183786 9.090807063867869 13.71342024660347
Be 8.167976957450724 14.068006417856187 10.989486709834786
Be 15.003656200645256 7.62693185460617 9.777931525827428
Be 7.545560161603709 11.543906919483868 12.631716056405867
Be 9.735333980682512 10.968958933301895 10.433042331102719
Be 12.699886792580095 13.589052452457276 12.120542140503991
Be 13.610515946671834 11.460035705434628 8.918648105663404
Be 8.295724901514093 13.480949211985745 8.770181399887939
Be 9.33318624270106 11.58774150999949 8.465502703691602
Be 8.093883872654914 12.07270654275112 10.371931154332213
Be 15.779276735615786 9.215907890586191 10.68915964613972
Be 12.495030258555243 9.80090713088618 8.396802483364091
Be 10.847954508686614 11.470268363772275 13.444117448541617
Be 12.355063266811577 8.371155903631053 12.032021703989466
Be 10.659950623389888 14.228183820449964 11.416414920816703
