48
Energy = -139.53817185 eV
Be 4.2432917632231 8.36305261144231 4.206222462958803
Be 2.5418983137211764 4.112406521128305 7.496100384278805
Be 0.4680908602505536 4.5066606652912995 4.492868582788364
Be 3.628706995823398 5.868160478509001 6.696909449933314
Be 3.8594184975397683 3.593892443389999 5.861306765173557
Be 2.01991504128909 5.183823340784591 5.666856533799507
Be 4.7365453292149216 1.294221284786405 6.743453756979591
Be 5.810403185922405 1.8114513670737402 1.681861259108561
Be 5.593133571484078 5.107173193522798 6.371473418433207
Be 4.846759563094243 5.818174380703537 1.7599100311217513
Be 7.373809826236343 4.0143235432491675 5.957806352639885
Be 2.645693767309719 1.8646136765683823 6.8433663143187955
Be 2.8784896219602985 5.0748647240853675 2.0917972575131722
Be 1.0938955113244277 3.997217937425141 2.5273231090897847
Be 4.238643833420332 5.257186813023622 4.229891607137799
Be 4.229926702622001 1.9667512805913676 4.257923365394712
Be 6.421619529762299 1.4195865666524057 3.6450547351012115
Be 7.04300370759902 3.1552088502516344 2.6517270037563
Be 2.7339751734087536 3.6235955358478202 3.910694279575613
Be 4.3547815008317965 0.10780816458677035 3.975596385515284
Be 7.927724780895753 2.562619295950918 4.508759172273648
Be 5.74279029789314 3.134134027000738 7.07962699634626
Be 2.0370888605752 1.443658296654955 4.88494925392374
Be 3.7171425111646896 1.250261533562902 1.7870885743632947
Be 2.9241709803281437 6.982411090723321 5.015094570580147
Be 3.9273488318282497 4.51972336540304 0.4377504050310097
Be 3.9717407675190537 2.67076854648621 8.136400059743153
Be 4.544271529155368 4.586628768087232 8.037002297480232
Be 8.003460775112186 4.483653605584233 3.983519670334599
Be 2.044186421573265 1.762916659180955 2.836575816944746
Be 1.424039416587414 3.1989953046765143 5.846757523944417
Be 6.637730839290822 5.7943251233968835 4.785411244390644
Be 4.489726338969626 2.599988864474745 0.3720261432123429
Be 6.413446110147232 1.777714998621198 5.687515859935934
Be 2.720435314970297 3.089397358250058 1.4192751230987253
Be 6.457202498503737 5.146718050789957 2.7959771737315395
Be 5.078432659994216 0.1255364328766265 2.798586425971614
Be 5.231733746765639 0.1145442365779901 4.891004256619663
Be 5.034480131385311 6.969459379487826 5.545521382970013
Be 3.2175946087886222 0.10780816458677035 3.662101279202484
Be 3.444788799362223 6.948708789979619 2.8888023336591466
Be 1.8385191373293832 5.795619243729241 3.666662332572319
Be 5.927822004026481 4.044838142554196 0.9872421798594417
Be 3.371224569632876 0.15742447556969763 5.754014497233798
Be 5.732493823347338 3.622702223180672 4.579881379429405
Be 4.606084868854127 3.567566562532426 2.630241206191942
Be 5.560479110157229 6.962787176670473 3.417582995683138
Be 0.5341143741520921 2.5759166179836117 4.003466782167463
