43
Energy = -125.58139536 eV
Be 8.629232818891799 4.415661566221644 6.97184523836632
Be 7.69489281247547 2.619279821495241 6.994911045814282
Be 8.555591245048305 3.3774711162588 5.030199415406288
Be 8.50665709865609 5.587247236515344 5.204481826642582
Be 8.335027940848969 4.628568041228668 3.3198975114819325
Be 6.829488763023689 4.1591560503220135 8.099106135199076
Be 5.865969198159085 5.9221199928411 8.579707147856267
Be 6.601693106441385 2.0249943700340274 5.356673014423867
Be 7.279835117905301 6.019468062976885 7.040192721190405
Be 6.787904165217938 4.227913909178736 5.831955992563735
Be 5.569265184418958 2.7243155741348875 7.160412946385241
Be 4.587648966136796 4.153068483823796 8.54404244719844
Be 6.95281649807151 3.166156731054984 3.743148161745046
Be 7.9551877721185456 6.8007741585684975 3.544625950334358
Be 6.597259960095564 5.352282931557014 4.0067883246194445
Be 7.4224266596808235 7.483091890079128 5.499054513839777
Be 5.815521562260525 7.593597994160414 7.318275431862796
Be 5.0563778979341665 4.91467956899062 6.803173648099956
Be 3.5810100567471275 3.180876620172512 6.6445829047198135
Be 3.9815941008118396 6.485109983741655 7.944496128586155
Be 4.889045600541201 4.045377398821655 4.751338364846612
Be 4.59412232213835 1.7569217405422075 5.538359232352797
Be 5.634668188706131 8.642347856863879 5.517969320333971
Be 6.120911234263972 7.6847424735725 3.7001648186109803
Be 5.6845545724090965 4.1668462974878 2.4433001197913726
Be 6.172515647148219 6.21129724673301 2.16875470853338
Be 2.864810187075435 4.874430754881988 7.502433006069539
Be 3.5391594611439747 5.808173036644396 5.4890793249512155
Be 3.8593388869985787 7.881236196662324 6.398933564647379
Be 5.12002596126334 2.1913685061462864 3.6176427388624024
Be 5.577074662517442 6.49650524217222 5.512104373680138
Be 4.622089826745944 5.928076057856714 3.6776926940153136
Be 2.016425686118225 6.611905271310843 6.715740735157483
Be 3.825834761072029 3.414166594289495 2.64012037523718
Be 3.1061572173019387 2.8224487296722938 4.531713791892987
Be 2.064493641014181 4.284479541760417 5.684263369626363
Be 4.521756978556748 7.4954730791876845 2.300792551053748
Be 2.6677103118186567 4.772891835880757 3.613337027484623
Be 4.135813735526531 8.007193399701215 4.280351931964958
Be 3.9976792366928455 5.409240069558538 1.8339335016338159
Be 1.407838405362283 6.084206663666052 4.719689982935452
Be 2.238720287616349 7.880259268258835 5.005905290227266
Be 2.7039641264570737 6.811308022815763 3.192945799458084
