44
Energy = -125.34651793 eV
Be 7.65244659048168 9.15833932551198 7.65244659048168
Be 7.65244659048168 12.076753320000002 7.65244659048168
Be 9.351140235024104 9.351140235024104 9.351140235024104
Be 7.65244659048168 10.69031221327904 9.200194203943399
Be 7.65244659048168 7.65244659048168 9.15833932551198
Be 7.65244659048168 6.146553855451376 7.65244659048168
Be 7.65244659048168 7.65244659048168 6.146553855451376
Be 9.15833932551198 7.65244659048168 7.65244659048168
Be 6.146553855451376 7.65244659048168 7.65244659048168
Be 7.65244659048168 7.65244659048168 12.076753320000002
Be 7.65244659048168 3.22813986096336 7.65244659048168
Be 7.65244659048168 7.65244659048168 3.22813986096336
Be 12.076753320000002 7.65244659048168 7.65244659048168
Be 3.22813986096336 7.65244659048168 7.65244659048168
Be 9.351140235024104 5.953752945939258 9.351140235024104
Be 9.351140235024104 5.953752945939258 5.953752945939258
Be 9.351140235024104 9.351140235024104 5.953752945939258
Be 5.953752945939258 9.351140235024104 5.953752945939258
Be 5.953752945939258 9.351140235024104 9.351140235024104
Be 5.953752945939258 5.953752945939258 9.351140235024104
Be 5.953752945939258 5.953752945939258 5.953752945939258
Be 7.65244659048168 6.104698977019962 10.69031221327904
Be 7.65244659048168 4.614580967684321 6.104698977019962
Be 7.65244659048168 9.200194203943399 4.614580967684321
Be 9.200194203943399 7.65244659048168 10.69031221327904
Be 10.69031221327904 7.65244659048168 6.104698977019962
Be 6.104698977019962 7.65244659048168 4.614580967684321
Be 4.614580967684321 7.65244659048168 9.200194203943399
Be 9.200194203943399 4.614580967684321 7.65244659048168
Be 10.69031221327904 9.200194203943399 7.65244659048168
Be 6.104698977019962 10.69031221327904 7.65244659048168
Be 4.614580967684321 6.104698977019962 7.65244659048168
Be 9.200194203943399 7.65244659048168 4.614580967684321
Be 10.69031221327904 7.65244659048168 9.200194203943399
Be 6.104698977019962 7.65244659048168 10.69031221327904
Be 4.614580967684321 7.65244659048168 6.104698977019962
Be 9.200194203943399 10.69031221327904 7.65244659048168
Be 10.69031221327904 6.104698977019962 7.65244659048168
Be 6.104698977019962 4.614580967684321 7.65244659048168
Be 4.614580967684321 9.200194203943399 7.65244659048168
Be 7.65244659048168 9.200194203943399 10.69031221327904
Be 7.65244659048168 10.69031221327904 6.104698977019962
Be 7.65244659048168 6.104698977019962 4.614580967684321
Be 7.65244659048168 4.614580967684321 9.200194203943399
