40
Energy = -115.94053633 eV
Be 5.121752387958084 6.477716457976039 8.525451499876446
Be 3.0508261247408752 6.075188437336125 7.973241870145282
Be 4.084967629448964 7.888355390872494 7.225800176455164
Be 6.313805907285621 4.739971304689575 8.970071385825145
Be 7.249623042733959 6.493398923196259 8.540908517862036
Be 4.4827287438664385 4.498219407177826 8.110489690563648
Be 6.177646054271614 7.85385463358287 7.332706877353279
Be 2.343071281409306 6.13830590341322 5.872579845225423
Be 4.36424043466089 5.942258340055459 6.461254314207072
Be 6.128703778820708 3.253515061844397 7.538927301902192
Be 2.8498417703205905 4.249324424519287 6.790992664980319
Be 7.9978742308750395 4.591671412479297 7.641655588599016
Be 5.228629988789858 8.922001279816813 5.557126193898357
Be 7.309829247058854 8.595688436123814 5.805782266683853
Be 6.362557691195223 5.370950466770645 6.729637362720871
Be 3.6098564698192788 7.635406559758315 5.229581379323492
Be 7.983826055344375 6.829173514196235 6.653349640801813
Be 4.16632815347273 2.638047291493657 7.348378148217809
Be 5.873422482029597 6.9464787668825085 5.301416532250531
Be 5.017752485698515 4.070290081960368 5.734887892868695
Be 3.252504268557754 2.5845858577177396 5.535296773107343
Be 2.6690626215704785 4.441233565189587 4.69689181576232
Be 4.533490036840547 5.659789867444421 4.329070574547395
Be 6.5681891432631 8.47884097170144 3.889087813471955
Be 2.7334041091394154 6.501927906069494 3.667848162469095
Be 4.649185285359982 7.844865698633859 3.562756861003615
Be 7.8909610826285 6.983447594998176 4.572783039193199
Be 8.488426353057775 5.1206776544170145 5.5941457544295465
Be 3.264365862328504 4.667625736746396 2.756533733198781
Be 7.2653837276202315 3.385721931433239 5.8537432864715395
Be 5.410886321326452 2.0739012741119733 5.70040621196025
Be 4.260667308964533 3.223043113604728 3.866734394340568
Be 6.391500895070571 6.4919128400530814 3.004226479392159
Be 6.613846923675987 5.0719539213369815 4.531903756615645
Be 4.354895901798068 6.329147837476049 2.2219005218025463
Be 5.370479168494875 4.54482644795223 2.6964217163480404
Be 8.627933915408288 5.486801279111161 3.4409520558419238
Be 8.392822915058836 3.561941032677058 4.122873440181305
Be 6.319767529171013 3.0141340600291393 3.9753892290766415
Be 7.352162245559165 4.244933224180647 2.4911430274489246
