48
Energy = -140.06252533 eV
Be 6.158756299312322 9.069411699924812 3.165006973434862
Be 7.230467023833682 7.380354188214165 3.416576186246271
Be 6.55468587464949 5.531059316864991 2.7835888348018925
Be 4.696569516315866 5.01024110084236 3.321153106777239
Be 7.996688937926879 5.631799521681922 4.291893143191851
Be 5.158927737588774 7.067372409430446 3.1218058581997536
Be 6.109047491301912 10.197977599378001 4.9468601118076645
Be 6.490494690235007 4.015702432073332 4.271356678297735
Be 7.87732630197731 9.258252705684408 4.330244151795289
Be 9.20564442784271 7.568168261612565 4.257718786463042
Be 3.9274928334601125 6.219003294211041 4.766408041539147
Be 7.192676215627319 5.767224789793492 6.659367469768027
Be 4.8351206091015 5.545142434249417 6.642334380352875
Be 5.977672882125809 6.101053664395435 4.935974600023
Be 7.558295516165707 7.462575611945938 5.521513073848493
Be 5.080778053752655 9.403690420223105 6.645769203412944
Be 5.305843982358867 8.181575562705335 4.94387335568411
Be 9.198703762155604 8.955742457163854 5.977981355276083
Be 7.221700226395217 9.360726139145378 6.454175459046518
Be 6.099120416046312 3.7841125621003626 6.320359247895076
Be 10.7059086754242 7.630826288509553 5.714211210759756
Be 4.487888011141607 4.176483333043353 5.110607048968595
Be 9.412797215909265 5.931388998919735 5.746296494131011
Be 8.127527939493197 4.144168747778763 5.828308676466797
Be 9.041798507972327 5.131856191702502 7.679618263307219
Be 7.289197466335584 3.9921015886457765 7.972181854905415
Be 10.32996004173927 8.310936821926893 7.717274613467765
Be 3.974443970034044 7.5074562094572945 6.510397084772894
Be 8.65180300781221 9.637097106979054 8.071313845364106
Be 8.141476154346268 7.4104629513957025 7.7811745613252565
Be 6.375681090889975 9.644319482713458 8.307124156837107
Be 6.056225605261269 7.53287668723085 7.053293737839087
Be 10.730418282384113 6.324055104272668 7.3181653234743544
Be 3.854383107893951 6.2470125455386665 8.347181561709005
Be 5.02057667219934 4.051658575021972 8.135380622186785
Be 9.521380252264231 8.552573434873205 9.598027012374223
Be 4.532725616126852 8.35079837981817 8.394377855969992
Be 6.31001760724882 4.058957486397126 9.820642490539356
Be 6.0574909747860755 5.9127716217717525 8.465204585358402
Be 9.79948549759733 6.575935738358858 9.133242354943215
Be 5.410858680873914 9.194223909328619 10.078931440399264
Be 7.654760562034207 9.329078389876145 9.91324281277654
Be 4.588498439928109 5.111251247940513 9.948307154230962
Be 8.217740956444466 7.2049186878363045 10.41419082571451
Be 4.575467654091611 7.139556119005496 10.103784912659124
Be 6.466373609144412 7.684218912966372 9.43836878681171
Be 8.025314568452401 5.314225901808103 9.54547924539668
Be 6.361165063261411 5.984981394505615 10.677089478711391
