40
Energy = -114.99599446 eV
Be 3.67533869518156 3.544576771777829 7.050418178700615
Be 4.841148495290415 5.198823052457193 7.970683267644799
Be 5.825712252683004 3.3096436244326948 7.6687036152281065
Be 2.9466949843973396 2.080181118819333 5.722451214628543
Be 3.3470425771249896 5.537966628523821 6.282258399735388
Be 6.651069425902328 4.838015756401447 8.942960860337044
Be 5.026116751147793 2.379211703915016 5.8332592024623215
Be 3.7378701292181735 2.087224819919905 3.7533053260050324
Be 1.893047955307194 4.039650140230552 5.753887818931448
Be 5.202562237251926 4.5641586257439375 5.945208674022872
Be 1.6493419215892413 2.637269108676326 4.216512290434034
Be 5.133198147579534 6.6742340342459485 6.402608621945822
Be 7.015416431681244 3.306110275636413 5.909164542661626
Be 1.5502332263966647 6.191616446059469 5.408595657175773
Be 6.343543367132039 6.771162778692316 8.256998300095916
Be 7.998709670930541 3.907186875242014 7.704822920502354
Be 8.402754983861524 6.152633666013634 7.623402035197602
Be 3.8049858994245738 3.783708796709258 4.737420327887941
Be 6.751046741048093 5.330037540261081 6.890855629993439
Be 4.504489125904554 4.112791238885748 2.648154383556756
Be 2.861176167318033 5.387117996092653 4.173786026348509
Be 5.806662861378976 3.4413805614626787 4.1303432609555815
Be 3.467797737258759 7.339061956765057 5.090990039602346
Be 1.0522009729636013 4.674894676421926 3.8274361385054574
Be 2.5464686947406614 3.6540194043550565 2.7706961920275774
Be 8.622372122489406 4.844651602626747 5.852772678270361
Be 2.0947447620056483 7.1403364982147695 3.546037843430851
Be 4.851831783730053 5.725012222461192 4.179139678801975
Be 7.1348515949056255 7.531945425689674 6.439364806587764
Be 7.86628505709285 3.9890119978533654 4.130089395856453
Be 6.757351408146413 5.839012853776138 4.944352863113918
Be 5.565483265431696 7.806761601372843 4.695522007483887
Be 8.898283121115425 6.828118150734986 5.615764309751789
Be 3.0437742905354703 5.707744186645479 2.199142842968821
Be 4.141932870983674 7.474521754575772 3.039512336235068
Be 6.557291320233436 4.933585826648578 2.797760158462637
Be 5.0369368640926435 5.989119503374189 1.7983896032764715
Be 8.352052431169758 6.0044851821141005 3.637125500327311
Be 7.641188403501036 7.840854153828949 4.405946314805399
Be 6.4310735980930565 6.995565351395865 2.9508571277019073
