47
Energy = -137.98181653 eV
Be 3.251356852535728 3.5377410461483154 2.6150484355010613
Be 7.483902125739765 5.759376862287005 4.9216785029578975
Be 5.3769356213961785 5.35231127554582 4.231549835193406
Be 3.3588508993146746 1.364605764793775 3.5621598003485295
Be 6.675688943194506 3.0866040807916266 1.5227144950196987
Be 2.1734763155951278 6.090767653064152 5.735936989946915
Be 6.789773888621906 6.555185516406119 3.00538459648394
Be 1.2539604118644267 2.3573510403432936 6.312561197680847
Be 5.508578801258919 1.795923697634824 5.564252052074684
Be 3.8722136954821087 0.23894420542521308 5.37873881756601
Be 5.237986320621643 4.181241584338471 2.410663440068949
Be 3.3114265502550673 7.110559097133579 1.6412539982325847
Be 6.024435871245872 5.854989284277489 6.3214656805595375
Be 7.146959192440147 5.163014845455244 1.4490569647720997
Be 6.177234933485317 7.350637723639927 4.887805901716383
Be 4.386969047143965 1.1058263805845936 7.268776658453412
Be 1.423303146431564 1.9729662303193511 2.6680686236517586
Be 2.8810846555685097 2.381982150008795 7.795220363710623
Be 4.293813557198106 3.1057032766323527 0.6875097234463179
Be 2.1754176028837864 2.9414598744100733 4.339723291602003
Be 4.238293421040976 4.9827272819910915 6.062293029290477
Be 3.0351834811163196 1.640321780119737 1.4840772197297207
Be 0.8101435429568019 4.302622607616232 5.30418669896894
Be 2.937625781812908 4.869502668511025 4.36954782848296
Be 2.4949935552057974 4.0421177122116125 6.460256041428615
Be 5.295673178801541 0.7380220556002534 3.8408640049653444
Be 4.1273405362078215 6.8157668814468515 5.111222825533179
Be 1.885472012759214 3.491797696449039 1.11800702902002
Be 6.319682014528722 3.8600590091747478 5.478978920766411
Be 3.9282214600886394 5.7098348108741215 2.812026619695724
Be 4.497736877557934 3.324272370592162 4.317498517527526
Be 5.605275732182337 4.614494967740438 0.25574218948572236
Be 2.412162567314913 0.5908526458325153 6.846142783314844
Be 1.9367381901083094 5.543689797848379 2.1152873813560973
Be 5.389769680984352 6.365460822442917 1.4425686757295022
Be 7.223104853980894 4.393111298823331 3.3794759624895034
Be 3.366245336874854 2.2146258357450472 5.738317363168319
Be 6.441561790249924 2.5084798294526327 3.6670102233958994
Be 3.6449908046571053 5.075479709359075 0.8533971351806201
Be 4.86113561174935 7.5039822045123445 3.2259611252220193
Be 0.25524391832371823 2.426881616104845 4.442115999098882
Be 0.967327325710161 5.895527627308251 3.93969516298291
Be 0.8539747058090082 3.996255045314283 3.0658517583284954
Be 4.95712467323405 2.014076273372245 2.256263955153591
Be 1.7700660035519873 0.8906078326187314 4.840140854379362
Be 4.77194466182646 3.2382503676391776 7.001099551466985
Be 2.6272877554634477 7.101675568433939 3.7100896812267057
