47
Energy = -136.77103856 eV
Be 2.1322591773136574 6.176000820230163 4.541774767710855
Be 4.853742086268432 9.329472916349625 5.267107964657964
Be 2.910066829353376 6.64681031003468 6.473739271292634
Be 5.219936211794374 6.87155616745433 7.9317455479316425
Be 2.823227834294632 7.347728105959969 2.9584049801026917
Be 3.050458575043158 8.112764185925363 4.998745879388859
Be 4.145637166060647 8.331323722225058 6.849022936413499
Be 4.165666532887757 8.872200405954475 3.372968011397371
Be 3.362567599113631 8.70692215605956 1.4851639446273113
Be 6.229231964233409 8.160331770824694 6.357436394144723
Be 2.0898334562113803 4.090566749528494 4.359014129473654
Be 5.815986301290038 4.949927086707617 8.337800277128816
Be 6.110271018392223 8.344084183463751 3.9678690494284403
Be 2.0341486776239384 4.664425336608309 6.307067214881017
Be 4.840794346318585 3.150414325209892 7.915761059861726
Be 5.05994644685129 6.474141676849445 5.952165317205222
Be 3.0407754941265495 5.179808191654114 2.813910641848501
Be 6.9763859256230685 5.984338230743134 6.995616950119621
Be 3.8607823013324865 5.063118970918848 7.483472317011657
Be 2.8047064898334395 3.1627443086443994 7.479059094569525
Be 3.824074650219429 5.077054284542906 5.196279993090443
Be 4.595114438091404 6.586614227683515 3.8928846893111784
Be 5.003323153339839 7.480050950881874 2.0972562599153504
Be 2.7038914789717303 2.3789645940943 3.4998005509052468
Be 4.000006205525423 3.034709290943995 5.630777992324799
Be 5.57161464122442 4.430972610593529 6.270456689792165
Be 4.013053389108957 3.2665709803591723 1.8860153245391424
Be 1.9640202278064294 2.4793960091583553 5.660947110734267
Be 5.15997447644492 5.156416446557676 2.1822214198562806
Be 7.07531871205589 6.747947151467871 5.002008581095805
Be 6.685845075207961 6.597376708093545 2.902004851313099
Be 6.0646024378906125 4.9795746983220575 4.206806130971996
Be 4.302759280526196 3.7928458852585902 3.7112164130441645
Be 5.932001944252434 2.959849963266963 4.811408346263666
Be 3.9140271571062795 1.4023673817541176 6.8950069072269216
Be 7.710946419655291 4.489148924373621 5.57646768751626
Be 7.11787361192537 3.5683973774013076 7.394010694344734
Be 6.028536724162947 1.8625875605908893 6.891554391134347
Be 3.315358301160625 1.0302854587700199 4.883727415857613
Be 4.686588184391328 1.6662773598600398 3.3191552562811277
Be 7.681644183447235 2.3174984989604797 5.680918314035499
Be 6.043494795924064 3.1034025521944923 2.5428469586171523
Be 7.260433427057734 4.734281160685276 2.215004640466061
Be 8.20489758678045 5.466443390605784 3.8087139994366703
Be 7.8372150492620065 3.3798643024647506 3.7489394402993437
Be 6.815773415763291 1.5111996510020416 3.7552768976956417
Be 5.309142038556048 0.9483154148401745 5.220902045053196
