46
Energy = -131.97937844 eV
Be 12.361537363867422 7.81328414596421 10.253812911509895
Be 14.888602403922727 12.431522867094753 11.577055203357705
Be 14.051092111239681 12.866498373598024 9.586748116342573
Be 8.061998335352735 14.802467355843865 9.755598111051619
Be 15.144094036668749 11.01652533023445 13.983442029878315
Be 10.56597033311304 8.742381192393388 9.899019124970723
Be 9.983730588120865 13.407824380257782 12.523707855342572
Be 12.12866253233158 13.700089776632726 13.026996208524062
Be 8.645808918790369 13.686867537506453 8.163723500689919
Be 11.338666447984433 14.5579980096866 11.289240831262338
Be 12.600300435686272 11.453530848093239 8.991577059608465
Be 12.197580192923715 8.659045382353437 14.027371773086742
Be 13.283121395229802 13.854777624376261 11.170015706553741
Be 12.176205644496411 9.36322849019846 8.770897378426703
Be 10.037006446973303 12.331247186430192 10.447321077601362
Be 9.326685030573035 14.946126354171094 11.370480259665296
Be 12.606299153151172 11.874089317852423 11.308826028232087
Be 14.456885152497328 10.949032651691665 9.938617907534466
Be 8.130239199817733 13.251432902181042 11.326402792805327
Be 13.549009130770623 12.10587726557388 13.169186945740119
Be 11.379517001130209 10.47366776353492 14.823078940366585
Be 13.364852087940614 10.358367410953813 15.053607227140791
Be 12.493868897915435 10.240452519024442 12.728725715907416
Be 14.296008250407473 14.27502826999245 12.782744458785077
Be 9.059617577011501 10.204814967936159 10.092365842862046
Be 11.125722252840971 11.746058662672867 13.053674187546138
Be 10.526116489853877 12.68104093300431 8.28822856761269
Be 10.443449024071645 9.68148041082218 13.249525898142009
Be 14.506480681581902 10.334097757461958 12.009623968103861
Be 7.589093443675033 11.443437919102998 10.520714263683804
Be 7.147964391216966 13.030500748979332 9.331829217774851
Be 11.39500347046659 8.358327391214624 11.980426874927508
Be 9.375517906292544 9.012330188645798 11.664615679687483
Be 9.118047125884965 11.201202727571303 12.13801915318036
Be 10.620252249309102 10.718740747344171 8.949874924720078
Be 10.959777346575356 10.44602693093882 11.23515294806825
Be 15.376479388268658 13.119717197594474 14.062555907366141
Be 12.284645359355196 12.398077910938126 14.857413683220491
Be 11.983276302975598 13.400992074413667 9.644569547428409
Be 13.426174584789013 8.340407896652081 12.112308398272193
Be 10.146684214676695 14.437975065566006 9.531183251828795
Be 12.905962719258817 9.783378813560157 10.664834579067621
Be 14.267953540972256 12.188065066661318 15.499340215593392
Be 8.645389399681305 11.634533841062186 8.649751864324246
Be 13.645426288747792 13.95547857333983 14.701532678776339
Be 14.27565898091643 9.15120437882701 13.74378766227295
