48
Energy = -140.18204215 eV
Be 7.273528419274634 5.002868624443248 2.907105319446282
Be 3.4448866668430793 4.491949179257001 1.4028883775394256
Be 5.40431992770481 4.714679608659393 1.9382079209142382
Be 7.102824041511993 1.8252426606423284 4.714333587511538
Be 6.18935572344717 3.212017511270912 3.2474519940648214
Be 7.86243722174935 3.738127917326752 4.466767956781694
Be 2.1857106827894683 3.9620043864111736 3.010161036427554
Be 5.593860488287831 6.4999026239835915 3.012198479950341
Be 1.9095269828641452 5.726475102662505 1.8482716011601756
Be 4.203708289255432 3.005076938795333 2.5873655660657033
Be 1.109426369333413 5.61448841688605 3.7026379113576295
Be 8.726357507623703 5.656054170059282 4.299634742125717
Be 5.041995336581207 1.8549885785127183 4.450751079631863
Be 3.9596431407583594 5.109367182917916 3.594315634986154
Be 7.888370209013345 4.7945309219085255 6.184417480102312
Be 3.889511679529063 6.493078655411348 1.8482818893816095
Be 3.4577028147879356 3.1270508688884497 4.4968944234512565
Be 2.4909729103724705 7.140950097992175 3.2797857313447722
Be 7.5741134784369955 7.0077609103945875 3.3249801303525404
Be 4.305768546037328 2.587024643000131 6.304249909132241
Be 6.079215259398349 1.4821368054111814 6.366306372834312
Be 7.809110305011923 2.707832124983456 6.548410749218847
Be 2.367605677623252 4.842997321003838 5.130609568931437
Be 6.092329817875389 3.6082924033479222 5.605854167941669
Be 9.040345526947522 4.804448449953058 7.892523705921495
Be 6.277474924465605 5.605628393824787 4.860505696860665
Be 4.309962527464698 4.662081308547679 5.746413222368157
Be 9.494631428862288 6.108560050144225 6.226948881349085
Be 2.757898473462422 8.64785545196298 4.752406306462336
Be 5.677766288046297 3.047512175831345 7.7373806657989075
Be 4.3638982608511245 8.13401839847097 3.4100779025463352
Be 7.479446104096588 3.6657710670493264 8.414972465779517
Be 6.1469529496679876 7.8475904656488735 4.545597188663344
Be 1.78348317629026 6.854331034422568 5.302139171294081
Be 4.180130889216086 6.6622999396117235 5.055976985421175
Be 8.106974168470773 7.377854974165978 5.381723772767563
Be 3.9356360149802896 4.173439367023827 7.786884250512473
Be 7.605458338005086 5.516157673701449 9.244173998435198
Be 5.645923103890341 4.661551774807538 9.136712448721482
Be 8.043644238880287 6.690531792768043 7.533306994511949
Be 4.632080751505862 8.747130885175055 5.655895074173416
Be 2.8652145869335386 8.035720797019154 6.660583124677654
Be 5.907461957282819 5.35091342063444 7.020243738296144
Be 6.124811511412592 6.804339112456203 8.597705379497476
Be 4.151404631621864 6.007379121715168 8.637256023331828
Be 6.514664463835777 7.742721924393191 6.617859285989194
Be 2.9270725147484513 5.961841637692364 6.937454948762088
Be 4.639055056197808 7.259096512057258 7.147050520450642
