49
Energy = -143.99029424 eV
Be 8.241693066089514 2.2458510718169427 3.5540458555338623
Be 5.023211579260554 1.0928394632590521 1.9548587627608862
Be 2.897169737809872 6.335518643163524 1.3775369533256414
Be 6.44643186466108 4.9928237574096554 4.879586989436918
Be 6.730347373961995 4.529684502619643 1.3994694338749671
Be 1.6827521892751638 0.6352568435763727 4.404439654987069
Be 3.5294777846571868 6.536840297133826 6.446105998492852
Be 0.2224000791288903 3.8229881253528823 3.241831002205749
Be 8.158522401747192 3.595903081719303 5.179809330789976
Be 4.346272233495347 2.8948307687990558 6.841501634501062
Be 2.3469248758854997 3.0069646050587604 3.8895472672003018
Be 3.328611394281214 4.742445144318559 7.444632821925293
Be 7.653034046153746 4.276351307411433 3.2323716654765624
Be 6.367122063580436 3.263557523633844 6.3327956439057544
Be 1.168775323083453 1.7534241807500612 2.5722026208132345
Be 2.5054446361499862 3.537516774440224 6.043372956468948
Be 4.504777237201219 0.28059157773963994 4.103631807100862
Be 0.17810390862480135 2.06537890212217 4.410096227264693
Be 5.4159361091835345 6.750205059652311 5.518235830866602
Be 0.6042902846024073 3.9327631408081527 5.316949071273602
Be 4.934625329493829 3.3184496753318244 1.208703897576363
Be 2.1883765834884015 7.141723340656558 3.3206527433490574
Be 3.0155093666819455 0.9035905597247531 2.933340901777386
Be 1.4770641749527278 3.543096214835657 1.6137625470141106
Be 6.394074079976219 6.100406426771502 2.9760050295872857
Be 3.108879782968344 2.362532771433636 1.519826974165877
Be 6.312055925582219 2.9874904279006507 4.271855240963654
Be 3.335850788521471 1.594480557451975 5.324343017407708
Be 4.337005504478058 3.856711543575321 4.836358869644692
Be 5.487264171766042 4.2473058710583755 3.0199397961674954
Be 5.397421390063217 1.5739578081437304 5.489066289129863
Be 0.5714785683040519 5.8567967293653425 4.501577608822835
Be 4.857936922330951 5.594187240512416 1.4868641186222826
Be 6.43404980994786 0.9894822034663592 3.6354579375072755
Be 3.4356748598439366 4.420485169570477 2.685238959175563
Be 4.554755625588179 5.840987881211184 3.935604859685405
Be 5.174116808773421 4.98539196162679 6.643210727988163
Be 7.5145536209624035 1.6298290206767883 5.392096494576209
Be 2.601460738449117 5.208093063132269 4.593537541424899
Be 1.318435643453858 5.306049902396452 0.6254450279338851
Be 3.2036889028409083 4.384921971537745 0.5412564726088975
Be 4.23018118446662 7.31886177880702 2.596707469530414
Be 4.513021568756728 2.4012579234539184 3.358750921953572
Be 3.655077753087279 7.634438768406803 4.6808542506896265
Be 6.624648630422318 2.55250674823562 2.199044175583605
Be 1.7955659355953606 7.270927890700486 5.4328828088251235
Be 1.3150099606180528 1.876538695984094 6.0285895314743545
Be 1.3666227929200654 5.40463964496718 2.63469581979373
Be 1.5784327348488523 5.487260786294607 6.455445786831929
