41
Energy = -116.87672749 eV
Be 8.678663111064626 5.742576255966837 3.9665996458359745
Be 9.27522333933153 6.506378018341669 5.790871602883655
Be 8.795185658914335 5.6415031163654 7.558577768510959
Be 8.03644254331958 3.8671505649241653 7.173246249492533
Be 9.098360640714287 4.411869089974006 5.532376520984328
Be 7.779400127398579 3.9621037327416904 3.8667698440605567
Be 6.615956800985739 5.699231860531211 3.467564279758626
Be 7.504465270524987 7.202481007482814 4.793267574389474
Be 6.355695579642354 8.74037446510478 5.254169648921092
Be 4.951876455509629 7.033573534196558 4.266605112659674
Be 7.060534770368074 3.065248507511332 5.603273853288222
Be 6.564032701702522 8.072949859366005 3.1500476516039297
Be 7.42447564345786 4.111519968983768 9.0390485358597
Be 7.036195067388528 5.296135947044216 5.747615968435809
Be 6.788943789048799 5.8797660636136415 7.989466412395577
Be 5.734756465656458 3.7142437836235755 4.056353910479347
Be 7.732865105772175 7.407165650764193 6.8379333021402875
Be 5.779139466376093 4.1292786823932 7.181123106915184
Be 4.812129601361008 5.1429329270428354 5.4644330235143
Be 4.5908824016375185 5.178149849078587 3.0638631327466075
Be 5.495074521461284 6.743870423245128 1.9918302336743112
Be 2.7741454077314005 5.260568693785397 7.559451458892459
Be 5.737817819658559 2.931506549976867 9.365143047344773
Be 5.573655613729121 4.9226274399114835 9.465443527535228
Be 4.860221978464634 9.329287982584924 3.9173183379512864
Be 3.0080576882628884 5.867305156822147 4.099876287984541
Be 4.7212960576838405 2.2188997757978113 7.736707467897133
Be 5.750527870929369 6.99956199068941 6.378092053818459
Be 4.970975683671905 8.673005070851332 1.9442521623360567
Be 3.5380550663665904 3.800239137471195 4.420003379039533
Be 3.4193511964263177 6.7389259162005555 6.085555482712331
Be 6.819399724417449 2.3047014793151974 7.732378778037207
Be 4.955061341891227 2.680832609080617 5.6818711894452365
Be 2.2735577324380998 4.926375274642048 5.660283702080711
Be 4.371176780348393 8.601563777681507 5.803605525155517
Be 4.62985949930851 6.026643103976853 7.866533052094084
Be 3.5105616536243414 7.110924657380935 2.509417939606355
Be 3.9918232418711135 3.9833796708337164 8.616284419385805
Be 2.937517826969162 7.945581363337286 4.409125273802695
Be 3.18878004868797 9.142512284638476 2.730333286931427
Be 3.2920988516559895 3.4212949024982953 6.657526395171372
