48
Energy = -141.68405675 eV
Be 3.4346847286036626 3.3103101592730715 7.917074647007961
Be 7.02888047347297 5.917079632264268 1.7779084857669114
Be 5.168791860507692 2.9379544195508585 1.0300919406916798
Be 3.396993782708192 1.7577865363525236 1.395927198318959
Be 4.813703413535459 5.034055616817426 0.5911763321522149
Be 6.806421886737069 4.076383191094707 1.1351964378546644
Be 1.6282347901539567 3.021607545445557 1.2211639929144764
Be 1.651320434218852 0.9830624076947568 2.2803203761234445
Be 2.4343366629312353 4.992271360555873 0.5361809085421594
Be 5.368831036961786 1.183679649760697 2.027790349973444
Be 0.13649975204579048 1.2126115884792734 3.652618945987974
Be 3.5021420853602305 3.864227264998152 1.830855597399924
Be 6.558479182639772 2.7671032558682898 2.8076136422793847
Be 5.242966448555225 6.797946633434837 1.9451819078875867
Be 6.443226415519008 6.690331392163473 3.620377398995799
Be 3.615089731559494 0.6750465660702619 3.2725299350854455
Be 4.226005066563923 7.60199450379995 3.6898597475549217
Be 5.282614456786551 4.631227936411389 2.6221280979903274
Be 1.6784043336885064 4.741664362962439 2.5411974661060626
Be 7.232656160089992 4.672369900551624 3.5094342630811286
Be 0.3148197108779982 3.157220419521163 3.0879960982983343
Be 4.4249082496728835 2.6279402901366873 3.181154847778617
Be 3.452736454290133 5.941051522187754 2.2477585192525273
Be 2.324686989967336 2.7069587281429057 3.2270948350646744
Be 1.955211231513184 0.7125496371611516 4.4910073065857254
Be 0.7621386528099229 2.452706915192169 5.132305428354183
Be 5.54276151638907 2.019686447351935 6.068114573657569
Be 5.730943098987316 1.3410055088548434 4.204234963022725
Be 3.4171571207785414 4.360731212022524 3.75926975897439
Be 7.070734215143632 2.9660337809576003 4.8654144682781135
Be 5.533048842919537 7.340831309364427 5.4290712175200895
Be 4.6718480958309385 5.798114168684933 4.307652220519376
Be 2.463432457656476 6.233228587573694 4.125566220444215
Be 1.7370153118490002 5.794383335840839 6.100969855334498
Be 1.5123607404400623 4.2996378981417545 4.646137046785864
Be 5.256289345860406 3.795794602974626 4.679448000803368
Be 6.504188881900544 5.430204272174465 5.457809025382912
Be 3.241365920416339 2.763086704197596 5.0585037792042336
Be 3.954301501875276 0.8105426521705391 5.406033221674994
Be 3.5024303420169662 7.099723183567408 5.723271908521266
Be 3.585413541470859 4.782107157336328 5.784351957726659
Be 1.9914345473723716 3.6767223311200836 6.725599683983684
Be 5.008237466916021 6.049992895800231 6.969078955071947
Be 5.493884474658792 3.9824696081939934 6.833744462754746
Be 3.039135384212823 6.262087724665912 7.574063345490576
Be 2.1124074241663506 1.5525531883391148 6.384768885709717
Be 3.837005590144704 2.5692443320221514 7.060197390832165
Be 3.7238187969124166 4.418676272444582 7.917074647007961
