49
Energy = -144.22485601 eV
Be 5.756842584927404 4.608673914385803 3.5536525038840434
Be 10.009872578096273 9.406474492227993 4.307190854966983
Be 7.237576653856986 6.048977581684962 3.5853417267235983
Be 6.797391548281363 7.769568389227055 4.623617347374123
Be 9.283104601232838 11.055043422271364 5.287334743683408
Be 5.093048207229971 6.504551281127346 3.9828265795776403
Be 8.775788092063923 7.814707118302484 3.8885252770273557
Be 4.928332334249213 8.014511630933203 5.579336129677148
Be 7.5146328370192705 4.299172402672324 4.820105078664212
Be 8.74371310065325 6.122319066320164 5.027743128090628
Be 7.912097430690063 9.70424787753972 4.415202584869865
Be 9.745265739401454 6.445228054325811 6.851235415930783
Be 6.5576241246002525 9.37905345894486 6.021288960485981
Be 4.2001559388958745 4.480412091242955 4.96094332914489
Be 3.7150285094978712 6.384304593303106 5.571006752723924
Be 10.38768797690045 9.565554675900614 6.354787805509898
Be 5.802916403319801 3.1559100665135276 4.971615522133745
Be 6.599115243222257 3.671456007147592 6.8196366431849595
Be 8.491144239342109 8.293192187004644 6.205832341664104
Be 6.566433468328372 7.4417647458917795 6.795419943866847
Be 10.416437270520026 7.62906022112754 5.277956384278041
Be 4.047945581898607 5.051749956734265 7.147487414239283
Be 5.999092866971966 5.634717095984097 5.755485158303621
Be 4.580279133024465 3.2007586907182755 6.618286999364515
Be 5.2934282487957205 3.9289833882404483 8.533204516748809
Be 6.435790982494121 10.711283871408803 7.645829004876744
Be 7.424295592416722 8.88563788055742 8.030145853766035
Be 7.270437080656336 11.265397258154007 5.777169947730229
Be 8.53587871734919 10.41464483917637 7.129566794055384
Be 8.091984192064839 6.8810856067852795 8.082262363650647
Be 6.186082998765744 5.630686619484108 7.827080464649981
Be 9.415712301864287 5.1070807638877955 8.391142698950484
Be 7.569893554681643 4.227924454473746 8.713191651435787
Be 4.450093322695207 7.081032814951817 7.459897810169968
Be 4.412605692528156 5.865228158822917 9.156978863301312
Be 5.200034253325963 8.998948031766222 7.639756446685415
Be 6.2157763189589055 7.361850930904234 8.98479742715486
Be 11.08014884098411 7.842547915562437 7.362697213595921
Be 9.503833177357896 8.812712881408192 8.183204507368567
Be 9.974553562636611 6.987543769495762 9.040709145279603
Be 8.075610322318452 5.119810626762445 6.742457112614339
Be 4.352175054403322 8.078755220038984 9.51112413070191
Be 6.293483166522256 5.293662597830964 9.966170356338104
Be 8.393876085327987 5.834841979701159 10.019431211956014
Be 6.021746321728187 9.521594811933186 9.430303362482162
Be 4.981064605545781 6.655721235927627 10.961756913530172
Be 8.078006983283625 8.07180419715448 9.95967157848745
Be 5.973997692100941 8.408605152668972 11.111948855408306
Be 7.018079185974307 6.741320690375485 11.327757862696226
