46
Energy = -135.28262792 eV
Be 8.169481238624286 8.744711518660191 10.726403268241981
Be 7.900791637307039 3.635524560299311 6.471237355945322
Be 6.9807217299904725 11.257991934351567 6.503908294254616
Be 8.741594274442638 6.721715994962536 10.722820213359482
Be 6.596208321154057 8.698148471763291 4.168579954846715
Be 10.471771952386325 9.285063729816125 7.8961717238220634
Be 9.28275254097507 4.408443970253739 7.881889897876689
Be 9.853892973535597 6.995047433467914 5.266631935526001
Be 6.770208315242213 9.808504166616896 9.628982680516895
Be 11.248961318080921 7.906664229250667 6.476831419615108
Be 7.438449133413767 7.448479880801008 5.83231648841666
Be 6.03033056228842 5.014116254548279 9.070084128564558
Be 5.893388560576573 4.255383204687684 6.976700766996579
Be 9.07497497089371 5.169333659455129 5.793176958699963
Be 9.854925972625782 6.024996126603891 9.071903644660727
Be 5.04131291900779 8.846180654589665 9.093625113297772
Be 4.258366325370735 8.995531517600517 7.003603093931502
Be 8.273914354019137 6.213672387398202 4.155294249712188
Be 5.083932109497241 6.752684155810923 9.615201408746307
Be 4.415006950518714 5.596292819515425 7.895566148723658
Be 9.709431689206594 9.081125218266656 5.799151203583513
Be 7.54773748973924 11.277189105111058 8.41323665318841
Be 8.862075737208244 9.858332520284014 9.084898217924803
Be 5.60580915455658 10.474469371292736 7.915459597050561
Be 6.983413030797712 5.0246000345376105 5.259626625126489
Be 7.3599377267553745 9.081958011624954 7.452057137917546
Be 3.628750587794216 6.98654853846464 6.4896208937135285
Be 6.729311433028853 6.112635354949524 10.72017169341056
Be 7.342143252522437 3.6016009284177337 8.381967347008851
Be 8.989597928940183 10.632617253662506 6.995992419322715
Be 6.158922991251108 8.137864576148718 10.73507146826812
Be 5.802967264636413 9.731103227455032 5.818007467539275
Be 7.890835543266288 9.876451268749253 5.2777873336484165
Be 3.6082607164469427 7.5428657202938325 8.412191384057499
Be 5.802297134534345 7.359491636479794 7.448286220592202
Be 8.12389158586379 5.060381452451759 9.605706274199424
Be 8.655154586269584 8.281551746873252 4.158760855665824
Be 5.171239841935969 5.817776281507758 5.798937044435741
Be 11.279268617311162 7.33586854640111 8.393516128101776
Be 9.810116362020214 8.11483100588465 9.608116463694323
Be 7.447304043091092 7.4342922408493335 9.051903069144277
Be 5.02183928471862 7.9082021130575235 5.28043567176307
Be 7.520891298262733 5.800785132044318 7.434824497981661
Be 6.214888754066022 6.629947430638021 4.154954792610509
Be 10.625787387770988 5.8926716439147295 6.9768828575287
Be 9.081152163081782 7.521170236202373 7.436828710549863
