44
Energy = -127.04258282 eV
Be 7.331704068642669 3.5445965506641453 5.664810618296308
Be 5.752342794683573 2.22063388706542 5.292625863793552
Be 7.030652471710444 2.8686782201855707 3.783456242511233
Be 5.056142268288932 2.6420996053523353 3.2622578132587177
Be 6.776547039356743 5.646113054953458 5.871387753276868
Be 7.847154768361639 4.789436451065837 3.8698391572416475
Be 4.441039351413969 2.1294525718963087 6.862253476517762
Be 8.804126546153809 5.045277054936747 5.707771960509028
Be 6.494166487518649 4.140142598890707 2.293613007822316
Be 4.6772363520549645 3.680457044308916 1.5104035601129224
Be 4.620068285402026 3.5511605692955426 8.356277622269612
Be 6.374791033676299 2.8583499072691385 7.42388832851312
Be 7.772721208682601 4.498114386457807 7.502960469155219
Be 3.74741352067703 2.8145375285868073 4.909892242421046
Be 4.992032894183927 4.162620805052053 6.225908389686215
Be 6.8610795693675835 6.161704748298076 2.6009646276667353
Be 8.30500676498971 6.775242181237826 4.556202775385868
Be 3.572855724356414 4.2410850235160575 3.0787975258291587
Be 6.52019005484821 4.126025858805871 9.165283203947505
Be 4.928252794254514 5.61351252319761 2.0593061053681323
Be 5.462118137235804 4.819677762466478 4.226436125707564
Be 6.077416574119174 6.970811497619433 4.449383650846148
Be 3.898712259639514 6.356604684131201 3.6891023200889044
Be 3.252603073821936 4.845488236452526 5.098449650400594
Be 7.650918408331195 5.910319565868679 9.011824044952766
Be 2.971951181743746 3.5199052169423273 6.845615854504681
Be 7.344744197664084 8.123279042473769 3.0682197441913086
Be 4.655609046136366 6.302143477546055 5.881612946059864
Be 5.718090058845782 5.3633985842188014 7.683585439321632
Be 7.255386001192213 7.829177630958965 6.02575755042797
Be 5.286231294051377 7.735573941746636 2.756612228979768
Be 8.395891993948979 6.536664916683928 7.143308205456229
Be 3.6561734815425786 5.332483648253722 7.565186089027936
Be 5.685367114253463 6.116414177489687 9.518558355873912
Be 2.5331184863757863 6.922730275067105 5.3182641350741635
Be 1.8326536127025714 5.229177623540415 6.508097679475681
Be 6.090361387762044 9.118104784769297 4.373537856721815
Be 4.5324389133088605 7.29359842062096 7.899753848051597
Be 6.636821066712584 7.4565965296434795 8.033127359322817
Be 5.452460444202971 8.567075325587108 6.353075467467942
Be 3.439290858860461 8.47927676703516 6.462886180180321
Be 2.4473575070275237 7.010618695407222 7.37133904221606
Be 4.199514265399414 8.181411789110577 4.608636697692374
Be 8.143630008031531 8.99461020686171 4.634112155907622
