43
Energy = -124.85465367 eV
Be 5.836717616936875 5.228150788015247 1.1808546913890212
Be 3.8929576720945938 5.14233665383291 1.7047129706026023
Be 7.197459063668006 4.066571707939508 2.138864062797597
Be 7.289730588521495 6.27431656475133 2.185808206525959
Be 5.054315766529474 3.429889994662969 2.250280164699472
Be 5.127533901875859 6.837367435029924 2.4179733135221664
Be 9.04209553516188 5.074648025849631 2.529178273820764
Be 8.663836447181628 3.3949190191326317 3.6287635270491134
Be 3.3216567460932316 6.036031658150744 3.4063219490785657
Be 3.1084538319785326 3.8749957260801917 3.1720064091239726
Be 5.538809545152331 5.123804518778013 3.508188926143622
Be 6.5000511181113065 3.0914219966060386 3.8842958219116706
Be 6.713968882525872 7.084485131738633 4.060621259225556
Be 8.764092275167496 6.730328813939166 3.6919265698202044
Be 7.52715326121548 5.058672526308534 4.016245138655262
Be 4.757680843473918 6.849391435129948 4.6442790130810785
Be 4.442476364821672 2.5631689182792075 4.12108362699993
Be 1.76133067590779 5.057675509396842 4.467322599793459
Be 9.365312443062027 5.035335358408408 4.9103364279312745
Be 7.842406893980812 3.5407427953387254 5.5788349678515985
Be 4.560535899576478 5.969730597655265 6.614834853771596
Be 2.7591856166920636 6.793041509304771 5.290947282358201
Be 4.057600120297481 8.046094936061124 6.331365811806217
Be 0.7945411865419312 4.218567194522107 6.163300423597884
Be 3.8307359625893254 2.4374581309616077 6.151834337405243
Be 4.1420706205925875 4.54421694390435 5.045737018672259
Be 8.476032781147309 5.01607660311303 6.8455001254514665
Be 8.042041243729297 6.647941366563941 5.671903357067817
Be 2.302239207833401 3.15694162196158 5.0604844594785385
Be 5.824666042125015 2.93890410196714 5.855386266148424
Be 6.091999869303359 7.534130874453431 6.16872031520705
Be 6.236727833049289 5.283027758398794 5.595553120388806
Be 0.9491085020129285 6.2632030528685405 6.154714757948044
Be 2.616708993803746 6.991081895054007 7.413335410223729
Be 2.8049989023897064 4.9598763962857255 6.504059537584525
Be 1.3513347284368764 5.271335695689258 7.897014036954581
Be 4.56765369081965 3.877988897070856 7.380921761000793
Be 6.948572453324444 6.300351729569023 7.5555554569602466
Be 6.720058761078256 4.0600941203921295 7.4352574984416115
Be 3.462896990944016 5.433900109693633 8.438843320193309
Be 2.34725469576001 3.241038791914657 7.3289160873207155
Be 4.940693939310852 7.314988738580005 8.118416276784926
Be 5.544457007639675 5.325908879104216 8.599655087667466
