40
Energy = -115.11774322 eV
Be 7.56336557519277 9.138797861783608 4.969375341023659
Be 5.702240012788124 9.442600372876194 5.833156661629529
Be 6.111165374907063 8.427030466725613 3.6542292903336224
Be 8.551027905057996 7.518355765945414 6.103306290562953
Be 7.91374505467845 7.2591205345613234 3.963708008533361
Be 4.283507667705874 8.615008132051438 4.657621093297486
Be 7.433501999873538 9.088170645399686 6.975387550154957
Be 6.36317926962223 7.345180042826557 5.456648209960229
Be 6.459651825792966 6.370380311913926 2.7307493324156944
Be 3.882453671186602 8.356344722096342 6.62932780084367
Be 8.772959777224477 5.6791127701791595 7.281580225469503
Be 8.108730522625466 5.252266182373264 3.33070500235374
Be 8.100981716610908 5.6263946900026465 5.369303390738032
Be 4.711902581285767 6.789716755747608 3.8514859308246914
Be 7.773709295754115 7.248654399803992 8.069501681342352
Be 2.878720901838434 6.995972847142477 4.948316404725741
Be 5.783477053939099 7.949041761780046 7.484635238803705
Be 6.631657919342876 4.000599436634872 2.7392728597291924
Be 6.0392266136796176 5.351107285548059 4.714867656281973
Be 6.500558703217795 5.833645683342287 6.9147080645054375
Be 4.644728793854534 6.327038035451546 6.07989751914852
Be 6.088800276387613 6.5448222500874484 9.015928932184991
Be 4.885009707286164 4.9198342890695725 2.8949303303541853
Be 4.205656868434631 6.668357684323391 8.135189120271754
Be 2.505083175374159 6.747509003179054 6.939668291383833
Be 7.453165639364318 3.676456899530429 4.6109162971808075
Be 3.8634204939405317 4.945499814522877 4.699516986537872
Be 7.688177078624428 3.9343836841550432 6.6918501313342285
Be 7.365009232765144 4.931872267582961 8.61855672801735
Be 2.07676550915319 5.184538720901793 5.719785097369833
Be 5.314816543218052 4.085711165834504 6.293891571582235
Be 5.1807089506273885 4.766597971418036 8.47889606252402
Be 3.4350506712441318 4.845420363569009 7.2456018400203215
Be 5.23429934617467 3.248585421120811 4.264091750658464
Be 3.2538202319833913 3.2821094194941502 5.8590431819652595
Be 6.563417012527609 2.2751918685832977 5.883616143665079
Be 6.351132398429573 3.097670864187349 8.071346707020812
Be 4.2684504979058335 2.843606531220084 7.699575800052434
Be 4.606511635358773 1.7898404902346527 5.760131322945
Be 5.569311071977898 1.2784498619692561 7.412074130636618
