46
Energy = -133.31116591 eV
Be 10.0867982258581 6.441775220767771 9.449279093567604
Be 10.733745298144216 12.905812063570835 9.53895618151503
Be 10.801953007229987 8.838007974566453 11.6126360091948
Be 9.567941331106404 10.646878032563967 12.172733645853718
Be 10.02370969334187 7.273567312344689 13.04111174907084
Be 8.991353416792625 7.339482982365119 11.08497583058363
Be 11.61999774550661 10.96551497191903 12.566912603474089
Be 7.820235694740693 8.827533668871746 7.478297350238273
Be 11.71020717913094 7.747094559366065 14.116599155489265
Be 7.436306909667274 12.22338109149783 8.32930116454442
Be 7.204586455555587 13.214704218981172 10.268902889278982
Be 11.559818869734482 7.030405172747039 8.033279489315513
Be 10.893006215819764 10.678393769238191 10.287199302319955
Be 12.326981588995244 12.532847272078753 11.26031175887187
Be 12.862199840453648 8.503629914760303 10.789506655980096
Be 8.170470425567594 10.895612450507658 6.691682328127974
Be 9.346346362854154 10.048106471469874 8.556542529140058
Be 7.518145369320284 10.416952752238544 11.56139377949955
Be 9.921985539376593 8.195336732089656 7.334081499612967
Be 13.191638131448906 10.582380663543594 11.136706705698272
Be 8.271944183791671 12.388683210818634 12.132196560655382
Be 11.361448971060856 11.030639493596599 8.18018756334143
Be 10.58569553487127 9.351683556618763 13.659965025309575
Be 12.79147278122536 9.902984699883854 9.131716553831184
Be 8.816124771933776 13.61140773527377 8.903756765936741
Be 6.287561778100534 12.097703138725747 11.714896618450833
Be 9.561790722058358 12.088607695706088 7.807022838231897
Be 7.27926298964713 9.390190906539452 9.606013987482669
Be 12.095184798934918 7.148255818432384 12.21280988406043
Be 8.85207327882681 9.210885116605787 5.73926827175956
Be 10.364762396233836 12.423164478736238 11.637676923630517
Be 12.067820426196871 6.637418065176802 10.078143729144278
Be 10.22956964133035 10.36243702574306 6.601807997330613
Be 12.612406040173662 9.160585937752304 12.842866623238466
Be 6.591694552124515 10.385109224555421 7.958597578485136
Be 8.812786625122639 11.541536849958927 10.139571206613022
Be 10.586978025207092 6.0272638393883895 11.439654183315065
Be 8.779125884862374 8.794369982465396 12.594633123784233
Be 11.860638341269928 9.052582205727944 7.378860369912245
Be 13.128227723350289 7.947502280260022 8.803911526448722
Be 9.138860516452548 13.83013986172024 10.849468047555163
Be 9.117601156056875 9.40752331216509 10.5628974226355
Be 8.752808279379822 7.931045480941211 9.070211782166053
Be 12.678000016816457 11.90276900671015 9.466546603041044
Be 10.872548917412079 8.618897986385187 9.451308292084304
Be 6.366521237413339 11.278209282188083 9.864039640330665
