47
Energy = -138.36677901 eV
Be 7.247337416027403 8.450565177615188 5.147062066257236
Be 7.666208900592913 6.546024973526117 4.641730927542208
Be 5.5279612537971055 6.89395116455524 4.835863900476777
Be 8.81543036561336 10.151415993429781 4.841374774241498
Be 10.713229409626484 9.249463190887363 5.126883858870025
Be 9.612926692706173 5.981027863309373 5.092673822063945
Be 5.350350402069756 8.663407807940752 6.059286822160949
Be 6.402836391978066 4.938430648055432 4.715443407624638
Be 6.202671988257341 4.164330588273231 6.650885651832403
Be 10.467015582716144 10.906470484733278 6.204013377879414
Be 8.523984943974444 11.402519200699105 6.517657180386305
Be 9.192206167154398 8.016353025578045 4.664348738538691
Be 4.571112044865873 5.1775720159454774 5.451414300635589
Be 6.923552848354864 10.265414025139913 6.04576697334588
Be 10.682563914395695 7.401733671892515 6.077146789163221
Be 6.303831600461569 6.3956890022657165 6.880858111890449
Be 3.758773150902831 8.982371429116283 7.314291531788234
Be 4.169139206390206 6.913895731727862 6.655820444372935
Be 10.507865786532003 7.345905785973561 8.066073158945313
Be 8.093867013603363 4.855861067143284 5.889822860099137
Be 5.94936355432587 4.784547657711638 8.675207105992946
Be 11.137689067131117 9.200165318668121 7.253237418027914
Be 7.03632548533701 8.525123712598635 7.385719189962083
Be 4.388336573798981 4.928151291640525 7.4278305650722505
Be 8.951664381065209 9.058781360781666 6.693888347598669
Be 7.02919365550798 6.904004209133193 8.93631473112311
Be 5.2443901151292485 8.105227038108316 8.272085952339255
Be 9.890846962532438 5.472916602867199 7.101493475799662
Be 9.651193715704556 10.59434160218131 8.146532714564364
Be 6.454802641184657 9.3700402836836 9.418448394401093
Be 8.424155721339716 6.995241097969654 6.982046160118435
Be 8.650781855561045 8.388744264482114 8.796778293897486
Be 10.537771032951026 7.233593142614609 10.112358876951781
Be 7.572345283095337 10.525560589797498 8.106049748984473
Be 10.598052015544114 9.225379171592998 9.377703423217781
Be 7.856059737323779 4.972104075857007 7.9058008033564935
Be 4.393415215032622 6.409669864935432 8.825845555259027
Be 5.551329465598118 10.104756508585226 7.614744778263581
Be 7.5005873723976695 5.130626090648253 10.113261431343236
Be 9.20914290566107 6.02046667092227 9.056121884282636
Be 5.419485998697457 7.693772039621152 10.360818430349237
Be 8.681072748525608 6.708425234072563 10.93156950206244
Be 9.458315586604277 8.62131667331123 11.088602172812731
Be 8.494441676128057 10.121627247227234 9.965451238249777
Be 6.728687612927082 6.539228922796811 11.530112870099341
Be 5.371311819973245 5.557979569054787 10.43801037503715
Be 7.3938831534118465 8.413317343838083 10.913058295227502
