45
Energy = -132.58026185 eV
Be 8.99055310357904 7.45341992317369 4.278082941124368
Be 8.223822465736317 9.491908676122582 4.23949294156941
Be 10.230557764520913 9.195936520291362 4.467176425696719
Be 7.303963181842845 6.27180094975237 4.739590357765061
Be 7.166097060783301 8.183615579348931 5.353423249110291
Be 9.069245314629192 10.68957772134339 5.7022959876122385
Be 9.157432984636198 5.675029821520553 5.475478837492688
Be 7.10400728898482 4.88142392376427 6.28753644167267
Be 6.957364866253802 10.262123350079536 5.821154331294277
Be 5.9083964369562345 6.598980440692608 6.335173133688604
Be 5.359196197328694 8.702218876552383 6.129989678991343
Be 7.5582800977653575 8.974398472381987 7.463695784023521
Be 10.983633640745632 9.646074461268359 6.357599792453038
Be 9.11148149706483 8.52383316762635 6.166774084860902
Be 10.208888596018058 6.365274621482783 7.176931926048461
Be 6.931466040195613 3.776598268472598 8.032657880277082
Be 10.81087338774939 7.360097389709858 5.418570427989152
Be 3.875085867068976 9.099347682677891 7.60565217662924
Be 8.01958981085587 6.9281823039894785 6.981926828148929
Be 9.581417047969255 10.26627625989216 7.641312473021892
Be 4.110324914627381 6.9370421944670575 7.404418252482521
Be 7.689221598306477 11.018230049765675 7.770957074217132
Be 9.426724022952682 8.128447873870163 8.106896472867883
Be 8.710362178526479 4.84840441191547 7.570964768262189
Be 4.632438220663935 9.74027253259789 9.417172657165874
Be 9.129304729588974 6.236365866683464 9.044172492606256
Be 11.022060701271146 7.152502587086366 9.127540411352793
Be 5.812860293992151 7.944742452913065 8.126095454186679
Be 11.585961325360005 7.954798844898027 7.283135007975857
Be 5.70101814892128 10.208866143014395 7.5706112685994
Be 5.1566534922079015 4.918082495386444 7.479328774232009
Be 3.688952990882012 7.94281518148443 9.242244033460901
Be 8.761763286927513 9.793214488000945 9.418447650736274
Be 6.8442478881926485 5.943414315712832 8.308955762646228
Be 5.784694157401198 4.389361565738331 9.522736563943209
Be 4.866048939534335 6.228521208322063 9.223248448931589
Be 8.497626545231839 6.513249876666503 10.961626982177433
Be 7.600879114073832 7.695949868832284 9.194817185081751
Be 9.591915597256804 8.111352407261082 10.259745619387187
Be 10.988201529721675 9.266300941127477 8.82846537110927
Be 5.564075766106188 8.035071728640604 10.305538883665282
Be 6.698436581839728 9.687737972086275 9.32595162790782
Be 7.870117071966668 4.697464804872712 9.763985799273172
Be 7.660760267414549 8.58748376700392 10.989473477490272
Be 6.5225304194575875 6.142720444618349 10.54748669388116
