46
Energy = -134.74523286 eV
Be 4.365727526454147 5.16298235903511 7.245659460680797
Be 4.465230468522306 6.042820358383983 5.193297299884561
Be 6.360757323912136 8.749134885260187 5.185510234003174
Be 6.697488174260812 4.271756444451773 8.227228188452687
Be 4.5415977062705215 4.028656693158225 5.480693545591313
Be 8.326201952236316 8.126392213618656 4.678476033911033
Be 2.6295896999198867 7.0362359166228945 4.5986987025683765
Be 4.168916682860943 4.903864455446661 2.1049352921513154
Be 6.254709462299192 5.202972590923539 6.074887500053658
Be 2.630243158079977 3.3464637984229344 5.3607435110915524
Be 4.99060499900023 3.2375565977414764 8.729368810868852
Be 5.781711691307639 2.3980580206636857 3.226160728659597
Be 5.544240457141557 8.26268171998332 3.090307423303101
Be 5.882805047561023 2.74437817223512 6.915972238768783
Be 7.494466683818791 7.550217235854115 2.6623824682878836
Be 9.069731630248773 6.380973812193915 5.763418494978116
Be 6.473403466651687 6.710246253806296 4.469757613993096
Be 4.073614812428013 6.739465368300189 3.139124038767991
Be 3.766014072573965 2.7287843813496226 7.119947621499954
Be 5.6529422405760235 4.795713332301224 3.8078256298569446
Be 8.099419473753162 5.553713952081359 7.324549569379338
Be 6.282230076508302 6.326850902862221 8.106869546509008
Be 5.77571598080771 6.340216327550519 2.0616693120031595
Be 7.216743769276089 9.41843972350272 3.497518239702038
Be 7.524943774820871 5.460873273942318 2.658129452561367
Be 7.424165547942532 7.377211895647255 6.524673499840745
Be 5.090188748903204 5.2084819757917 9.403748238028598
Be 4.696204502817444 2.0413705868817997 5.222335560765655
Be 4.290761783927708 7.003700932663017 8.436657381241188
Be 3.267491996305684 6.027171938431504 9.88742967732855
Be 3.0447825439246543 5.022121004014107 3.9303599656129955
Be 3.941612544553542 3.2012440400969133 3.588822450932051
Be 8.92319195454698 6.429675933920077 3.711099383428843
Be 6.154834029188448 4.16546980231284 1.7218773084046393
Be 2.134016094796902 3.9664299545172654 7.295340006035751
Be 4.343398033322852 8.17281503832004 4.819106613921551
Be 7.522646561981308 3.4723115905105493 3.1590922216372896
Be 7.928051513269344 4.831339776221495 4.751106396936766
Be 6.592195434622057 3.0770503420871447 4.994676604776108
Be 2.4145693742630163 5.964917392588461 8.005295578913277
Be 4.570790657926241 2.9253944268169585 1.6533114063563557
Be 3.2341441909116124 7.300748612719901 6.571954075426393
Be 3.221148781820278 4.1987381181353784 8.977830981853105
Be 7.807197576437724 3.6817992553026397 6.575099099710674
Be 5.339482038126556 7.390249892576714 6.550634222045071
Be 2.3826384903611997 5.414871431990196 5.888981100515891
