48
Energy = -140.64212596 eV
Be 6.478115006570942 4.551051371193164 1.034367108846737
Be 5.048712652384297 6.237327908656661 1.3954871385683632
Be 4.667142938898962 4.169144038073194 2.047547860076473
Be 7.231094350329986 6.429417359811602 1.3891338073988726
Be 6.5568769133930935 3.304185499463206 2.866334546036797
Be 5.088894661531562 2.335300459963673 4.08680011007976
Be 3.193544064811491 5.655186675294222 2.139960083015182
Be 8.135063280032876 4.778576539433346 2.2807898740534354
Be 6.2430787500397775 5.453688755683802 2.9749840395095517
Be 6.028989093894598 7.62415326880962 2.7692947931542453
Be 3.8064212368424135 7.7799540947814405 2.5169925563360764
Be 3.754541642907834 3.276938322667534 5.515475790459851
Be 7.132779731616256 2.2960730599898715 4.718781023594063
Be 8.26541437855237 3.547888530771771 6.192756702030114
Be 2.9937344405824895 4.1981865174310835 3.6600325431514276
Be 3.5998109076485294 2.48505650267934 7.4530094633945145
Be 7.904760431969147 6.585370068070898 3.45173898867971
Be 6.029967064496554 3.7486490985975376 5.645554106001983
Be 4.973234115050669 4.314314823659451 4.02115123008716
Be 4.4709357477153455 6.303002082897962 3.713572920884094
Be 3.945492261938028 5.379602495200954 5.450389468506815
Be 7.665490946449065 4.532640631876106 4.3940318141368975
Be 2.236063625020633 6.149917370499491 3.956945880098335
Be 5.1770655397816965 1.841599146752738 6.24126056743509
Be 3.1805762928534613 4.699808579441833 7.375173931504332
Be 5.502722384377137 2.176441370134099 8.451399690145669
Be 6.117546833651174 5.887139505434737 5.049880052701439
Be 5.309034758958576 3.9688215993922373 7.50151900626582
Be 8.212494987088986 6.33352750386889 5.453234440162364
Be 7.032872544545895 2.192285328198632 6.962395056130931
Be 3.043956800951418 7.968087268573699 4.503744274156886
Be 7.174210365799899 5.142927217698173 6.770502428552256
Be 2.29291262356909 6.717267127657838 6.00612011259657
Be 2.027332581048224 4.621890918994641 5.47172455642091
Be 4.745323536746202 7.301270765866848 5.612588904715876
Be 3.925570705459019 3.623817340902159 9.121189001864227
Be 6.885890370142984 7.9968602349801845 4.76243622110079
Be 4.91033611155342 8.762455771339264 4.13627680061142
Be 5.183654071776929 5.91089480503981 7.021906407853367
Be 7.403860173882981 3.7067707250540685 8.278810029306657
Be 6.766473598665306 7.241000185396056 6.7786672517783755
Be 5.832395826182647 4.128002927332053 9.587250375307626
Be 3.1658202928310253 6.798112807874352 7.847388231556601
Be 5.626642715144235 8.934134872367475 6.353416986436979
Be 3.484930656345424 8.489875222133954 6.678858053643261
Be 6.563304259031022 5.838353445502361 8.610204594944237
Be 4.475226109151436 5.642702275841657 9.01839228929051
Be 5.063591297751729 7.708075107167537 8.022428176547756
