40
Energy = -114.33888281 eV
Be 8.952140447140232 6.315154873302662 5.801248010699187
Be 5.046664354838934 5.912030958294462 2.595158229035729
Be 8.317145148674877 5.505901208284149 3.5952276153029277
Be 3.4581908052603714 6.705888352199369 6.513218918484541
Be 3.979882315549845 5.016737609049172 8.576231542187772
Be 6.506620055562201 2.9787936163420206 5.545051984820376
Be 4.928981453852848 9.556709515130612 5.0655122443910106
Be 6.851083540638062 6.5260067200141805 9.221319536214349
Be 6.961472249384494 5.9486393938914714 6.765180354726564
Be 6.770926733001388 8.874041460745795 4.475773778994278
Be 7.89150782709981 8.091555699555766 6.300208708937505
Be 5.46355228170778 2.6413902179168205 3.8603445298203307
Be 4.020898170902872 4.201234158276177 3.768796237518902
Be 3.613682406382027 8.109203978880672 5.018723039700155
Be 2.2488650464076043 5.365852678619528 7.642370144227743
Be 9.115418741752954 4.883470110994785 7.220828378159863
Be 6.366313743597726 9.475613497460905 6.423489260661546
Be 3.2621114573258607 3.6003015693608873 7.245607821594373
Be 4.083694476265157 6.155270699565437 4.520765374371673
Be 7.293951083761621 3.5914508983194895 3.54708084363499
Be 7.0425940065719 5.146394154706107 2.101583814637316
Be 5.466487078679258 3.9141103189538415 2.345239111582872
Be 3.1675497667163794 7.052904452207384 8.457397859929582
Be 8.16775927925048 4.396499757271309 5.337567435521837
Be 4.31262283801401 3.0343314440990112 5.545672749219241
Be 5.230872876105669 7.782575601416851 3.6871217235346503
Be 6.10360036083976 5.197125843037192 4.5588463667779076
Be 2.9259087133762547 4.77396519252947 5.595253617654457
Be 5.320712462284125 3.16856028469673 7.378298377756843
Be 5.172280800333533 6.737213927110452 7.939902606488602
Be 8.578480196055915 6.866860745613074 7.9782523038573645
Be 5.572620016386535 7.215768201346369 5.809015989790225
Be 6.91578480037046 7.076411976267202 2.7177266003385085
Be 7.392888508394985 3.7490012713959575 7.307358064606901
Be 4.4507834250592495 8.575251786301076 7.075386949185565
Be 7.3809061322647365 6.9620998894767085 4.679268407964586
Be 4.973599359726536 5.119909777669631 6.515788545973072
Be 8.079626071256014 4.962017635943586 8.930413654039096
Be 6.652582625580487 8.13799153556858 7.923663849103891
Be 6.065428679904234 4.781949324461638 8.52029575483052
