44
Energy = -127.23483328 eV
Be 9.363989332938958 5.422098438300838 6.494499009506504
Be 7.465827816939608 8.910141742847946 5.326923547766896
Be 3.925364499260786 8.122257378104957 6.5975822220518925
Be 9.011026324140296 11.157527892796919 7.599396706727496
Be 9.384265301755809 7.787495802215797 9.993071153127746
Be 5.799524645010194 5.331709648380008 6.577806211273956
Be 3.9962152817699077 6.217068006226789 7.674522696348187
Be 5.916499115160108 11.080926257620456 7.671622620276509
Be 7.56861209389729 4.884165457370613 5.461475943627872
Be 7.443203104804968 10.766624982599268 6.347605864449389
Be 5.751228974705825 9.521041451469516 9.048893986919037
Be 9.072016960188607 5.86006660250368 4.476404444235282
Be 7.6417670239655475 7.059655097779595 10.999563095580687
Be 7.520408537882405 8.863667143206172 7.615002474001327
Be 5.8464002171770835 5.313906231462355 8.670006001347803
Be 5.708379496069353 7.74063641980717 5.216364369039499
Be 4.227794465234193 9.840459710098326 7.70103354585594
Be 7.5712850333298265 8.870860267635459 9.90381673145452
Be 11.168051324845571 6.395344648674443 7.5082356058438355
Be 9.253309066491013 9.634161155729647 6.193832494746005
Be 11.147018626476315 8.281143455984854 8.620157944190089
Be 7.592800020896981 6.912981095529409 8.717776333318085
Be 5.768731095453915 7.525359781041537 7.646418328052467
Be 9.334531385281045 7.614765921609662 7.560170532652094
Be 7.50267874004979 10.744490736978724 8.916846546258027
Be 7.616398127304094 4.928222032785416 7.5781969025817135
Be 5.68801699490566 9.543880375055686 6.28030424705671
Be 3.9745404091486916 8.103950817284188 8.787494268291143
Be 9.2143540360475 5.80618881440055 10.624718965013251
Be 9.316514440722548 9.608891977151007 8.963539621936356
Be 7.541658195828421 6.932565486468729 6.476850809981587
Be 9.411725470092453 5.402207371272075 8.588257373228453
Be 10.758303130667747 10.002296777897616 7.548684573787231
Be 7.484830895563891 7.118161261433994 4.198156224462086
Be 9.273485755456031 7.830459815309748 5.132144480626034
Be 5.819033681099255 7.700746834793382 10.078597158853118
Be 5.975064445195832 5.782825918636914 4.54784003922801
Be 4.267408683017416 6.329729727776298 5.631270007562086
Be 10.799045503527148 6.4920708125639655 5.47931043124695
Be 11.097148820548181 8.300440938399685 6.430710342126237
Be 7.666726196160881 4.8466300569576815 9.694626110440682
Be 10.89246641014744 6.4569083804431004 9.553116249217666
Be 4.3621637349999 6.294944199290287 9.704507001830352
Be 6.119092076239292 5.730219901699937 10.696711531942459
