47
Energy = -136.626925 eV
Be 5.1927767695771045 4.850906154962129 5.755687814737705
Be 4.67518476666586 0.5034194945470205 5.363680445247285
Be 6.071218728066429 4.206975673910207 3.915080541048415
Be 0.7204050063471631 4.106632783111063 1.9160360091658004
Be 4.637088703843001 2.7456151798148984 6.184980844056156
Be 4.639585162816042 5.030186581336439 0.3892995531221401
Be 2.429868268705764 5.305505117204497 4.812879108080419
Be 3.045099171803896 2.3859885150536417 2.9715257157367274
Be 4.090681541247526 6.576238678761311 5.352509579436335
Be 6.619937148945888 4.761917365744902 0.5503236509552175
Be 7.164911511273853 2.266928906571966 3.959691483195488
Be 1.4215889428678403 3.0281002580833136 3.9812384316982583
Be 1.7246552205526144 0.6401284359434745 3.993883390873589
Be 0.516822517354351 5.141308059725947 3.8649975269555457
Be 0.21917671743931166 0.17624916521159878 2.7697378873255074
Be 2.060417449712865 2.691121553011365 0.9965532159864522
Be 3.3248128648847075 4.84587328582909 6.5562258701625815
Be 3.0590275991216265 1.736263738977627 5.069361695628325
Be 6.982008778793638 3.603419389381257 2.1928272135934206
Be 4.976473903104878 2.24185917447376 3.999498618676492
Be 3.867824870784705 0.48188527516558544 3.3144591962978285
Be 2.549678727580241 4.464846895360869 2.8528204396141557
Be 2.1254215209594394 0.7631495467370737 1.9413597972241272
Be 2.532461217194481 4.7093286823408045 0.7078649291039789
Be 4.6963413195759545 7.318277518168452 3.354528617828758
Be 6.113982793046373 0.4092030546201347 3.9097858038623254
Be 5.727574021649755 2.928840995879805 0.5216816355250633
Be 1.4504213296230735 6.066051296899074 2.1187091476667756
Be 6.103632033789513 1.6955899680716102 2.2457486311174404
Be 7.70665556550615 3.4531749897475628 5.303274497346176
Be 6.4568641529764665 1.3807284611572201 5.696540141784887
Be 2.6339005058797254 6.84978724906581 3.577161463679498
Be 3.7720758257445506 3.224613351852069 7.834992471409673
Be 2.077258366096767 3.274696193677894 6.142914037432718
Be 6.670161816454252 3.3738931120091635 5.658477653200472
Be 4.138596958068021 1.6614651985980204 1.3809234455132748
Be 3.6088500645098964 6.195446133654827 1.7780136774208504
Be 7.4891413052786735 1.6187402392023302 4.10015017526024
Be 4.239943792256563 5.346526535989296 3.62637910873207
Be 3.6027283058617057 3.6594597728036002 4.557181256964526
Be 0.37195587759334187 2.067185239575157 2.0977302594657155
Be 7.164911511273853 3.4657803158850604 3.263933327712331
Be 0.9398907385634727 1.650991301068496 5.635022199487851
Be 6.044779215933975 6.238140915881929 4.431749910515861
Be 4.606249624462936 3.689550254418984 2.28383649778932
Be 5.7834231216036365 5.694268065924729 2.2410581718795175
Be 0.9991943766768531 4.9534016698453085 6.162677984676549
