45
Energy = -132.399071 eV
Be 6.868633013741476 4.24626803741338 6.2757886514450005
Be 7.752488926892863 8.54575574486106 4.770281496917473
Be 7.503252919134983 5.003313546156854 4.40912342536237
Be 5.506870436014516 5.005415790484481 4.838496463864456
Be 10.00828640520863 9.585427526465342 6.924299983423023
Be 6.544500503479314 6.85703844959665 4.261966288792024
Be 9.886732625267573 8.414666582580768 5.152919521882401
Be 8.79771437306281 10.188123066475875 5.2908378949524035
Be 8.68929074750259 6.719458072527105 4.377381522757452
Be 7.9072544014615005 9.06695950841715 7.2504470080767405
Be 4.842182657076565 5.1579427220810175 6.788693511668175
Be 6.34903182564537 5.235778351984951 8.124208623815578
Be 6.1681948629432535 8.284841654824465 6.042930786436897
Be 8.895642603709446 5.105011013962455 5.900332019841672
Be 8.5896945856451 11.2675432200701 6.968947990776847
Be 4.781578022064564 6.749231378082832 5.469631049184136
Be 8.786907524597089 7.2633029053370555 6.573663530799314
Be 6.92002562644049 6.298496577971693 6.301406485933433
Be 10.45214934441737 6.3859997734376925 5.481322860468904
Be 10.97234431455907 7.81139477426387 6.989032636125121
Be 6.84360842727696 10.43209833161914 6.093909864893445
Be 9.130728345731232 10.236073410494795 8.685830385281596
Be 4.992567835065519 7.180209825922095 7.5462765779343774
Be 7.070176898296092 10.954676047791969 8.263727963888591
Be 7.902756042897655 10.875800005558355 10.216198398972407
Be 8.326719745056394 5.448030280940298 7.8847662742118985
Be 10.965426068522152 9.026494419383747 8.86911391816497
Be 5.791385748361669 9.362533748855363 7.748324701847417
Be 10.312057147027769 5.824369474272411 7.465789866221939
Be 11.46045925819093 6.9347666982256575 8.789526129266228
Be 9.704764760791907 5.955695079408589 9.503529169806368
Be 5.699249073502208 10.37915160396912 9.715370463561444
Be 7.4169443621794 8.981514770643928 9.416941733185038
Be 5.346839370648279 6.290176238143779 9.478165174348469
Be 7.031202510093051 7.36148538641243 8.163831889201523
Be 5.504001320545488 9.022300685650698 11.314583886692624
Be 9.176041793229652 7.894580954892676 8.584986382086893
Be 8.639846844393364 7.327102502288702 10.799074587477211
Be 5.2562307784944595 8.310816652188056 9.419750198685778
Be 10.647383832912388 7.637764768170807 10.477184494724396
Be 6.394870957682491 10.762120468193434 11.620160844115965
Be 9.416415638610035 9.293797915384221 10.481547684412607
Be 6.578460181922655 7.366882086512638 10.85674944008374
Be 7.655743404064159 9.077719917795136 11.629365062185208
Be 7.513898432369592 5.87242452701655 9.784137652955826
