49
Energy = -143.82667908 eV
Be 7.145103992984929 3.526209408387228 3.6442972392013466
Be 6.578825144188674 8.970092466874524 4.1905005616165765
Be 6.163435721827161 6.913145652496888 3.8155398313124884
Be 7.776480198868611 5.494389374705967 3.509057665348764
Be 5.7286014216154815 4.897036401761266 4.28585301874447
Be 8.127124955550102 7.488485979866815 4.155981881225843
Be 9.415425545884407 5.844612616546923 4.770125822412319
Be 8.283360621215888 9.26569308567723 5.419606587380029
Be 6.491223225045231 10.030271344697505 6.005613685221636
Be 4.690590101480277 8.665651764497762 5.482438984760093
Be 8.520014403091528 3.998867098350962 5.12741870145686
Be 6.652923681359289 7.773679722410402 5.839798800065729
Be 7.278110251967821 5.780105668259029 5.554765394359885
Be 10.703668881738384 6.976334230545758 7.316765078904771
Be 9.35615847353925 5.283114091002294 6.781999757771707
Be 5.480597267447323 4.840450474991507 6.7234936720522125
Be 4.859467181653485 6.5112388172615425 5.372457451159045
Be 3.2669689660785743 9.215343504579595 7.2032196256284236
Be 4.629608449509764 10.62403050793502 6.690651362472002
Be 6.497708018148949 3.433718297562513 5.515080328855362
Be 8.29578043526314 10.63142060769649 7.088180633689395
Be 5.6095460417966 6.758043346169203 7.385681324229494
Be 9.852793868897354 9.078383692877276 6.839470599747505
Be 3.702293563154991 7.290617038753731 6.914702400913064
Be 8.911434574938502 7.355696207883771 6.1490552746994265
Be 9.779560013349853 10.271589437824206 8.533281628889835
Be 11.034081719801057 8.648963008565723 8.518148841192971
Be 5.5037905192737355 8.761923329617154 7.466774034796459
Be 10.526569898519298 5.351587066992908 8.589759947656809
Be 6.339565003766143 10.669726926373505 8.041003920912798
Be 7.5237235615824565 4.187117807513472 7.077796378168638
Be 5.818815643079248 9.186655371822678 9.64203087051456
Be 4.0735172358438625 7.976373923426264 8.871821116042838
Be 6.8566421731094005 7.570564175308034 8.89861256745861
Be 4.258053145951589 5.86596137880369 8.547436388157582
Be 7.62377903263541 6.318334119732284 7.515419806098565
Be 7.660136689681459 8.688164275850443 7.415227916134201
Be 9.004636521883345 7.422081840724751 8.679937891383622
Be 6.296230506148841 5.173788331025132 8.809420319637946
Be 4.285750905387333 10.194696488018383 8.65945696444422
Be 10.93752483590099 7.054600711549034 9.762119101605395
Be 7.862097881882303 9.892080238149564 9.280101955222301
Be 8.529532419119773 4.833007748330611 8.78645510171243
Be 7.641055072237821 6.112998158856868 10.24595932376014
Be 9.645681248990906 5.36937943422289 10.411493645824237
Be 7.717078024311443 8.309887952776448 10.605885269519225
Be 5.394652710134858 6.799049462093888 10.022953749014869
Be 9.752556864447213 8.950059021078918 10.166582101345607
Be 9.342439645237976 7.169494649072316 11.095281736799889
