40
Energy = -115.584134 eV
Be 6.628273394091969 6.011591013843909 5.438650588885603
Be 10.137471134156922 9.752747013204276 5.5355661008529955
Be 9.523206810225718 7.87359429493761 5.772419881178753
Be 7.8696679690551665 9.480522222092834 5.658152911478088
Be 6.0675522191312155 8.334526700592248 5.440298971584073
Be 5.886213032476032 10.38563392869372 5.951439935547742
Be 7.849211064831027 7.535186333784434 4.625757718249351
Be 4.674415401922189 8.867667791169856 7.000698724141253
Be 9.024712042148641 11.249816927093434 6.277281604432946
Be 8.697953714173481 5.840845846365981 5.823347331690691
Be 7.5031688057757195 4.176425262420868 6.330030672038646
Be 7.655680675076755 7.516956420348422 6.69567868335947
Be 10.89604898902069 8.54321468697397 7.2516631149878545
Be 9.241418514675262 4.715966719803477 7.6259428194696675
Be 8.270258414635897 2.9124662513827895 7.898534756629768
Be 7.317388373889229 11.113214189807563 7.309861752728107
Be 5.791640425496867 7.140389753832119 7.925711054499822
Be 6.7359994071045 9.08227058877742 7.488025897073427
Be 5.452306400351695 8.928518375629617 9.153340228350563
Be 9.064474123803835 11.148286512307202 8.524335196670217
Be 9.487327823456619 6.837816362753175 7.571533995003617
Be 10.804661143559004 10.791592225761487 7.157561849469466
Be 5.387284954240581 10.632597164024828 7.934677241724196
Be 7.893691679908081 4.268331188815815 9.444186476285424
Be 5.622340334292945 5.0765765271232475 7.013199456692499
Be 7.512627847740523 5.808026228169121 7.908022145082392
Be 10.674027430670312 9.863094698762355 8.947507991677849
Be 4.861922808992824 6.864625784847664 6.041640654817124
Be 8.858365792211266 9.135775018052442 7.596742945199135
Be 10.132022378200414 7.902591164134995 9.199904173675215
Be 7.744984600938015 7.7733843004217595 8.854806106393003
Be 6.448483091744799 3.6005630542178118 8.093644311917615
Be 7.161814168451176 10.21871707218227 9.222604749972593
Be 5.547906356468943 7.113416559792897 10.117485383455504
Be 9.148716167066986 5.959490862945981 9.446921322489986
Be 5.902195345805802 5.194241087906186 9.258548818629594
Be 8.81771341863483 7.549841374908215 10.779318277513248
Be 8.896403934361256 9.455555920555582 9.92571027126774
Be 6.9194403473291874 8.579623907799762 10.663744667279882
Be 7.292119911575743 6.16540911145336 10.496611665295426
