42
Energy = -122.72870937 eV
Be 8.59517651786778 5.762434370229151 4.222460029778799
Be 6.861379105934832 4.508937172337708 3.368073444125204
Be 9.082362149575266 4.889315513354293 6.141270054139969
Be 7.896531167769779 7.884243128356088 4.611500978850161
Be 7.941598249971693 3.7469826580913193 4.865430179264484
Be 6.863005925494805 6.660865978391447 3.3058330042023796
Be 8.991717058815038 6.876525337983218 6.036737423946427
Be 7.359185696096008 2.0864945574640923 5.905910717369854
Be 7.526169382869109 3.8538400482635873 6.985766116846452
Be 6.352867059251566 2.4498930129896435 3.9982022305089835
Be 5.239789759829216 5.566973166506318 4.231893239160964
Be 5.463949635449067 5.6171485755389154 2.163158323601421
Be 7.77397256605026 5.9854606427167445 7.565284077249271
Be 5.716955099473687 7.3235150794551584 5.215536255981467
Be 6.684311360536601 9.455173173190452 5.2884168533111415
Be 6.282202569165308 8.698335042238735 3.4620810968724607
Be 6.941726074579346 5.670479147823997 5.594280611483474
Be 4.740309580484431 7.373095716897955 3.0932753179903054
Be 5.499463867620979 1.3577990322055546 5.640208255379052
Be 5.844202214310128 2.5902048636405937 7.336012748151831
Be 7.356730369841466 7.973168458274717 6.711630873081429
Be 4.775518545997188 3.8267844055853484 3.202608374164943
Be 4.562149672069285 8.967987523162614 4.80136876432752
Be 5.434488897225567 8.893755638116565 6.796591875997723
Be 3.547303330432463 5.573263185518684 2.938835528687302
Be 5.663514849191756 3.837038702382004 5.478952620103047
Be 4.113267399647924 2.2823165404404993 4.391313252826574
Be 3.8057690432494518 2.130917946779539 6.514435113458638
Be 3.6104905837993364 4.4235201973924205 5.065345323874249
Be 5.736284066660884 6.9718191564908905 7.589219582928637
Be 5.95554171340423 4.8229255791081 7.768225471236221
Be 3.5739460610539293 6.888669699359417 4.731081911547004
Be 4.809614413766485 5.710134937962161 6.205883590652587
Be 3.8301405039268515 7.583754476777963 6.668289965612608
Be 2.500597973198682 3.753115451985314 3.4674464551968045
Be 2.2112800187566193 2.59300309404215 5.286874913738964
Be 1.9066653491791867 5.762490586024739 4.114979949265446
Be 4.24162434051503 3.9435843270647353 7.174233346273633
Be 3.670284214602907 5.785126452311873 7.876670733699688
Be 2.3872523035581397 5.912043494687385 6.243654834349204
Be 1.1808793211918451 4.292898260338655 5.242040016573117
Be 2.2588142083282574 3.884631511811431 6.959084402404828
