42
Energy = -121.47672969 eV
Be 3.359013704644334 5.110014747755885 7.539104315894625
Be 5.169282098207275 4.006513188597463 0.10694686539149864
Be 3.0591545714208186 3.097941239249852 0.4873030498800162
Be 4.9558267262926945 6.046842010439586 0.7218753587664349
Be 1.8151582585233632 4.689099562667989 1.2701126020293867
Be 6.574205439091441 2.6690429404284677 1.2077815931136153
Be 2.953111162634634 6.450656089620285 1.4181211488050551
Be 3.9322295831800704 4.561119435734076 1.7397432630617788
Be 4.686006137496386 2.6734937338953073 1.7526770440416168
Be 6.044244069033844 4.522221060236341 2.0161023927617214
Be 1.0799604249376824 2.1652092080014818 2.0128727541081797
Be 3.3624557859473843 1.1359428187083906 1.9778899774857066
Be 2.7843589360847605 3.089054854829364 2.4851208651818943
Be 5.455610939244758 0.9388538495377974 2.5199863887033693
Be 0.7411917836947426 4.05183280589957 2.8807377837204284
Be 1.2492776705468012 6.278252541918717 2.8664956009615623
Be 4.841346531937832 6.074135976732268 2.812625127375845
Be 2.747641790352302 5.086252824953005 3.3698769133815265
Be 3.21451388224382 7.300825491800659 3.2640621834084294
Be 4.450012193003745 4.050223938836898 3.8379951844259277
Be 6.344088238497364 2.7633170078089946 3.265785444496169
Be 4.008245852115719 0.059513887137538364 4.036913850876581
Be 0.5209249537160179 2.403789544590035 4.119201709943622
Be 6.022468458207761 0.9599339262235643 4.482032832110972
Be 2.043219847245114 1.0892919033504518 3.499712432106555
Be 2.3360471634858833 3.180795825477256 4.388694399018522
Be 4.120266068856542 2.028846238958776 3.8749118682513384
Be 2.597182742212998 1.239174757861595 5.455704374114135
Be 4.357701313143893 6.2067130382100455 4.7907263858697515
Be 2.2292945910346043 6.57201889195645 4.897923923600959
Be 6.235774272135166 4.911829419798767 4.2159216866582
Be 1.8365424007425077 3.063408390086915 6.341679640777189
Be 4.621170529907924 1.0054258740165947 5.976165308324255
Be 1.0187418949920566 4.775720261118636 4.741174291643489
Be 5.863407419131274 2.8961240939379485 5.2459705599710045
Be 3.733423801477888 6.109645828353049 6.765599471869116
Be 3.8531050581138646 2.995807447082808 5.701226706461259
Be 2.8538240319433594 4.767607029673116 5.6339079953557025
Be 3.3028714415774103 1.9050177256882068 7.39381896666685
Be 5.104979728901143 4.663011568887357 6.136219087554092
Be 5.215044676476439 2.6654152668479276 7.222702637235137
Be 3.588882580204249 4.021872505729 7.539104315894623
