48
Energy = -141.13194913 eV
Be 7.096888467361668 6.566169874141765 4.0062673928113846
Be 9.18618809037846 6.069850158943834 3.6380564650394627
Be 7.554343114673345 8.777864762038057 4.600350241907411
Be 7.7387403924218505 4.581616967502743 3.541426135890757
Be 9.636846184558332 4.132363407569529 4.12368220626493
Be 4.7935625003140245 6.358865868941693 5.13627050254054
Be 8.961131212721222 7.357827362309739 5.2148871627154145
Be 6.236194992021184 4.818673843140578 5.0131601216695705
Be 4.324478798766089 10.124315684930789 6.708279199343035
Be 5.668875097322495 8.090514039640997 4.413375484412144
Be 6.8477912047624185 6.9716659195301265 6.032656178035928
Be 7.945312258020465 3.2874428996564613 5.245305964594703
Be 9.897878509329106 3.699045325395173 6.100307813914717
Be 10.284999807503242 5.716118120424871 5.587981067854897
Be 3.3113128771187856 6.532551478659047 6.720941761161689
Be 9.510951579551325 9.378116225323083 5.44093045949788
Be 5.778139919062552 10.025465166386693 5.146134633261964
Be 9.942700873016163 4.9721494783539875 7.659148330629559
Be 7.747419003003342 10.535785584689895 5.8941688467103726
Be 4.663025537230767 4.761426575879549 6.490451070047189
Be 8.211865373819908 5.354546922755301 5.602091934847938
Be 3.7979911503772175 8.419168879798386 7.751360736348111
Be 8.28731334581738 3.676274490697927 7.374820281093726
Be 5.924017266168538 8.679831813066409 6.855798008385607
Be 4.10486929016397 8.258870879333937 5.708087265371271
Be 8.789465092201345 6.586334971614182 7.1412368815273695
Be 9.305122773199594 10.194453022859719 7.299527169315077
Be 8.045430449597001 8.558122720415666 6.710440682050679
Be 6.3231308533339705 3.4426306839489036 6.561069251099176
Be 6.078457492048254 11.043268915412042 7.021323976444572
Be 3.562939304780783 5.012702207714013 8.2884959237138
Be 7.369349671813822 9.989585993985953 8.155376031241941
Be 5.280130576032103 9.79371839706809 8.65992197271034
Be 6.961238078702483 5.3402772464438995 7.356947740089238
Be 8.381859932106195 5.281578524665702 9.001777598292577
Be 5.203623728885344 6.669338679609399 7.654578944646891
Be 10.136488852355233 8.169443293691689 7.090315425937959
Be 7.1083271169936975 7.4662279952952755 8.219420619375182
Be 9.767512412775721 6.824203029833114 8.925943032142351
Be 6.863778064815596 8.849660580028168 9.922368199668954
Be 4.8809226569345885 7.8928008780683125 9.512797252939086
Be 3.109541502909605 6.871708090302329 8.865504154575206
Be 8.843002096046119 8.638246944855746 8.774090575229634
Be 6.417235636540257 5.931330869886475 9.427776807033977
Be 5.5200221769516755 4.325147288279656 8.447873124620221
Be 4.502935049895261 5.800220388473285 9.968808590492365
Be 6.13356177480457 7.193451375660372 10.955562520529584
Be 8.10660069661168 7.122539008594749 10.176417097793335
