42
Energy = -117.90187973 eV
Be 11.722346403203789 12.657375432541457 14.97944813480981
Be 12.829574487988115 9.994711924098313 9.34422903254851
Be 10.108416644746585 10.204969218643694 11.017106323153186
Be 9.760705137571632 10.931612853407222 12.898171134146683
Be 11.779338062800974 9.026102038685048 7.682440314385632
Be 13.593932245100085 10.263969171661165 7.481037962734162
Be 13.598841076875917 8.198692469439314 7.283373512783235
Be 11.595329008702857 10.731019127921892 14.265697414483187
Be 9.783945220344046 12.030596103118494 14.535227320783726
Be 7.854160247180028 11.170206704562348 13.484655583721635
Be 8.790872206992336 8.96270127344613 10.061101629271088
Be 8.405802977253824 13.519554829286971 10.814282843314423
Be 11.5630393335168 11.428760898951198 10.144857023277105
Be 6.406839441930831 13.512206313519606 10.458605748416485
Be 12.978395988848995 8.010130603025775 9.298745113826257
Be 14.258898841285006 12.263063587102524 12.490657832812424
Be 8.30356669044364 9.435110434947893 12.149838656616332
Be 6.78699654282882 12.519903222112651 12.205262302518905
Be 13.459096197533551 11.697090513634446 14.347857818658637
Be 12.215950024293257 9.520267590359566 11.270880317809887
Be 6.851879187945636 9.357533216374364 10.638160602860172
Be 7.708368174739971 10.492253557620627 9.118443658339558
Be 8.741658548741999 12.933686050484887 12.834590402737785
Be 13.192048797992838 11.956334176563944 8.985044756696038
Be 11.765413587647217 11.329274526564216 12.315131196910716
Be 12.92368826635192 13.450403338593684 13.451942992175999
Be 7.5828629940930705 12.533369120361456 9.182490520831905
Be 6.223840190312342 11.40393537173691 10.393867791025409
Be 6.368142617301623 10.498595333693869 12.261915967837233
Be 14.835079495882825 8.768464004444699 8.75570845729825
Be 9.55928701035085 11.783143910996762 9.372824767196331
Be 9.621101524781585 9.899327477901327 8.332198025051754
Be 13.530201087392646 10.29592969527929 12.794729874949532
Be 8.335713815924022 11.35371665607065 11.170005353805609
Be 11.39990491553293 10.979351933294321 8.100587060978523
Be 14.286486510587727 9.28575236014604 10.734987666390047
Be 12.497830637660474 13.030698468308268 11.372806788464338
Be 10.991575420000826 9.06472740137593 9.582866535900171
Be 14.857866307873236 10.704831497137894 9.211314820892786
Be 10.206543445149558 12.450764274611597 11.313009132477463
Be 13.561486214636686 11.243906752635139 10.873565904816013
Be 10.89969223682559 13.166528789597056 13.10216194117279
