47
Energy = -137.93579401 eV
Be 2.188175762398025 2.939873256539119 2.7419910748339342
Be 6.28339686001669 4.279676203646713 2.7008059960290325
Be 4.911611091417068 1.0938738372933574 3.6756511181559524
Be 4.0855715949006814 4.758681424062228 7.835090270007402
Be 1.1802978522630858 4.384255351533664 1.3857740803188263
Be 3.7309831217474336 2.6171369324001654 7.883399673422022
Be 3.3043554942172837 3.900308193613289 1.3876311260962566
Be 5.364716428076064 3.531322151534691 0.8479639519252261
Be 5.791057012819375 3.12618379086635 6.468972910780547
Be 3.8352450788522896 0.3555105416447369 5.4137144404281505
Be 5.152689715277552 0.14081010917875306 1.754296588585571
Be 3.8401352363437837 6.94937529260383 6.682635467440727
Be 2.164280134458996 4.146836552523775 7.746704966336233
Be 3.7313419869518247 3.4689734703805515 7.121514797104592
Be 0.7365546035146662 2.0501361252873584 3.970818514633266
Be 2.118114939815868 3.3833272206405747 4.7284564506383955
Be 1.700822373654583 0.9386268229034762 2.2010873270510825
Be 3.8229627720583537 1.9656972648926956 1.930600027071957
Be 5.21096517860261 6.549563335643536 5.301904883916705
Be 1.4216379882147017 5.413859686778371 4.776465786185822
Be 4.767194460670097 5.427412839835965 1.5112143100181121
Be 1.343423127617632 6.170972876866164 2.649491395546369
Be 3.2519528158434996 0.5277572738687955 0.6093169173683444
Be 3.395501861309808 8.129726288397121 2.786946449672526
Be 2.605957563063064 5.863573506321798 0.7953010662292943
Be 1.7665552724394422 4.161619719930495 6.574994697193711
Be 2.7256628104161624 1.409568496250019 4.053242590602086
Be 6.216078117119263 2.6617866184226058 4.226120120705186
Be 4.214976932177268 2.6579179155427024 5.133178825411523
Be 6.062300469393232 2.1030020322192366 2.194511889634579
Be 1.877803988245434 2.3938274693192803 0.6876590323104674
Be 0.25324201799634716 2.5571733434355894 2.012439098796851
Be 3.098460979704777 6.755043149646913 4.560693627585496
Be 2.812399907563737 4.888681694113332 3.225907033296239
Be 2.4889569768054405 1.9688507556633397 6.190380244168021
Be 5.30118724272356 1.5084283176582125 0.28247025818716137
Be 4.417122885244912 1.475744128600591 7.042573440854758
Be 4.398328685594063 3.4778673800447604 3.2265386455475262
Be 5.124720648014988 5.146807677281898 6.8657198731857525
Be 1.937387449484651 6.352758368970665 6.477656106436659
Be 0.574097835040209 4.1664846203559 3.378097351626259
Be 3.6246160749848935 4.784712827806557 5.284812121721653
Be 3.4677323218186515 6.825548407164097 2.4046740041230126
Be 4.822347244400249 5.69886249561081 3.5173335563878725
Be 5.7997609570558755 1.103293129192145 5.6407767199546255
Be 3.1153253353486092 5.355908580708877 7.746704966336232
Be 5.861851328589971 4.546100777238944 4.906419900908643
