45
Energy = -131.11299376 eV
Be 3.0206988834448625 8.873845853151659 6.3643713052498505
Be 7.626467011351316 5.955603226200619 7.5706881955468255
Be 4.619553813553333 8.98980777361525 7.558337976698444
Be 7.644350946624696 3.4134566079502444 2.559823725603257
Be 3.7156872599481194 7.106562358233152 7.3992129038378165
Be 5.121183572264222 7.686897617193154 5.6730372029992715
Be 6.782963558163896 9.200121227912971 4.94167568311542
Be 2.300774154902957 5.211045362337186 6.592238956293904
Be 6.9142073308822685 2.4487793416122505 7.568673098980712
Be 3.9407447044172237 5.9943042649645895 5.723303285617283
Be 6.935801605731766 7.334405715847161 4.120206380259944
Be 6.2718184175048 4.032062902114779 5.972370563972503
Be 7.025788599922208 1.8944775540854193 3.924581200455656
Be 3.93648075943338 6.916800420323923 3.8273219764862336
Be 4.211659713006184 4.903170154053839 3.15761273648183
Be 5.73609845256934 3.58591002087034 3.9822155158430252
Be 7.987819453801474 3.7999674352066055 4.552817544533154
Be 6.050402979028871 7.6016687305451915 7.960395822828843
Be 5.6543524007165145 6.514722197647273 2.640552584732963
Be 5.28521504435491 8.59047314844163 3.627566791212491
Be 5.66590844187464 5.658856562258166 4.629488517679943
Be 4.906688707351039 2.849942738986612 7.369363548246054
Be 8.167999222650527 4.046982139196153 6.932560717064363
Be 7.751635155862321 5.666532981141348 5.4578426096662795
Be 2.865651834738598 3.2288766646669274 7.265858199130185
Be 4.708008603310787 1.671774167025346 3.741018866028381
Be 2.3449810280913717 7.178832013661903 5.419405656525891
Be 7.314049406887203 5.330526544996303 3.279127199712827
Be 4.263410450623138 3.1100149866264646 2.125319189207492
Be 4.8615726634775696 9.829866999624889 5.45634868756956
Be 4.2485280622045245 3.9700927203196685 5.5017086836374265
Be 3.3205541935621423 8.791504067606322 4.392094115085373
Be 5.714513234077925 1.9390616748925278 5.624213777418193
Be 7.380232324705878 7.630102114331884 6.267938777575267
Be 3.5588930064777613 1.928163359456711 5.71518367876465
Be 3.1526674264147965 3.1023291285896537 3.8647521921896266
Be 5.917145333473699 4.4431578301912955 1.9006124539115998
Be 6.29764101357767 4.3563801829005815 8.129379365902508
Be 4.175760672176325 4.8107318222345725 7.5543105950563
Be 2.5271010720065163 5.099998943038546 4.449034341853319
Be 5.7237844555091355 5.94911223066664 6.7709949576299735
Be 7.861255543968532 2.233422247464928 5.824173912923021
Be 1.938786204030258 3.422688434303248 5.547251140354266
Be 6.462440273693873 9.41460689997499 6.898209344140901
Be 6.048806743308746 2.2424443692143874 2.1268897576543146
