42
Energy = -122.00904906 eV
Be 7.959173869946905 7.200700616966638 3.9699236386841767
Be 6.094222098999501 8.309161487068751 3.678429468299239
Be 5.723101052115 6.5513505194243615 4.622111127396027
Be 5.549364786339161 10.09442647558258 4.5315404862968505
Be 9.400834298642279 8.297195676997053 5.270470923958713
Be 7.4721272846855245 7.330176590305116 5.877504022677032
Be 7.584411030621291 9.357351456857176 4.5635190659947105
Be 7.365122720809822 5.2251097700175295 5.40182403883372
Be 4.3005314159137376 8.235879949583762 4.860224711415134
Be 5.632819299027785 6.7823017337424 6.821367034018788
Be 6.030109595937222 8.685256249263007 6.075200789015184
Be 4.335854091436363 10.073579735692881 6.137307791718044
Be 9.257364839996171 6.213191626331086 5.573814423960986
Be 5.443405738263215 4.848370514740812 6.007342914433146
Be 7.513280598120644 5.902461566185461 7.602257599267277
Be 3.978831264265009 8.214044449853018 6.952894934413876
Be 10.823661113235323 7.341413730360094 6.511794965367351
Be 6.29671698810349 10.724634912486504 6.465067990554405
Be 8.083673563014303 9.41171954166585 6.59149576404012
Be 8.841791087228406 4.370248927430397 6.548438114863739
Be 8.938757031286611 7.521736426186824 7.301215888464476
Be 10.137033805013592 9.213694530241657 7.063791277659844
Be 6.839159753766998 3.9493061959407565 7.210594451705263
Be 9.965735241539766 5.741981183753423 7.6360783330367425
Be 8.691240797486735 4.301474133747185 8.64285028151295
Be 5.244761293493674 9.475726522241628 8.038443788183853
Be 6.968068586410887 8.016463728936106 7.854761449567132
Be 7.148747346301618 10.2211722770815 8.3592486330096
Be 3.9667124851110036 6.387376601213258 5.793102344492877
Be 8.749879007741779 9.034822145255786 8.637125912287923
Be 5.28966830370592 5.221174128220954 8.108754925889407
Be 8.333263830984777 6.977130957442265 9.174279358811583
Be 10.335227694044601 7.630244953160847 8.971721286428112
Be 4.97686946106847 7.522397491227619 8.754643085619033
Be 8.18529404178651 5.297991861282618 10.478852381806462
Be 6.761399117085266 4.322340192193904 9.29994804498335
Be 6.731526049128682 8.60031233689646 9.809228761639723
Be 6.383713542330314 6.3383398819095795 9.64131410235257
Be 8.782398905403582 8.747127807329617 10.615465821373588
Be 10.107695111872774 5.513542273572334 9.627273485286873
Be 7.526012831752461 7.197149946497811 11.227249134489485
Be 9.569180258368545 6.918660127500453 11.010268678577336
