42
Energy = -119.03929913 eV
Be 5.5932125143003235 7.194016374150955 1.3874534317138187
Be 7.050185559151268 8.728643043801865 7.272767925125951
Be 6.699488055529577 8.387761971650114 5.299603881566663
Be 3.285291134949919 7.282991489750054 6.004061586829201
Be 4.190444744662994 7.653737996000021 2.680843862681769
Be 4.771978682484977 7.932596653728952 4.701119039458391
Be 6.228895807055813 7.962552669353215 3.1602517465433997
Be 3.155791264974242 6.299934407958587 3.9442348697469836
Be 1.723572368241734 5.995072938217992 5.584608250560789
Be 5.081482418105928 8.21030084392738 6.810144794149973
Be 5.86270550460602 5.257991619234209 0.9066409757480742
Be 6.3029249450078515 7.0264024823672 8.197031858665998
Be 4.387366800684505 6.398533905437458 7.709441348927049
Be 5.381138582703043 5.939465810788796 3.6281352406321217
Be 7.343393046055103 6.642076992855954 4.469359472793759
Be 7.214891691427519 6.241597617216487 2.3353870930388245
Be 7.759021935421653 6.953438430767105 6.5639720248059055
Be 4.076807612900685 5.65545214555552 1.9778740826536692
Be 2.3685220383355357 6.027746031286556 7.495598648537826
Be 3.95658585531263 5.262712736091193 5.674073716322037
Be 5.769407884532776 6.334685421208085 5.982989796446284
Be 7.570913029550088 4.887899911113703 5.915978912741305
Be 7.379882075412722 5.329052960462809 7.956035778202213
Be 5.5250580244727265 5.189760216992032 9.085260046303835
Be 7.6214782234645435 4.601041108353403 3.774430860528964
Be 7.384351555277287 4.256984852417097 1.735028717059652
Be 5.41885116367674 4.546460796153086 7.0411630505962854
Be 3.610839101857967 4.484782340213798 8.363080947197304
Be 5.724821013269177 4.35962030935154 4.992854712912145
Be 2.2102944721771287 4.340369325257641 4.604535261234381
Be 2.2167474529370237 4.100110720413028 6.712273313045691
Be 5.382085155229603 3.7507216562992993 2.2088248046976946
Be 3.7326513599629156 3.1298031713239087 5.385975831690025
Be 7.013835049619656 3.83184284166316 9.358589118239557
Be 4.003375322065729 4.230396756469027 3.6379142068512644
Be 7.016559796644979 2.7270613155729793 3.1109213333096215
Be 7.159496057203014 3.284820308178667 7.316750844816969
Be 7.27361010053725 2.8978730085144457 5.180523777233896
Be 5.299142581835949 3.095715476986759 8.57221964930671
Be 5.537005346008805 2.3857463515694217 6.303495356162881
Be 3.706569661271192 2.7106983405046137 7.327630154013405
Be 5.248902246560099 2.4796272913646287 4.083861771776736
