47
Energy = -136.49277351 eV
Be 5.181633439406401 3.175759872159517 0.9233653299001942
Be 3.5548083610146457 1.8142634806317868 0.8263346076593894
Be 2.9807378016407315 4.146818962582738 0.8426308965285172
Be 4.253212169499552 8.118837778963279 1.838583460073212
Be 0.8508375255357481 4.207931492317179 1.2303537692958053
Be 5.496386398101453 0.933491326681932 0.5913915414146967
Be 3.2850424132867118 5.614549242948474 3.159733052142218
Be 5.005618964111699 5.210769985131749 1.966355955943386
Be 2.2123818066587306 0.23151469436670405 1.5222641835836435
Be 6.039087219717473 3.464250114732389 2.8764146119037437
Be 1.9640113785668607 5.91924757543146 1.4135129555234731
Be 3.77852682561331 3.4122129176492626 2.587118480280326
Be 1.6113633622968773 7.091354374083032 3.029438296432044
Be 6.931826243664846 1.9444016223600622 1.7541348445833207
Be 3.233873254080136 1.2813504226251229 2.9358039913742324
Be 6.257179010037299 0.07626199558790858 2.4259036999893615
Be 1.7426921332713825 2.325041483569244 1.8462176908648553
Be 1.8625169379468838 4.195644017965552 2.9301354556955994
Be 0.28999210502540707 2.929940829185992 3.3489128678403435
Be 2.8037080042116695 7.672213738439496 3.3831776235263398
Be 3.589548600964226 7.313752151683842 2.2076244643751526
Be 0.32820682042963734 5.3908753018623425 3.304147119367714
Be 5.0547343403287845 1.728229002930495 2.463734181056496
Be 2.221471405389478 2.5335171406044537 3.990788794971967
Be 4.751142679339823 0.23406551353220056 4.030003827634373
Be 5.105638906307866 6.773919222239671 3.687697986591993
Be 1.227449371287723 0.8454254104453226 3.3663244348342616
Be 4.356206622072145 2.524986983088808 4.313750208399454
Be 6.650117222192141 5.313961204385608 3.613178089830343
Be 4.846323837051211 4.594452446591462 4.041393028942678
Be 6.431045515703754 1.5604245893653386 4.026756922558476
Be 3.2224397880520224 7.672213738439497 4.3141097709307346
Be 2.986543276192084 4.158548797151007 4.6654726831072555
Be 1.736177419680922 6.010993769805913 4.826531514315215
Be 0.9363696407502115 1.7981118858227745 5.276278122763684
Be 2.938198430229124 0.8006098597711676 5.051961756151191
Be 0.9945946615151676 4.017791459900346 5.044788476402741
Be 3.8116197960973492 5.875586680152201 5.151279402440371
Be 6.245812706259906 3.4523762492210226 5.045288459926535
Be 2.817101134532542 2.6446589376588703 6.078649503576795
Be 4.969804350558313 1.6551231982163883 5.938932185523975
Be 5.852854622400752 5.743054648754141 5.557954449029419
Be 4.797158915526741 7.6023590069315325 5.785488395513482
Be 4.52157473634865 3.9898375053496227 6.156725405002706
Be 2.8442974388078386 7.187509722255593 6.430681642410404
Be 2.568148227624341 4.936071948956468 6.5615882397362935
Be 4.402723052848971 6.039240570403547 7.179826492229969
