48
Energy = -139.66890303 eV
Be 8.209287429206158 7.178094426667227 3.2505647563962894
Be 4.19630674463918 6.528462927495135 4.021894351121612
Be 6.127442643594585 6.677199538221322 3.2865224097105417
Be 6.677921137303205 8.611024342307964 3.0534765785721647
Be 9.151217041430392 6.516166087959898 5.184699680659421
Be 5.412061510979382 4.72601878048376 4.011044579887374
Be 6.606141452038661 9.992595898905156 4.527547754339092
Be 5.179668876918669 8.319449833674192 4.6970681036493325
Be 7.552371884015125 5.515955068065061 4.36595412060188
Be 8.895372105635083 4.79886738641495 6.7055956106855135
Be 7.257069251488786 7.813728889156381 5.07397966156447
Be 5.744112815912861 6.151265137651289 5.320010335443381
Be 10.012546337562043 7.883050231322692 3.8703735456673027
Be 8.493506357876893 9.33700039938214 3.920020360951702
Be 7.759933993333481 8.276744159906807 7.040084064485599
Be 6.817114708910859 4.243882809872752 5.821319007911678
Be 6.10975384753234 9.581960617253733 6.441999930167102
Be 5.815649629111868 7.579508559822543 6.786181439562216
Be 3.9531336580258105 7.051293497187332 6.043032666337936
Be 7.4698640675009464 6.205473520405672 6.448274576980052
Be 9.493051687605705 6.99549633087805 7.386406814454229
Be 3.8256324380405355 4.972150374185211 5.523603612314453
Be 9.413259138699896 8.555030253668187 5.685598590022622
Be 8.151230200504752 10.164270247776303 5.955171053161199
Be 7.3393422842017655 4.4744771449375556 8.208030550971927
Be 6.083641755306344 3.012247903716427 7.311457829721093
Be 9.19766773257597 5.26634621016889 8.684579286857412
Be 5.001760467724301 3.3264799856203204 5.612007274332765
Be 5.548033327310137 5.360021106345042 7.284538853867896
Be 9.085874179742719 10.601536259812937 9.276482921365238
Be 9.46458085349046 9.407075439560115 7.63579015050701
Be 3.989947540339138 3.6575335038169956 7.435005688458953
Be 7.4946113195333135 10.195116895954005 8.028393245654202
Be 3.315423699278271 5.636529637737544 7.4478285765281225
Be 6.189768705675905 8.694991938357012 8.539481057904156
Be 8.3722872494823 8.169696873080957 8.981863558968719
Be 5.425609885415346 3.641306904356392 9.094217270817195
Be 7.98754501002396 6.052627826116699 10.225208929910227
Be 7.337251440999646 9.614867495373609 10.127026200757356
Be 4.043885130596162 5.074990736155438 9.220439993009036
Be 9.818564064215549 6.858249707912104 9.797399653169295
Be 7.048503337817071 6.644323671599014 8.405087873815967
Be 10.180914421593336 8.957026677916264 9.72477493153436
Be 4.75621708257124 6.9795715413397375 8.527694982846562
Be 6.587664972268293 7.574975566719324 10.273426713533802
Be 5.949260257953258 5.520025192438066 9.772174426652567
Be 8.556043772579386 7.956999700138989 11.057423939859024
Be 9.187814791888211 9.934155002611119 11.19510472475894
