43
Energy = -124.66791207 eV
Be 8.936783945729537 4.89027185991117 3.43295073072057
Be 7.871109993074281 6.35540410999328 2.4418465117281603
Be 7.998493842604188 4.318224384273177 1.7293188794165784
Be 6.427315563735987 5.437579371903794 1.2382284021494991
Be 7.174446219708366 7.951503239796581 3.6855181058137183
Be 8.09839441138954 6.400179668259156 4.642977538303021
Be 8.049594009441519 4.32004683181326 5.256152126224623
Be 7.782515280188883 3.1602278723383086 3.393146139428586
Be 7.031526845767243 7.876839690683828 5.738559216433445
Be 6.435445951474391 4.996067543562666 3.7079116335912286
Be 6.0481294192975685 3.521849852008171 2.063625281128734
Be 5.784096001091419 6.913575780203745 2.5581409262104575
Be 4.580806015935356 5.104514472917251 2.0924074964988666
Be 5.1855639685928665 8.30316944678236 4.099953440590494
Be 7.313875715307372 5.821156154384421 6.539476655954232
Be 5.5590661292179 6.390646856669428 5.111187088135221
Be 7.53270062299408 2.391945494918573 5.402095313294028
Be 5.779968125740978 4.37919115941944 5.805158901794329
Be 7.324346370494942 3.579794742156177 7.136451382282108
Be 5.864954762562944 2.8838163136598673 4.175924910229288
Be 5.772518735226258 7.103923448688001 7.231162512643632
Be 5.136034258671596 8.654510054345549 6.135144522509666
Be 5.716524491160263 3.095267938625432 8.377240226015942
Be 5.729419617361056 2.252200113118422 6.3941539159905325
Be 3.879291645746503 6.668028075975127 3.396641809700538
Be 3.990454317824754 3.2909246269241432 3.007189224444986
Be 4.222731216896341 4.806484206924671 4.53197916872598
Be 3.60752098827657 7.487273703910264 5.400121816197747
Be 4.0509011726370785 2.6948854964497153 5.105413773411545
Be 3.715415247036331 7.750742269790483 7.511876821992431
Be 4.694456984687407 6.526705414372713 8.944582340517554
Be 4.12951393906888 5.6484151943930785 6.666210909992398
Be 5.884085190081568 5.026792763512645 7.906560449162751
Be 2.672080854959417 4.945546947189455 2.937006253775649
Be 4.154984799160176 3.497983912300926 7.076927020652948
Be 2.300463859666769 6.030127862801445 4.617105908155883
Be 2.3024736767589693 3.4943031183014264 4.260906993467929
Be 2.0701547761233714 6.509029188417815 6.663459714744265
Be 2.3251918061030525 2.9469593782729553 6.273811388677129
Be 2.755423151819668 6.25435625274617 8.606545855608026
Be 3.992935297337101 4.554938493274374 8.837731444118612
Be 1.304312582039386 4.649648016081637 5.721207924749535
Be 2.256683922943919 4.557654403864389 7.588695050753269
