44
Energy = -127.17346974 eV
Be 2.2232281851114912 4.673781609732796 1.8315931424716225
Be 2.0029644431909577 5.525526912128427 5.198159348340683
Be 3.8022628110512677 3.3941831560631344 2.18795675667478
Be 2.2958866372288145 3.893235042538391 3.7327045808726
Be 2.37711405863565 7.088163476070236 6.652388492665813
Be 3.721595591578311 4.622949503840396 0.5235355807369368
Be 2.1250289490490006 6.1097345890333 3.208988761222278
Be 3.165563170584012 5.258271840129454 7.281815729521736
Be 4.065597869142014 2.694632437982484 4.142848637995783
Be 4.208848135811128 4.982957111668075 3.6658359938504184
Be 2.162808958851248 7.5618131826407184 4.739768038213077
Be 3.2198854879747474 3.9017828105530623 5.64619133190047
Be 5.773227448799527 3.2981166205542554 3.109231683773278
Be 4.093171494994946 7.06695382409544 7.72812100740485
Be 4.6776478418460705 5.281113772514871 8.903111918700674
Be 5.367520257055763 4.8316698006845815 1.7404394978908209
Be 3.726267318699822 6.224653899742088 1.8217876762416114
Be 4.048545454933334 2.058844925024041 6.0597869921845415
Be 4.232015518979143 6.042154628397643 5.579967725573549
Be 3.93411006265916 8.20386270091377 5.806188202448944
Be 5.375323503795753 4.007384497459395 5.605014632752674
Be 4.311839003109691 3.52729492162845 7.563741594943695
Be 3.9345085627518173 7.240272354621632 3.756761708518839
Be 5.66781558078679 6.630996090714147 2.7446573010192505
Be 5.7596875847439435 5.562726307314818 7.079315187981622
Be 5.889125171307948 2.0014369715976157 5.051879903517393
Be 5.631415578279779 1.9461316970570925 7.245505360996907
Be 5.85376738008873 7.081589370770414 8.757020477649995
Be 6.143669421409581 5.713872898084766 4.650982833083831
Be 5.80671717382826 7.72741108009838 6.730468034336208
Be 7.1851116891895686 3.012339942675691 6.567450789564849
Be 6.805812317660531 5.4660308025941085 9.302025879931897
Be 5.778757536888708 7.828972667005048 4.588500466735521
Be 7.168628007263417 4.9762375829492935 2.8420948959440717
Be 7.4715864288388785 4.947852614264791 6.045665639636346
Be 7.565130677585254 6.984298215803212 3.6008862361363203
Be 7.2769996902990455 3.5811263753644798 4.482181048779929
Be 6.252916072429497 3.7368864334118874 8.343668875546324
Be 7.683999105803073 6.677912712988452 7.747184959416324
Be 8.090300325014208 4.619139602796506 7.9501872712572315
Be 9.344431003408067 7.1284239235183335 4.8103116159713615
Be 7.531778338708652 7.157278388490761 5.714104620412345
Be 9.187581279683478 5.938246999541362 6.448341066110452
Be 8.6087776382122 5.340704472204993 4.36059726833561
