42
Energy = -120.77935781 eV
Be 10.175051025882315 4.052598843413465 8.667667835302225
Be 9.189089685198839 4.422663238944229 10.587387253459333
Be 10.50389762166066 5.774825902034881 9.848123156511152
Be 10.265415761333148 7.661066281004984 10.824171394692236
Be 8.813600213300624 6.297960321488865 11.421298845226184
Be 7.31946012563499 5.319354854404687 10.42164413149388
Be 8.293419246075686 4.820614051571404 8.673734490770217
Be 8.739196174774877 7.0124677347694035 9.216463160157474
Be 6.857211093124188 7.364348429067089 10.493060512104071
Be 6.68292590738186 6.292387215058492 8.660837889202847
Be 10.342722949900335 5.83580146665091 7.690288609104312
Be 10.800537947526337 7.6875397214734305 8.76004601832371
Be 8.441114748371627 8.373409823472295 11.207558117602586
Be 9.669353765250392 5.9525726099416145 5.633722296513083
Be 9.818788098375009 7.7211841728065025 6.884394343560136
Be 8.994914939352228 4.348702898646056 6.721439886240471
Be 9.5659592870023 9.298423779213042 9.692435478056693
Be 8.346454332110387 6.301639222473758 7.257324368473109
Be 7.377376654984922 9.200157717587244 9.642791287735928
Be 10.177712502917633 9.516706874300828 7.793829520820714
Be 8.185410648241412 7.598508781684119 5.534174217022398
Be 5.317875012907348 8.702613206411145 3.8153509035545645
Be 3.9777732645425283 9.430590456003106 5.271039235881476
Be 5.728105308033282 10.496351928096042 4.50491268535675
Be 5.1037680556030045 10.705793145540223 6.4341060628262845
Be 4.279879734916682 9.114815414475169 7.490433834723084
Be 3.057476097968389 7.9368544544174995 6.37957218722946
Be 4.512255600486643 7.3029997419572314 5.117571924305523
Be 6.016947658728923 8.680373041043575 6.103660588497028
Be 5.718428369245557 8.128811121415326 8.630855821438686
Be 4.595771662646762 6.883337324798361 7.265456388769153
Be 7.371360252128943 9.260705531167961 4.417357850726241
Be 7.217406985181856 10.58712226674852 6.144353968513563
Be 6.289570670809754 9.995650088417243 7.953979347240929
Be 6.513991430865561 7.113756853678992 4.473401685106798
Be 8.960783362082099 9.492679749175965 6.080528750336174
Be 5.521334666827859 5.508612809732456 5.4624647617379205
Be 8.353407457009327 10.415727504479303 8.02462506181186
Be 6.509445210066913 6.803825840201929 6.653610444692889
Be 7.737860767395767 8.313427657589447 7.641275666770228
Be 7.679109298230104 5.405039912711265 5.313244004856858
Be 6.882677066860366 4.772818672868904 7.094646674188359
