42
Energy = -95.64404671 eV
Be 3.242459309099738 9.635493058614674 6.823555617218958
Be 3.2252309483603994 9.630910207436319 8.928685147617731
Be 5.789569848540066 9.608084310233462 12.163288311044195
Be 7.868906192769846 9.60405442189235 12.631254562135904
Be 9.953907612671468 9.604106601749763 12.15467451052729
Be 11.603904044313186 9.615129183071554 10.826876534115197
Be 12.511677831606772 9.625679588594013 8.923670954197856
Be 12.514608106735487 9.625765011285596 6.818589976375916
Be 9.956951759518402 9.610253854302321 3.5853966079274735
Be 7.875319244752843 9.60598823953814 3.1104764388532913
Be 4.139292308577736 9.624999402198123 4.915942349466861
Be 2.865314067413014 7.876590943711423 7.871423847774505
Be 6.746771573424007 7.868837212106811 12.730268909568188
Be 8.987046570736247 7.871086051387027 12.721452606918103
Be 11.00746508086656 7.863956831829344 11.756247241451472
Be 12.385150388673125 7.870301467659672 10.022588523048626
Be 12.877723785383413 7.866446909084716 7.87161400502178
Be 12.391718635439243 7.87060702259177 5.718742254353067
Be 8.996266279372131 7.874200640689325 3.012768943228096
Be 6.755991282059891 7.871951801409402 3.021585245878178
Be 3.3578874641230088 7.872736385136755 5.720449329747805
Be 5.794833352821706 9.61455238186877 3.592376765424881
Be 4.735572771929869 7.879081020967086 3.98679061134481
Be 4.133468475493251 6.125917804647773 10.831383067834981
Be 4.139133808483097 6.1279086697248735 4.91616131868094
Be 5.786086093277734 6.132783998493961 12.157641244868664
Be 4.74115042812608 7.8749616821759485 11.763646612921228
Be 7.867718608043442 6.137049613258142 12.632561413942991
Be 9.948204499974722 6.128485470927515 12.150661087371256
Be 7.874131660026584 6.138983430903936 3.111783290660376
Be 5.789130240124962 6.138931251046376 3.588363342268997
Be 12.517806904436029 6.1121276453599656 6.814352705178552
Be 11.603745544218695 6.118038450598161 10.827095503329573
Be 3.2313600211895093 6.117358264202271 6.819366898598426
Be 9.953468004256074 6.134953542562968 3.579749541752236
Be 12.500578543696694 6.107544794181755 8.91948223557747
Be 3.22842974606094 6.1172728415105455 8.924447876420514
Be 3.351319217357187 7.872430830204659 10.024295598443363
Be 4.137930381256114 9.623012355179426 10.829885169285118
Be 11.605107471540315 6.120025497617003 4.91315268351102
Be 11.001887424670205 7.868076170620334 3.979391239875057
Be 11.609569377303032 9.61712004814866 4.911654784961451
