41
Energy = -118.11857557 eV
Be 3.0615845145035117 2.9330997673746046 5.5305847997104465
Be 4.461813240366608 2.728919522544989 7.003960869579175
Be 4.791605751669469 2.6725625189765094 4.4979050426128095
Be 2.013751760500879 4.590694255674153 5.050839966504239
Be 3.2285712277777914 3.7435181771722177 3.5518446933068577
Be 6.536207706320813 2.923095242133449 7.915004133848197
Be 2.9226562066277255 4.40572107340849 7.001247911151986
Be 6.163436967850343 2.9665974353864946 5.891641185851872
Be 6.964396895166855 2.838772038158708 4.003070412197624
Be 5.062097988917032 4.449902773235576 8.0989172415253
Be 5.3169506680332885 3.6293066979769817 2.7221252840287558
Be 3.9501294005226266 5.122838381707888 2.1785543885941085
Be 2.3217089550482406 5.750439894537329 3.2624094129184362
Be 4.709009475470509 4.612591794157168 5.991327882227258
Be 0.9690812368684301 6.355835195977904 4.678634642762356
Be 7.0248578213708415 4.652046209578454 8.936486908514453
Be 6.900948024019487 4.822712794140766 6.557813461410322
Be 2.516113655964443 6.348844058845993 6.059357584585495
Be 8.195270034350253 2.9046535497869646 6.115881773305907
Be 6.0421627559729 4.7632196052283104 4.498224474799711
Be 8.518686158868357 3.6901241933725286 8.035430643641252
Be 4.146143860060357 6.047270314914776 4.478022806229719
Be 4.192204124696834 6.304379420761883 7.27793308477588
Be 2.5316239946041947 7.6006829553397735 4.27607664543411
Be 7.220375472925098 4.439593272175858 2.7383153926852604
Be 9.316413142716357 4.644427035296656 6.496170075289273
Be 8.228059915195617 4.458079413848328 4.664524674668282
Be 5.732851552924179 5.95094528204005 2.6021714713469875
Be 5.897336993349491 6.554606422452584 5.690165453941561
Be 6.198814727209379 6.318794858159857 8.048938684032958
Be 3.905117831016538 7.200912768977851 2.6876806696949833
Be 3.7656619665654483 8.01794337254006 6.018570866160992
Be 8.285881644540376 5.967094140466304 7.835806848973534
Be 8.354250462329343 6.3510436030250155 5.747757684949779
Be 7.450918735941089 6.295225740612148 3.8555968128142246
Be 5.861224925911095 7.717781766939094 3.671629900409835
Be 5.282954745182123 8.075322419015192 7.449656361422237
Be 4.2064572146353125 8.750420971956943 4.135121114977406
Be 7.308011861243007 7.7559064073472666 6.980080927175548
Be 7.480535510208342 8.073304571600914 4.930166959240079
Be 5.718676529120177 8.821079530858468 5.6097982838328235
