42
Energy = -118.75746891 eV
Be 4.311326060071178 5.671392555728078 0.9148850672029175
Be 7.345500454573993 5.415029863907285 3.6162407337056646
Be 6.744943650594519 7.39856404731464 3.032596838201993
Be 4.694633616113503 7.12964856545032 2.2752524866809893
Be 6.881271932021295 8.943890840702675 4.492718866123389
Be 5.952967083991926 5.464390829194493 2.1623000465081983
Be 5.046246581466532 8.474402202132447 3.796915671412508
Be 7.53219976744433 6.979817443827963 4.9808641880982965
Be 3.9007140846951547 5.121247371814324 2.772063099417719
Be 3.201968231388425 6.913574855542574 3.7894688253694433
Be 5.230899093236409 6.23981861961518 4.141219239095864
Be 7.181697984837485 8.620384773484528 6.546228925661625
Be 3.478920077659072 8.590646683095313 5.014251671797036
Be 5.440433314151481 4.180576960986776 3.800454990187075
Be 4.81746175069973 5.197163701026189 6.448493379193487
Be 5.412136018689761 7.4015906230682065 5.817936968430455
Be 3.5935753490988738 4.909263501528693 4.745350433606952
Be 6.528897812621967 5.139929757449522 5.384221839696814
Be 3.3204494880184323 6.648086049762638 5.899011857951952
Be 6.596162085010853 6.445448265969575 7.1823689491704235
Be 8.423727390332273 5.175844599275153 6.105851083282398
Be 4.382371477490786 6.711710089794588 7.811437272871075
Be 8.686388158707372 7.178459382302425 6.836299112943822
Be 5.271034813460473 9.485720560581605 5.84188781836559
Be 10.028035191464967 5.596132684997202 7.289800290700753
Be 6.915818016320742 4.218674674131429 7.229753443572508
Be 5.577875175595165 5.008849319709525 8.620766548367776
Be 7.468702051649656 7.876799800417022 8.60217793328387
Be 3.748694982935143 8.475355984391337 6.985127613717804
Be 9.007800544451824 8.962502886895345 7.892079232328943
Be 5.554031843437567 8.527555446023571 7.877262543316552
Be 9.025257197599716 3.931842990207417 8.035689687419419
Be 10.209428426159379 5.235747865547843 9.286246968575757
Be 8.032191448042159 5.840051137478752 8.581131082787687
Be 7.128352951249568 3.735128944000862 9.15805562956465
Be 6.845603586469321 5.412119296870593 10.448056867495248
Be 8.982837226517768 8.424604225717944 10.033123420677242
Be 8.680950510954373 4.311019190931969 10.207610957031157
Be 5.740055447954319 6.926598022454554 9.367901171257675
Be 9.803761433871733 7.193482763947525 8.6652339050423
Be 8.976792099595452 6.382350445502329 10.571986942742884
Be 7.248814210471241 7.4555107983354985 10.690605018258168
