49
Energy = -145.52899759 eV
Be 8.184403318371729 8.833210033944997 4.905521900136145
Be 9.011012848201482 10.83640439167019 5.245878338350057
Be 9.434014889952024 7.093903739517207 5.303360066035325
Be 7.132742336567727 6.987261633367596 5.149368919666613
Be 7.011331536483874 10.631856402878185 5.149963397691565
Be 9.953427037712316 9.097439500702615 5.904885847745453
Be 6.235668789885625 5.230062737595112 6.138844509202584
Be 5.773437000667657 10.63311094927517 6.792851710528508
Be 6.291703581258911 8.761529405235352 5.8552700559768
Be 8.335779440224584 7.748976780814436 7.035146610384967
Be 5.103598925241099 6.965638437086294 5.786328457686575
Be 9.849106524808018 11.00238460151212 7.1775173485454085
Be 10.856200609350063 7.44810087001054 6.976615953533286
Be 8.242738479686604 5.361050881313757 5.6434224183083055
Be 7.889272565747595 4.0645182679792695 7.181797287401479
Be 7.760008404447847 11.914525826166441 6.799022029991986
Be 4.663035834268807 8.462518104487874 7.21102681567792
Be 6.084653128619931 4.601619466712207 8.05179204048968
Be 8.021812515531234 9.841203812752202 6.8808217913899075
Be 6.537381904189995 9.103646035606971 8.014013608834007
Be 11.48492735770629 9.553142550529733 7.269837748530158
Be 9.917399130722169 5.587785606239835 6.835266865973912
Be 11.484596104390256 8.159383395247485 8.894843861295358
Be 6.410280260618703 7.103521551600704 7.42511692226154
Be 4.630446941960274 6.185295668148798 7.735665231830023
Be 6.684002528598884 11.242826760937396 8.55923876706032
Be 9.715914787131767 8.948214430235796 7.9983990452305
Be 11.19640124675526 5.815103605919293 8.60723231907282
Be 9.600691483356192 4.359010670364396 8.420548142586734
Be 5.210998475054139 7.911652173343035 9.20343588426683
Be 5.953827476241313 5.98997287013796 9.514861346997245
Be 7.956276650544575 5.900232692575073 8.170105425964456
Be 8.835704711293559 11.916626615616488 8.842788000461372
Be 9.586240896941787 7.041727227024703 8.82480950995295
Be 8.303069449079807 9.880595051793064 9.076310991818268
Be 10.65221468762418 10.483323364221148 9.050484614735645
Be 6.318095195799028 9.521256083530782 10.087474206126688
Be 4.875162132734092 10.039272935229361 8.665739017014952
Be 7.729591292934585 4.200136226557108 9.344495484837827
Be 7.4509733532309905 11.219240489510787 10.516772386582549
Be 7.69482395083526 7.827847230458751 9.16290128032656
Be 7.579519604368721 5.683876449422722 10.74470559307898
Be 9.53335640943309 5.269497129431923 10.230830179968994
Be 9.934203474869365 8.797781799307248 10.215827473907352
Be 6.582959491102257 7.565637867281031 10.940247683649641
Be 8.046384289252533 9.185490794620844 11.138371207256727
Be 9.413337010132095 10.796615422433039 10.672145513830069
Be 10.871388733036442 6.876204862152918 10.459368131224224
Be 8.868283077145446 7.212166471609508 11.081127930691268
