43
Energy = -123.16891004 eV
Be 6.747691469046446 2.915301693031592 3.4528350142907906
Be 4.756586056217829 2.8938196279360495 4.464494660829309
Be 8.123201445224058 4.065661778497096 4.438068967927854
Be 5.856101601582155 4.629612608283122 4.090371586754175
Be 3.515388084934154 1.6356202135482403 5.50140140580199
Be 6.548489535599329 2.969073355933843 5.548252300116924
Be 2.861198226637827 3.6019342051916365 5.0622364351975015
Be 4.871193410007732 2.459189529019175 6.773289072818778
Be 8.294005398501863 3.829536201712869 6.527066416723642
Be 9.013076960999511 5.64880906967755 5.684156096241354
Be 7.281425969984471 4.869343083844671 2.6092834435830348
Be 6.325717355398629 3.848028897252156 7.537216002122357
Be 5.539663174762778 6.285030514146926 2.8590646615919506
Be 3.901200126968531 4.657202147067958 3.4841914788790156
Be 6.773075844764637 5.070907078982116 5.837319403639701
Be 5.451685969878676 6.739187444732963 5.063567025190893
Be 2.909583912060741 2.725037413830761 7.07064763870689
Be 9.157539311414299 6.79766359792812 7.595960803986147
Be 7.416265347690058 6.131379313947949 4.174201761846571
Be 7.64295026755667 5.435894135181847 7.787645632246631
Be 7.025397223829323 7.719382909826471 2.96708637812003
Be 4.267928453732994 3.964575250349497 8.208520235155643
Be 7.4396274376687455 6.962439731146604 6.0880915108955325
Be 4.681141485383547 4.567990487329307 5.966004327610803
Be 10.001886251831811 7.640989071977081 6.043875753676124
Be 5.03164301002998 8.293532522640806 3.528813316831005
Be 8.670879934710232 7.767348730098368 4.544243867684928
Be 2.662529601154145 4.714508094230895 6.898036978456176
Be 5.818865515876365 5.3380333962921895 8.971299052864877
Be 3.62321824031545 6.7482212717799746 3.3590608242306756
Be 2.6385926826367303 5.7023049942156945 4.837101997582528
Be 7.251482460600836 7.443328325259688 8.337354956989833
Be 5.654921406112682 6.324711434284533 7.12960328340439
Be 8.338866647563066 8.70204205970322 6.795324911177914
Be 6.843613147711581 8.69871465771146 4.737705993625385
Be 3.3553434275850678 7.890609622941636 5.002593274455226
Be 3.825767987159583 5.998837742193182 8.380873739722762
Be 3.578958831869071 6.488101512892595 6.432074587368644
Be 5.2172864298476735 7.375534850745115 8.99258177012935
Be 6.275044680708532 8.456070282671165 6.690447203084488
Be 4.888825888263158 9.139404486063679 5.441030511867609
Be 4.242277076585644 8.188936010002871 7.294063677744249
Be 5.897890713412898 9.132159953392044 8.435953792878305
