48
Energy = -141.31827588 eV
Be 9.148048569904349 3.3613057784126306 7.887411733104159
Be 8.344387675077863 4.640074752198087 9.33355409867853
Be 8.931086583583923 5.558941871151096 7.443392853048779
Be 8.64606498495828 4.11107901360087 5.920278699705527
Be 7.501236744347628 2.7916185630997075 9.041264582041686
Be 7.541460118646055 2.2973645069073143 6.9350359598456315
Be 8.869425830315915 6.168763620073086 5.327790081378971
Be 7.249709102991425 4.285282483201218 7.512464032136222
Be 7.138854707925987 6.143044087096852 8.531627852122911
Be 6.158033304950456 4.480289699662731 9.378833191015188
Be 8.087618481150377 7.472571514111729 7.078104472466054
Be 5.738034079276963 2.8515239974845588 7.8371313641781235
Be 7.013485049928103 5.845117335253706 6.104239962644695
Be 7.787982477931172 2.4856398365536485 4.9478116779186365
Be 7.73991909010539 4.478527375234728 4.042899090087112
Be 4.2109155768634485 4.025234948078136 8.721616118889148
Be 7.6331349130279 8.09329523483904 5.182280625054927
Be 5.744575406906024 1.981329317131413 5.779439590936864
Be 7.318367638419459 6.530960289119223 3.9388159908009506
Be 6.237175260318387 3.9149375770951274 5.786768377896196
Be 5.903285991459411 7.461037588345277 7.572999748218694
Be 5.450872168354273 5.265599591387787 7.345702990369451
Be 5.637374758459503 7.25099357515217 5.398070766863637
Be 6.833652177520458 9.173207965795111 6.756121113028343
Be 6.12366508040476 8.165580459052261 3.426617786954295
Be 6.2041905381783256 2.9665748240884398 3.798589513970219
Be 4.086253486681638 3.38514224095076 6.70082463328327
Be 4.61805593159694 6.130914161919782 8.924392211791433
Be 5.726247703170824 5.132776349612613 4.111369564420632
Be 5.625914943523759 9.444041366147905 5.03759040503032
Be 4.4155064502798815 5.427771765945075 5.602105620158717
Be 3.1627436875529753 5.208452185870139 7.361763660769554
Be 3.7389637942202105 8.308402196525481 5.35583739640779
Be 4.4267208261550275 3.3227366954014035 4.619053734986883
Be 4.8024194322273335 9.112439777813256 6.9138306406720105
Be 5.9402512989951335 6.191609394972137 2.345433633814267
Be 3.8992994851331275 7.1125072753150755 7.047705035481187
Be 4.934337201573903 4.100750019948046 2.456481520866579
Be 2.6329138435877635 4.309173817755963 5.496314245139713
Be 4.163694624548864 9.04527286587154 3.437858269679377
Be 4.26151317662412 6.863474016110948 3.852968696387344
Be 4.8123905459101515 7.855662058430348 1.8224184172018796
Be 2.249424747778173 8.13536495655432 3.9828985406765645
Be 3.4992720137410394 4.9002801277003645 3.6977577402363018
Be 2.5733952908491133 6.458254829597942 5.383313864530524
Be 3.8580691196370585 5.946210634701771 1.912321475946995
Be 2.800147168435382 7.8335172244341535 2.089205478331222
Be 2.0857201933693905 6.2436145658707884 3.222962900970883
