44
Energy = -127.96253359 eV
Be 6.228577242981522 10.017328135918996 8.521529095345475
Be 6.148360968926437 8.57440843181803 7.03166689421086
Be 8.897664078420197 6.1298837862402005 6.274047616883446
Be 8.12712483228789 8.262033184373893 6.028075083500552
Be 8.148577703469073 12.076115549794572 6.347841368949899
Be 10.033052369182396 11.668980414489644 7.022937588790333
Be 10.16301113166404 7.969269666069956 5.913890395754159
Be 6.254941650458544 7.887580028576963 8.986464843576243
Be 6.809357251041665 11.127399584424628 10.218222516799829
Be 8.926787084641928 10.238078967026803 5.542927352072405
Be 7.9992273561991025 8.792837701851905 8.05468886915714
Be 7.270646978900928 6.854677432036369 7.483634690390389
Be 5.640442834727881 9.279787506042181 10.374925972685393
Be 7.188330110603414 10.319642605292167 6.711616190488239
Be 8.732048976692951 13.097476428918142 8.000200636005767
Be 6.9870568428990865 12.025992330457509 8.208220406946134
Be 9.469830228904259 7.395187614827975 7.786313994187933
Be 7.820918638768121 4.981967161382277 8.04145247935285
Be 6.7237897374447435 5.877702081541531 9.64293049826151
Be 7.752425044267062 9.242029341839979 9.979415737541835
Be 11.048428407943053 7.787064572399665 10.802086503812866
Be 12.182554146889823 7.235865000852393 9.10243261494275
Be 10.617484296399564 9.897114248843065 11.089394773084841
Be 9.840321472174908 8.87122929067223 9.303490259918329
Be 11.127142402561878 10.493535026046155 8.406743315502675
Be 11.192482189015207 6.4806671626150285 7.265095306129112
Be 8.95241306910224 8.267136761067917 11.481757500282276
Be 8.629450865378745 10.73515036679384 11.22143548236737
Be 11.852457931785388 11.30260930076757 10.107280979579679
Be 9.751583190630715 9.525290042551148 7.218774989038222
Be 9.805767680505895 6.217374107696912 11.289309777772415
Be 7.05856560368133 9.486224504318931 11.86865430838608
Be 10.396248085492285 12.416760733392064 9.008032463722845
Be 10.170593876117762 12.031719127316327 11.01298192160503
Be 9.770822074609177 5.058604839269386 7.847967642177791
Be 8.75259205945544 4.934865541986543 9.895323569365734
Be 10.473136092746932 6.182299616983608 9.36316910623513
Be 7.8322388055346135 5.976238124668108 11.473342192880626
Be 8.369908976529155 7.212767310950004 9.549568265978277
Be 8.69773572313102 10.738728322253083 8.721019346699011
Be 8.374113078139072 12.507346416178391 9.968536595895289
Be 6.718490113952612 7.600639217475301 11.010799653168892
Be 11.512954849438197 8.521189984059708 7.663435053191353
Be 12.070734533903536 9.221593015519112 9.678756734962647
