48
Energy = -140.55761089 eV
Be 7.334334290871757 5.351347897980595 8.334601401960649
Be 7.259563070144587 3.2998732738323255 8.466956444832654
Be 5.492848242025312 4.36657835190586 8.591811019742492
Be 7.363180887925745 2.1145885054185007 6.878295062157402
Be 5.577781191782158 6.483255717335204 8.99543918635874
Be 5.4948767445091695 2.406150159711328 7.686711884233433
Be 3.7340768764124688 3.297704147777753 8.149692923424645
Be 7.2646819442382515 7.376660898624345 7.986812280630219
Be 8.558929719309365 3.885189610159563 6.8916976628554085
Be 5.27275436979313 6.318087473887673 6.896585366464592
Be 3.7031573579484482 5.302900434553704 8.272661796243838
Be 8.367507853984856 6.037743388184049 6.669305409207745
Be 6.585100108720364 4.480454817894095 6.396390335755315
Be 3.7854918584827315 7.313220388267612 8.226683805166209
Be 8.687968118947065 8.050104379189724 6.575767862905307
Be 4.3329611016780625 4.429360095031832 5.9192475064461885
Be 5.732340497888606 2.334267376815669 5.568350865348479
Be 5.427393854044131 8.457723178906507 7.853918890969548
Be 3.7229119220564697 2.2820887482273573 6.360439886873579
Be 6.728533610554112 6.640476823106973 5.1014796824833715
Be 7.679238277772675 2.9803883816960326 5.0635760541643
Be 7.172902941919263 9.27324575110869 7.101161597711199
Be 3.856677154713308 8.193502517131614 6.373566174205793
Be 3.0974860416768037 4.217285629993612 3.344095044971049
Be 8.85491793215841 6.974172330005802 4.781956068538194
Be 2.9019911790004738 6.31771873206499 6.595853783749692
Be 4.451521708560785 6.379389355009504 4.667514454747347
Be 8.419177149825352 4.878149421656069 4.946293709323735
Be 2.374355989408046 4.255813730005053 6.879725924957582
Be 5.5270353156107745 9.377209702705036 5.883806858967872
Be 7.816186606821488 3.823723729495113 3.2359113068048813
Be 4.210324723532324 2.5906896066471283 4.2110825268067895
Be 3.9004804384751104 8.897771176805087 4.488378784145898
Be 6.24279842332365 2.50669779247673 3.541465196471172
Be 5.774671828856875 8.529115175777637 3.9251030598610566
Be 2.5383526316061316 7.401590443960302 4.803122801624409
Be 5.967533311590094 4.599760992931375 4.239360937312192
Be 7.582541028340243 8.968862288189593 5.06175112767924
Be 7.619770932462889 7.834415865227897 3.3222725541045035
Be 2.234517135176344 5.300825886153529 4.962178710305534
Be 4.029019344055136 7.627470429700347 2.874848065412471
Be 7.849194326772814 5.8438964000735885 3.206983266909806
Be 2.4459091421494055 3.26435363456857 5.0268688804422865
Be 4.767850515138287 3.5240799101517952 2.426093152467453
Be 6.3663278134065395 4.788620597529875 2.0835805727330308
Be 5.931882270750664 6.684999930153498 2.8090129169200933
Be 2.6002377401130543 6.174205868008758 3.1051866125116714
Be 4.341776257241752 5.545340835735975 2.1974723638662645
