42
Energy = -122.13434206 eV
Be 3.065158052593043 7.266322326117405 7.473297633438556
Be 4.0514693744897174 5.994279876347733 9.031743456242179
Be 4.3752573530710865 8.362270629626671 6.232119372633997
Be 1.5113567053636074 6.365205545124736 6.462905130790099
Be 5.0147715749430235 6.573719485121362 7.369987760911867
Be 6.278273395589341 5.461363631443299 8.567262490674423
Be 2.7578150236057772 5.152528584692366 7.692014493881299
Be 4.587416851408826 4.125513180565514 8.461192214380805
Be 2.6892208336125374 7.694186800429423 5.288107558774101
Be 1.5210622250693824 6.205271808023385 4.465485678269888
Be 7.163742376871233 6.344693119576058 6.895644896524201
Be 6.249404951291647 8.190275667874332 7.139052632079065
Be 3.71324508906307 5.772876432441685 5.8594297523363625
Be 6.682981528757621 3.475865064288179 8.317721553569715
Be 1.9769671432540061 4.472562716551373 5.583416019429884
Be 5.752216062445564 4.677153007255727 6.460277699301944
Be 3.752219951335807 3.6152822039450343 6.494998734249001
Be 4.60219399273774 8.06792503392902 4.094639164624935
Be 6.109431867950055 8.984205097478156 5.274593024183381
Be 3.491833408201506 6.285598780196606 3.736078443152514
Be 8.01307667937042 4.517254548387254 7.075513008692934
Be 7.142048792566351 2.7542349415974035 6.308133396986729
Be 5.060807320925161 4.702766693213071 4.504984398579031
Be 5.287133070760382 2.4956814121680906 7.316146720051852
Be 8.990659096337199 6.016867360305835 5.807045878834923
Be 7.148378290815514 5.427198089424086 4.695788929890492
Be 7.838907547949732 7.904060168533697 5.708016424022587
Be 3.4061300184029335 3.1400137879229826 4.459387592390983
Be 2.30288200161495 4.536703615021412 3.5125853219949676
Be 5.608086189607483 6.64988491095977 5.354558287525246
Be 4.16433562431184 4.5911948187630065 2.5601257720367903
Be 5.211712558784446 2.5904650502579085 5.30929834877722
Be 6.811350096403765 7.736103196300451 3.7844164140603778
Be 5.539017726390494 6.267620699299129 3.0947445012460015
Be 8.740859848592573 3.899290480878491 5.179210534942939
Be 9.532606010477489 5.369558774262448 3.8922390376411653
Be 6.907064811830587 3.15518119861994 4.279398873855332
Be 6.33524598345353 4.406738679517439 2.6030812084318353
Be 5.1016693438435485 2.872572420146027 3.2150802772175266
Be 8.31069103991625 4.028766232836715 3.0831762288494464
Be 8.804522902635837 7.222149161456284 4.036962628837695
Be 7.751406946528374 6.046648473247649 2.672790065771417
