46
Energy = -134.15658266 eV
Be 5.51436052432757 3.4477121721814568 0.5596084157843297
Be 1.3861257418901938 6.545941687140287 4.718400894393126
Be 0.36192035891928515 3.100486157702098 3.2507790987784553
Be 1.1351463334844323 1.0494226672402895 2.898305236428306
Be 2.1649499453161845 1.0108452012471196 4.860625910085314
Be 5.0118723686605104 3.5272056344987224 7.303620260742252
Be 7.632889299035585 5.27864329669035 3.755445683559935
Be 4.214563304921393 5.530943306483917 6.7753254772536335
Be 4.871699719365803 1.3742271277130884 0.7245334379155883
Be 4.8548237241998375 0.6715243569184357 2.718294982382882
Be 6.7928961425301155 3.1902938075084006 5.5832413056058945
Be 4.102184017749271 2.0800540248974486 4.181969026581665
Be 2.8249840958566392 4.2382540632019685 1.8441800902705279
Be 6.132440993517758 5.04878281653923 6.152388777065619
Be 6.869303562248283 4.108069574422414 2.081282916836378
Be 2.943522510618673 1.1336451418827014 1.484708418340427
Be 2.798071047833306 3.9954045165717282 6.926163414641807
Be 4.27417180367288 0.30290164163597305 5.027031347728711
Be 2.181544799947048 6.100236539244676 6.691022571543304
Be 6.239679426820909 1.4787533605968395 4.1977701444328765
Be 3.914520334104922 4.769082464742244 0.1301549114419337
Be 2.18471820232695 3.092931462175964 5.040990997534316
Be 4.953441837392988 5.591660918775501 4.475931429826579
Be 3.5004913019513624 6.994513207826917 5.325329197075559
Be 7.0535710502672275 4.871740518789406 4.252272011156343
Be 4.339830584002871 2.7971593060717876 2.1585195625179177
Be 1.0963153008701338 6.512715844431592 2.6247874279263863
Be 3.1150717754179977 6.169345517444984 3.2245597630741356
Be 5.600023315840811 3.5357881821738393 3.6679575076109394
Be 7.632889299035587 2.940448401349366 3.600905364842587
Be 2.3609866259855155 6.067033485972487 1.081830942479344
Be 2.9297598564379688 5.086221913005426 5.108919025015211
Be 2.9526215692318454 0.08726122098129592 3.2955300137943815
Be 1.84841374238325 4.319554459272197 7.77092227887864
Be 3.339538272629628 2.748870017045006 0.1717671749588682
Be 2.412605760723042 2.529383765762734 3.016249826995913
Be 6.397552197140798 2.0384678164679464 2.0730413197740165
Be 3.6915144451400335 4.0763625279505975 3.6008759528262835
Be 4.908768613165083 4.9731274665984575 2.058409086777274
Be 1.7154521722079015 4.576872727924232 3.574906022911147
Be 0.8896531015900484 4.749383529189802 5.597060512904318
Be 3.4559458548829745 1.994699490264508 6.3571982126610616
Be 5.434424966466869 1.7464593380003155 6.088104253810238
Be 4.4794144206892454 3.7141984581309435 5.4298092317204825
Be 1.2940826434807995 2.7035769340935625 1.2375657552780632
Be 0.5743708815285301 4.711606155843373 1.6848326516452143
